MODEL 1
REMARK VINA RESULT:      -7.1      0.000      0.000
REMARK  Name = 
REMARK  9 active torsions:
REMARK  status: ('A' for Active; 'I' for Inactive)
REMARK    1  A    between atoms: C_1  and  C_2
REMARK    2  A    between atoms: C_2  and  C_4
REMARK    3  A    between atoms: C_7  and  O_8
REMARK    4  A    between atoms: O_8  and  C_9
REMARK    5  A    between atoms: C_9  and  C_10
REMARK    6  A    between atoms: C_10  and  C_11
REMARK    7  A    between atoms: C_10  and  O_12
REMARK    8  A    between atoms: O_12  and  C_13
REMARK    9  A    between atoms: C_16  and  C_17
REMARK                            x       y       z     vdW  Elec       q    Type
REMARK                         _______ _______ _______ _____ _____    ______ ____
ROOT
ATOM      1  C   UNL     1       6.758   6.587  16.297  0.00  0.00    +0.000 C 
ENDROOT
BRANCH   1   2
ATOM      2  C   UNL     1       6.724   5.991  17.711  0.00  0.00    +0.000 C 
ATOM      3  C   UNL     1       7.859   6.519  18.587  0.00  0.00    +0.000 C 
BRANCH   2   4
ATOM      4  O   UNL     1       5.461   6.342  18.294  0.00  0.00    +0.000 OA
BRANCH   4   5
ATOM      5  C   UNL     1       4.480   5.393  18.345  0.00  0.00    +0.000 A 
ATOM      6  C   UNL     1       3.175   5.883  18.247  0.00  0.00    +0.000 A 
ATOM      7  C   UNL     1       2.080   5.014  18.289  0.00  0.00    +0.000 A 
ATOM      8  C   UNL     1       2.288   3.638  18.410  0.00  0.00    +0.000 A 
ATOM      9  C   UNL     1       3.592   3.143  18.475  0.00  0.00    +0.000 A 
ATOM     10  C   UNL     1       4.684   4.016  18.434  0.00  0.00    +0.000 A 
BRANCH   8  11
ATOM     11  C   UNL     1       1.177   2.738  18.470  0.00  0.00    +0.000 C 
ATOM     12  N   UNL     1       0.281   2.001  18.520  0.00  0.00    +0.000 NA
ENDBRANCH   8  11
ENDBRANCH   4   5
ENDBRANCH   2   4
ENDBRANCH   1   2
BRANCH   1  13
ATOM     13  O   UNL     1       7.696   5.925  15.447  0.00  0.00    +0.000 OA
BRANCH  13  17
ATOM     14  C   UNL     1       5.945   3.444  12.585  0.00  0.00    +0.000 A 
ATOM     15  C   UNL     1       5.438   3.560  13.883  0.00  0.00    +0.000 A 
ATOM     16  C   UNL     1       6.064   4.405  14.804  0.00  0.00    +0.000 A 
ATOM     17  C   UNL     1       7.208   5.123  14.455  0.00  0.00    +0.000 A 
ATOM     18  C   UNL     1       7.716   5.006  13.161  0.00  0.00    +0.000 A 
ATOM     19  C   UNL     1       7.079   4.180  12.227  0.00  0.00    +0.000 A 
BRANCH  14  21
ATOM     20  C   UNL     1       6.037   1.316  11.129  0.00  0.00    +0.000 C 
ATOM     21  C   UNL     1       5.310   2.563  11.561  0.00  0.00    +0.000 C 
ATOM     22  O   UNL     1       4.218   2.862  11.085  0.00  0.00    +0.000 OA
ENDBRANCH  14  21
ENDBRANCH  13  17
ENDBRANCH   1  13
TORSDOF 7
ENDMDL
MODEL 2
REMARK VINA RESULT:      -7.1      2.501      5.910
REMARK  Name = 
REMARK  9 active torsions:
REMARK  status: ('A' for Active; 'I' for Inactive)
REMARK    1  A    between atoms: C_1  and  C_2
REMARK    2  A    between atoms: C_2  and  C_4
REMARK    3  A    between atoms: C_7  and  O_8
REMARK    4  A    between atoms: O_8  and  C_9
REMARK    5  A    between atoms: C_9  and  C_10
REMARK    6  A    between atoms: C_10  and  C_11
REMARK    7  A    between atoms: C_10  and  O_12
REMARK    8  A    between atoms: O_12  and  C_13
REMARK    9  A    between atoms: C_16  and  C_17
REMARK                            x       y       z     vdW  Elec       q    Type
REMARK                         _______ _______ _______ _____ _____    ______ ____
ROOT
ATOM      1  C   UNL     1       7.613   5.158  18.492  0.00  0.00    +0.000 C 
ENDROOT
BRANCH   1   2
ATOM      2  C   UNL     1       7.136   5.852  17.209  0.00  0.00    +0.000 C 
ATOM      3  C   UNL     1       7.388   7.358  17.240  0.00  0.00    +0.000 C 
BRANCH   2   4
ATOM      4  O   UNL     1       7.850   5.265  16.113  0.00  0.00    +0.000 OA
BRANCH   4   5
ATOM      5  C   UNL     1       7.141   4.819  15.035  0.00  0.00    +0.000 A 
ATOM      6  C   UNL     1       5.868   4.321  15.328  0.00  0.00    +0.000 A 
ATOM      7  C   UNL     1       5.041   3.830  14.312  0.00  0.00    +0.000 A 
ATOM      8  C   UNL     1       5.479   3.854  12.985  0.00  0.00    +0.000 A 
ATOM      9  C   UNL     1       6.737   4.382  12.687  0.00  0.00    +0.000 A 
ATOM     10  C   UNL     1       7.561   4.869  13.706  0.00  0.00    +0.000 A 
BRANCH   8  11
ATOM     11  C   UNL     1       4.650   3.342  11.937  0.00  0.00    +0.000 C 
ATOM     12  N   UNL     1       3.984   2.930  11.081  0.00  0.00    +0.000 NA
ENDBRANCH   8  11
ENDBRANCH   4   5
ENDBRANCH   2   4
ENDBRANCH   1   2
BRANCH   1  13
ATOM     13  O   UNL     1       6.617   5.158  19.516  0.00  0.00    +0.000 OA
BRANCH  13  17
ATOM     14  C   UNL     1       2.732   4.038  18.483  0.00  0.00    +0.000 A 
ATOM     15  C   UNL     1       3.087   5.369  18.719  0.00  0.00    +0.000 A 
ATOM     16  C   UNL     1       4.403   5.690  19.064  0.00  0.00    +0.000 A 
ATOM     17  C   UNL     1       5.371   4.695  19.199  0.00  0.00    +0.000 A 
ATOM     18  C   UNL     1       5.018   3.366  18.967  0.00  0.00    +0.000 A 
ATOM     19  C   UNL     1       3.707   3.041  18.597  0.00  0.00    +0.000 A 
BRANCH  14  21
ATOM     20  C   UNL     1       0.662   2.552  18.890  0.00  0.00    +0.000 C 
ATOM     21  C   UNL     1       1.343   3.641  18.104  0.00  0.00    +0.000 C 
ATOM     22  O   UNL     1       0.780   4.199  17.166  0.00  0.00    +0.000 OA
ENDBRANCH  14  21
ENDBRANCH  13  17
ENDBRANCH   1  13
TORSDOF 7
ENDMDL
MODEL 3
REMARK VINA RESULT:      -7.1      0.982      1.058
REMARK  Name = 
REMARK  9 active torsions:
REMARK  status: ('A' for Active; 'I' for Inactive)
REMARK    1  A    between atoms: C_1  and  C_2
REMARK    2  A    between atoms: C_2  and  C_4
REMARK    3  A    between atoms: C_7  and  O_8
REMARK    4  A    between atoms: O_8  and  C_9
REMARK    5  A    between atoms: C_9  and  C_10
REMARK    6  A    between atoms: C_10  and  C_11
REMARK    7  A    between atoms: C_10  and  O_12
REMARK    8  A    between atoms: O_12  and  C_13
REMARK    9  A    between atoms: C_16  and  C_17
REMARK                            x       y       z     vdW  Elec       q    Type
REMARK                         _______ _______ _______ _____ _____    ______ ____
ROOT
ATOM      1  C   UNL     1       7.318   5.419  16.867  0.00  0.00    +0.000 C 
ENDROOT
BRANCH   1   2
ATOM      2  C   UNL     1       6.812   6.574  17.742  0.00  0.00    +0.000 C 
ATOM      3  C   UNL     1       7.627   7.849  17.541  0.00  0.00    +0.000 C 
BRANCH   2   4
ATOM      4  O   UNL     1       5.444   6.814  17.385  0.00  0.00    +0.000 OA
BRANCH   4   5
ATOM      5  C   UNL     1       4.487   5.962  17.858  0.00  0.00    +0.000 A 
ATOM      6  C   UNL     1       4.120   6.163  19.191  0.00  0.00    +0.000 A 
ATOM      7  C   UNL     1       3.152   5.355  19.796  0.00  0.00    +0.000 A 
ATOM      8  C   UNL     1       2.528   4.346  19.059  0.00  0.00    +0.000 A 
ATOM      9  C   UNL     1       2.869   4.164  17.717  0.00  0.00    +0.000 A 
ATOM     10  C   UNL     1       3.838   4.973  17.117  0.00  0.00    +0.000 A 
BRANCH   8  11
ATOM     11  C   UNL     1       1.547   3.501  19.669  0.00  0.00    +0.000 C 
ATOM     12  N   UNL     1       0.757   2.808  20.164  0.00  0.00    +0.000 NA
ENDBRANCH   8  11
ENDBRANCH   4   5
ENDBRANCH   2   4
ENDBRANCH   1   2
BRANCH   1  13
ATOM     13  O   UNL     1       7.602   5.830  15.529  0.00  0.00    +0.000 OA
BRANCH  13  17
ATOM     14  C   UNL     1       5.958   3.390  12.570  0.00  0.00    +0.000 A 
ATOM     15  C   UNL     1       5.425   3.461  13.860  0.00  0.00    +0.000 A 
ATOM     16  C   UNL     1       6.015   4.294  14.815  0.00  0.00    +0.000 A 
ATOM     17  C   UNL     1       7.150   5.045  14.507  0.00  0.00    +0.000 A 
ATOM     18  C   UNL     1       7.684   4.973  13.221  0.00  0.00    +0.000 A 
ATOM     19  C   UNL     1       7.083   4.159  12.253  0.00  0.00    +0.000 A 
BRANCH  14  21
ATOM     20  C   UNL     1       6.154   1.343  11.012  0.00  0.00    +0.000 C 
ATOM     21  C   UNL     1       5.362   2.523  11.511  0.00  0.00    +0.000 C 
ATOM     22  O   UNL     1       4.248   2.780  11.062  0.00  0.00    +0.000 OA
ENDBRANCH  14  21
ENDBRANCH  13  17
ENDBRANCH   1  13
TORSDOF 7
ENDMDL
MODEL 4
REMARK VINA RESULT:      -7.0      3.357      5.077
REMARK  Name = 
REMARK  9 active torsions:
REMARK  status: ('A' for Active; 'I' for Inactive)
REMARK    1  A    between atoms: C_1  and  C_2
REMARK    2  A    between atoms: C_2  and  C_4
REMARK    3  A    between atoms: C_7  and  O_8
REMARK    4  A    between atoms: O_8  and  C_9
REMARK    5  A    between atoms: C_9  and  C_10
REMARK    6  A    between atoms: C_10  and  C_11
REMARK    7  A    between atoms: C_10  and  O_12
REMARK    8  A    between atoms: O_12  and  C_13
REMARK    9  A    between atoms: C_16  and  C_17
REMARK                            x       y       z     vdW  Elec       q    Type
REMARK                         _______ _______ _______ _____ _____    ______ ____
ROOT
ATOM      1  C   UNL     1       3.132   4.013  18.570  0.00  0.00    +0.000 C 
ENDROOT
BRANCH   1   2
ATOM      2  C   UNL     1       2.226   4.914  19.421  0.00  0.00    +0.000 C 
ATOM      3  C   UNL     1       1.830   4.253  20.739  0.00  0.00    +0.000 C 
BRANCH   2   4
ATOM      4  O   UNL     1       2.951   6.123  19.684  0.00  0.00    +0.000 OA
BRANCH   4   5
ATOM      5  C   UNL     1       2.296   7.315  19.568  0.00  0.00    +0.000 A 
ATOM      6  C   UNL     1       2.327   7.887  18.293  0.00  0.00    +0.000 A 
ATOM      7  C   UNL     1       1.696   9.110  18.041  0.00  0.00    +0.000 A 
ATOM      8  C   UNL     1       1.010   9.762  19.068  0.00  0.00    +0.000 A 
ATOM      9  C   UNL     1       0.949   9.177  20.335  0.00  0.00    +0.000 A 
ATOM     10  C   UNL     1       1.583   7.955  20.581  0.00  0.00    +0.000 A 
BRANCH   8  11
ATOM     11  C   UNL     1       0.373  11.021  18.830  0.00  0.00    +0.000 C 
ATOM     12  N   UNL     1      -0.149  12.041  18.644  0.00  0.00    +0.000 NA
ENDBRANCH   8  11
ENDBRANCH   4   5
ENDBRANCH   2   4
ENDBRANCH   1   2
BRANCH   1  13
ATOM     13  O   UNL     1       4.516   4.333  18.718  0.00  0.00    +0.000 OA
BRANCH  13  17
ATOM     14  C   UNL     1       6.562   4.702  15.100  0.00  0.00    +0.000 A 
ATOM     15  C   UNL     1       5.191   4.433  15.158  0.00  0.00    +0.000 A 
ATOM     16  C   UNL     1       4.555   4.318  16.397  0.00  0.00    +0.000 A 
ATOM     17  C   UNL     1       5.273   4.445  17.587  0.00  0.00    +0.000 A 
ATOM     18  C   UNL     1       6.641   4.711  17.530  0.00  0.00    +0.000 A 
ATOM     19  C   UNL     1       7.280   4.851  16.292  0.00  0.00    +0.000 A 
BRANCH  14  21
ATOM     20  C   UNL     1       6.851   4.003  12.633  0.00  0.00    +0.000 C 
ATOM     21  C   UNL     1       7.290   4.842  13.804  0.00  0.00    +0.000 C 
ATOM     22  O   UNL     1       8.229   5.629  13.709  0.00  0.00    +0.000 OA
ENDBRANCH  14  21
ENDBRANCH  13  17
ENDBRANCH   1  13
TORSDOF 7
ENDMDL
MODEL 5
REMARK VINA RESULT:      -7.0      0.633      1.574
REMARK  Name = 
REMARK  9 active torsions:
REMARK  status: ('A' for Active; 'I' for Inactive)
REMARK    1  A    between atoms: C_1  and  C_2
REMARK    2  A    between atoms: C_2  and  C_4
REMARK    3  A    between atoms: C_7  and  O_8
REMARK    4  A    between atoms: O_8  and  C_9
REMARK    5  A    between atoms: C_9  and  C_10
REMARK    6  A    between atoms: C_10  and  C_11
REMARK    7  A    between atoms: C_10  and  O_12
REMARK    8  A    between atoms: O_12  and  C_13
REMARK    9  A    between atoms: C_16  and  C_17
REMARK                            x       y       z     vdW  Elec       q    Type
REMARK                         _______ _______ _______ _____ _____    ______ ____
ROOT
ATOM      1  C   UNL     1       6.363   6.217  17.061  0.00  0.00    +0.000 C 
ENDROOT
BRANCH   1   2
ATOM      2  C   UNL     1       6.911   5.665  18.385  0.00  0.00    +0.000 C 
ATOM      3  C   UNL     1       8.158   6.414  18.849  0.00  0.00    +0.000 C 
BRANCH   2   4
ATOM      4  O   UNL     1       5.873   5.798  19.366  0.00  0.00    +0.000 OA
BRANCH   4   5
ATOM      5  C   UNL     1       4.699   5.131  19.168  0.00  0.00    +0.000 A 
ATOM      6  C   UNL     1       4.790   3.738  19.235  0.00  0.00    +0.000 A 
ATOM      7  C   UNL     1       3.658   2.937  19.047  0.00  0.00    +0.000 A 
ATOM      8  C   UNL     1       2.417   3.532  18.809  0.00  0.00    +0.000 A 
ATOM      9  C   UNL     1       2.317   4.925  18.774  0.00  0.00    +0.000 A 
ATOM     10  C   UNL     1       3.452   5.721  18.961  0.00  0.00    +0.000 A 
BRANCH   8  11
ATOM     11  C   UNL     1       1.253   2.726  18.599  0.00  0.00    +0.000 C 
ATOM     12  N   UNL     1       0.308   2.076  18.421  0.00  0.00    +0.000 NA
ENDBRANCH   8  11
ENDBRANCH   4   5
ENDBRANCH   2   4
ENDBRANCH   1   2
BRANCH   1  13
ATOM     13  O   UNL     1       7.193   5.884  15.946  0.00  0.00    +0.000 OA
BRANCH  13  17
ATOM     14  C   UNL     1       5.840   3.514  12.789  0.00  0.00    +0.000 A 
ATOM     15  C   UNL     1       7.059   4.198  12.739  0.00  0.00    +0.000 A 
ATOM     16  C   UNL     1       7.464   4.980  13.825  0.00  0.00    +0.000 A 
ATOM     17  C   UNL     1       6.658   5.109  14.957  0.00  0.00    +0.000 A 
ATOM     18  C   UNL     1       5.441   4.429  15.005  0.00  0.00    +0.000 A 
ATOM     19  C   UNL     1       5.040   3.625  13.931  0.00  0.00    +0.000 A 
BRANCH  14  21
ATOM     20  C   UNL     1       6.221   1.504  11.215  0.00  0.00    +0.000 C 
ATOM     21  C   UNL     1       5.363   2.660  11.661  0.00  0.00    +0.000 C 
ATOM     22  O   UNL     1       4.291   2.907  11.115  0.00  0.00    +0.000 OA
ENDBRANCH  14  21
ENDBRANCH  13  17
ENDBRANCH   1  13
TORSDOF 7
ENDMDL
MODEL 6
REMARK VINA RESULT:      -6.9      2.550      5.934
REMARK  Name = 
REMARK  9 active torsions:
REMARK  status: ('A' for Active; 'I' for Inactive)
REMARK    1  A    between atoms: C_1  and  C_2
REMARK    2  A    between atoms: C_2  and  C_4
REMARK    3  A    between atoms: C_7  and  O_8
REMARK    4  A    between atoms: O_8  and  C_9
REMARK    5  A    between atoms: C_9  and  C_10
REMARK    6  A    between atoms: C_10  and  C_11
REMARK    7  A    between atoms: C_10  and  O_12
REMARK    8  A    between atoms: O_12  and  C_13
REMARK    9  A    between atoms: C_16  and  C_17
REMARK                            x       y       z     vdW  Elec       q    Type
REMARK                         _______ _______ _______ _____ _____    ______ ____
ROOT
ATOM      1  C   UNL     1       7.558   5.590  18.782  0.00  0.00    +0.000 C 
ENDROOT
BRANCH   1   2
ATOM      2  C   UNL     1       7.171   6.266  17.459  0.00  0.00    +0.000 C 
ATOM      3  C   UNL     1       7.622   7.723  17.403  0.00  0.00    +0.000 C 
BRANCH   2   4
ATOM      4  O   UNL     1       7.796   5.525  16.402  0.00  0.00    +0.000 OA
BRANCH   4   5
ATOM      5  C   UNL     1       7.005   4.985  15.428  0.00  0.00    +0.000 A 
ATOM      6  C   UNL     1       7.546   5.013  14.140  0.00  0.00    +0.000 A 
ATOM      7  C   UNL     1       6.835   4.493  13.053  0.00  0.00    +0.000 A 
ATOM      8  C   UNL     1       5.577   3.921  13.255  0.00  0.00    +0.000 A 
ATOM      9  C   UNL     1       5.048   3.862  14.547  0.00  0.00    +0.000 A 
ATOM     10  C   UNL     1       5.762   4.384  15.629  0.00  0.00    +0.000 A 
BRANCH   8  11
ATOM     11  C   UNL     1       4.831   3.399  12.151  0.00  0.00    +0.000 C 
ATOM     12  N   UNL     1       4.232   2.979  11.250  0.00  0.00    +0.000 NA
ENDBRANCH   8  11
ENDBRANCH   4   5
ENDBRANCH   2   4
ENDBRANCH   1   2
BRANCH   1  13
ATOM     13  O   UNL     1       6.499   5.620  19.741  0.00  0.00    +0.000 OA
BRANCH  13  17
ATOM     14  C   UNL     1       3.019   3.528  18.780  0.00  0.00    +0.000 A 
ATOM     15  C   UNL     1       4.263   2.899  18.882  0.00  0.00    +0.000 A 
ATOM     16  C   UNL     1       5.399   3.648  19.206  0.00  0.00    +0.000 A 
ATOM     17  C   UNL     1       5.315   5.026  19.408  0.00  0.00    +0.000 A 
ATOM     18  C   UNL     1       4.075   5.654  19.303  0.00  0.00    +0.000 A 
ATOM     19  C   UNL     1       2.930   4.906  19.003  0.00  0.00    +0.000 A 
BRANCH  14  21
ATOM     20  C   UNL     1       0.617   2.824  19.407  0.00  0.00    +0.000 C 
ATOM     21  C   UNL     1       1.774   2.775  18.444  0.00  0.00    +0.000 C 
ATOM     22  O   UNL     1       1.709   2.130  17.401  0.00  0.00    +0.000 OA
ENDBRANCH  14  21
ENDBRANCH  13  17
ENDBRANCH   1  13
TORSDOF 7
ENDMDL
MODEL 7
REMARK VINA RESULT:      -6.7      4.711      8.171
REMARK  Name = 
REMARK  9 active torsions:
REMARK  status: ('A' for Active; 'I' for Inactive)
REMARK    1  A    between atoms: C_1  and  C_2
REMARK    2  A    between atoms: C_2  and  C_4
REMARK    3  A    between atoms: C_7  and  O_8
REMARK    4  A    between atoms: O_8  and  C_9
REMARK    5  A    between atoms: C_9  and  C_10
REMARK    6  A    between atoms: C_10  and  C_11
REMARK    7  A    between atoms: C_10  and  O_12
REMARK    8  A    between atoms: O_12  and  C_13
REMARK    9  A    between atoms: C_16  and  C_17
REMARK                            x       y       z     vdW  Elec       q    Type
REMARK                         _______ _______ _______ _____ _____    ______ ____
ROOT
ATOM      1  C   UNL     1       7.869   8.820  17.768  0.00  0.00    +0.000 C 
ENDROOT
BRANCH   1   2
ATOM      2  C   UNL     1       7.720   7.363  17.309  0.00  0.00    +0.000 C 
ATOM      3  C   UNL     1       7.597   6.398  18.486  0.00  0.00    +0.000 C 
BRANCH   2   4
ATOM      4  O   UNL     1       6.541   7.288  16.497  0.00  0.00    +0.000 OA
BRANCH   4   5
ATOM      5  C   UNL     1       5.690   6.236  16.678  0.00  0.00    +0.000 A 
ATOM      6  C   UNL     1       4.544   6.520  17.425  0.00  0.00    +0.000 A 
ATOM      7  C   UNL     1       3.593   5.527  17.684  0.00  0.00    +0.000 A 
ATOM      8  C   UNL     1       3.777   4.239  17.176  0.00  0.00    +0.000 A 
ATOM      9  C   UNL     1       4.906   3.960  16.401  0.00  0.00    +0.000 A 
ATOM     10  C   UNL     1       5.853   4.956  16.146  0.00  0.00    +0.000 A 
BRANCH   8  11
ATOM     11  C   UNL     1       2.822   3.208  17.446  0.00  0.00    +0.000 C 
ATOM     12  N   UNL     1       2.052   2.366  17.661  0.00  0.00    +0.000 NA
ENDBRANCH   8  11
ENDBRANCH   4   5
ENDBRANCH   2   4
ENDBRANCH   1   2
BRANCH   1  13
ATOM     13  O   UNL     1       8.775   8.958  18.865  0.00  0.00    +0.000 OA
BRANCH  13  17
ATOM     14  C   UNL     1      10.201  12.842  19.406  0.00  0.00    +0.000 A 
ATOM     15  C   UNL     1       9.905  12.325  18.141  0.00  0.00    +0.000 A 
ATOM     16  C   UNL     1       9.431  11.016  18.015  0.00  0.00    +0.000 A 
ATOM     17  C   UNL     1       9.268  10.202  19.137  0.00  0.00    +0.000 A 
ATOM     18  C   UNL     1       9.567  10.715  20.399  0.00  0.00    +0.000 A 
ATOM     19  C   UNL     1      10.019  12.034  20.533  0.00  0.00    +0.000 A 
BRANCH  14  21
ATOM     20  C   UNL     1      10.632  14.848  20.970  0.00  0.00    +0.000 C 
ATOM     21  C   UNL     1      10.703  14.235  19.597  0.00  0.00    +0.000 C 
ATOM     22  O   UNL     1      11.161  14.859  18.642  0.00  0.00    +0.000 OA
ENDBRANCH  14  21
ENDBRANCH  13  17
ENDBRANCH   1  13
TORSDOF 7
ENDMDL
MODEL 8
REMARK VINA RESULT:      -6.7      4.219      8.091
REMARK  Name = 
REMARK  9 active torsions:
REMARK  status: ('A' for Active; 'I' for Inactive)
REMARK    1  A    between atoms: C_1  and  C_2
REMARK    2  A    between atoms: C_2  and  C_4
REMARK    3  A    between atoms: C_7  and  O_8
REMARK    4  A    between atoms: O_8  and  C_9
REMARK    5  A    between atoms: C_9  and  C_10
REMARK    6  A    between atoms: C_10  and  C_11
REMARK    7  A    between atoms: C_10  and  O_12
REMARK    8  A    between atoms: O_12  and  C_13
REMARK    9  A    between atoms: C_16  and  C_17
REMARK                            x       y       z     vdW  Elec       q    Type
REMARK                         _______ _______ _______ _____ _____    ______ ____
ROOT
ATOM      1  C   UNL     1       2.075   5.310  19.781  0.00  0.00    +0.000 C 
ENDROOT
BRANCH   1   2
ATOM      2  C   UNL     1       2.925   4.243  20.486  0.00  0.00    +0.000 C 
ATOM      3  C   UNL     1       2.158   3.543  21.606  0.00  0.00    +0.000 C 
BRANCH   2   4
ATOM      4  O   UNL     1       3.316   3.283  19.495  0.00  0.00    +0.000 OA
BRANCH   4   5
ATOM      5  C   UNL     1       4.133   3.691  18.480  0.00  0.00    +0.000 A 
ATOM      6  C   UNL     1       5.372   4.198  18.881  0.00  0.00    +0.000 A 
ATOM      7  C   UNL     1       6.300   4.652  17.938  0.00  0.00    +0.000 A 
ATOM      8  C   UNL     1       5.997   4.581  16.576  0.00  0.00    +0.000 A 
ATOM      9  C   UNL     1       4.774   4.044  16.170  0.00  0.00    +0.000 A 
ATOM     10  C   UNL     1       3.849   3.593  17.117  0.00  0.00    +0.000 A 
BRANCH   8  11
ATOM     11  C   UNL     1       6.930   5.056  15.599  0.00  0.00    +0.000 C 
ATOM     12  N   UNL     1       7.692   5.434  14.810  0.00  0.00    +0.000 NA
ENDBRANCH   8  11
ENDBRANCH   4   5
ENDBRANCH   2   4
ENDBRANCH   1   2
BRANCH   1  13
ATOM     13  O   UNL     1       2.805   6.513  19.534  0.00  0.00    +0.000 OA
BRANCH  13  17
ATOM     14  C   UNL     1       0.647  10.085  19.502  0.00  0.00    +0.000 A 
ATOM     15  C   UNL     1       0.777   9.302  20.652  0.00  0.00    +0.000 A 
ATOM     16  C   UNL     1       1.510   8.112  20.608  0.00  0.00    +0.000 A 
ATOM     17  C   UNL     1       2.101   7.678  19.421  0.00  0.00    +0.000 A 
ATOM     18  C   UNL     1       1.969   8.457  18.272  0.00  0.00    +0.000 A 
ATOM     19  C   UNL     1       1.256   9.661  18.315  0.00  0.00    +0.000 A 
BRANCH  14  21
ATOM     20  C   UNL     1      -0.962  11.700  18.293  0.00  0.00    +0.000 C 
ATOM     21  C   UNL     1      -0.119  11.367  19.496  0.00  0.00    +0.000 C 
ATOM     22  O   UNL     1      -0.050  12.127  20.458  0.00  0.00    +0.000 OA
ENDBRANCH  14  21
ENDBRANCH  13  17
ENDBRANCH   1  13
TORSDOF 7
ENDMDL
MODEL 9
REMARK VINA RESULT:      -6.7      3.581      5.664
REMARK  Name = 
REMARK  9 active torsions:
REMARK  status: ('A' for Active; 'I' for Inactive)
REMARK    1  A    between atoms: C_1  and  C_2
REMARK    2  A    between atoms: C_2  and  C_4
REMARK    3  A    between atoms: C_7  and  O_8
REMARK    4  A    between atoms: O_8  and  C_9
REMARK    5  A    between atoms: C_9  and  C_10
REMARK    6  A    between atoms: C_10  and  C_11
REMARK    7  A    between atoms: C_10  and  O_12
REMARK    8  A    between atoms: O_12  and  C_13
REMARK    9  A    between atoms: C_16  and  C_17
REMARK                            x       y       z     vdW  Elec       q    Type
REMARK                         _______ _______ _______ _____ _____    ______ ____
ROOT
ATOM      1  C   UNL     1       2.589   1.893  19.214  0.00  0.00    +0.000 C 
ENDROOT
BRANCH   1   2
ATOM      2  C   UNL     1       1.802   2.101  20.515  0.00  0.00    +0.000 C 
ATOM      3  C   UNL     1       2.710   2.477  21.684  0.00  0.00    +0.000 C 
BRANCH   2   4
ATOM      4  O   UNL     1       0.856   3.153  20.280  0.00  0.00    +0.000 OA
BRANCH   4   5
ATOM      5  C   UNL     1       1.280   4.279  19.634  0.00  0.00    +0.000 A 
ATOM      6  C   UNL     1       1.719   5.311  20.468  0.00  0.00    +0.000 A 
ATOM      7  C   UNL     1       2.176   6.520  19.931  0.00  0.00    +0.000 A 
ATOM      8  C   UNL     1       2.214   6.695  18.545  0.00  0.00    +0.000 A 
ATOM      9  C   UNL     1       1.806   5.653  17.709  0.00  0.00    +0.000 A 
ATOM     10  C   UNL     1       1.348   4.448  18.251  0.00  0.00    +0.000 A 
BRANCH   8  11
ATOM     11  C   UNL     1       2.663   7.931  17.981  0.00  0.00    +0.000 C 
ATOM     12  N   UNL     1       3.021   8.934  17.519  0.00  0.00    +0.000 NA
ENDBRANCH   8  11
ENDBRANCH   4   5
ENDBRANCH   2   4
ENDBRANCH   1   2
BRANCH   1  13
ATOM     13  O   UNL     1       3.995   2.077  19.390  0.00  0.00    +0.000 OA
BRANCH  13  17
ATOM     14  C   UNL     1       5.614   5.415  17.479  0.00  0.00    +0.000 A 
ATOM     15  C   UNL     1       5.058   4.346  16.770  0.00  0.00    +0.000 A 
ATOM     16  C   UNL     1       4.530   3.250  17.460  0.00  0.00    +0.000 A 
ATOM     17  C   UNL     1       4.569   3.194  18.854  0.00  0.00    +0.000 A 
ATOM     18  C   UNL     1       5.126   4.259  19.562  0.00  0.00    +0.000 A 
ATOM     19  C   UNL     1       5.635   5.369  18.878  0.00  0.00    +0.000 A 
BRANCH  14  21
ATOM     20  C   UNL     1       7.377   7.298  17.406  0.00  0.00    +0.000 C 
ATOM     21  C   UNL     1       6.184   6.612  16.793  0.00  0.00    +0.000 C 
ATOM     22  O   UNL     1       5.678   7.020  15.751  0.00  0.00    +0.000 OA
ENDBRANCH  14  21
ENDBRANCH  13  17
ENDBRANCH   1  13
TORSDOF 7
ENDMDL
