MODEL 1
REMARK VINA RESULT:      -8.8      0.000      0.000
REMARK  Name = 
REMARK  8 active torsions:
REMARK  status: ('A' for Active; 'I' for Inactive)
REMARK    1  A    between atoms: C_1  and  O_2
REMARK    2  A    between atoms: O_2  and  C_3
REMARK    3  A    between atoms: C_7  and  C_8
REMARK    4  A    between atoms: C_11  and  C_12
REMARK    5  A    between atoms: C_12  and  O_13
REMARK    6  A    between atoms: C_12  and  C_14
REMARK    7  A    between atoms: C_15  and  C_16
REMARK    8  A    between atoms: N_25  and  C_26
REMARK                            x       y       z     vdW  Elec       q    Type
REMARK                         _______ _______ _______ _____ _____    ______ ____
ROOT
ATOM      1  C   UNL     1       2.707   5.904  19.214  0.00  0.00    +0.000 C 
ENDROOT
BRANCH   1   2
ATOM      2  C   UNL     1       2.921   4.980  17.980  0.00  0.00    +0.000 C 
ATOM      3  C   UNL     1       4.312   4.787  17.298  0.00  0.00    +0.000 C 
ATOM      4  C   UNL     1       4.633   3.288  17.355  0.00  0.00    +0.000 C 
ATOM      5  C   UNL     1       3.376   2.631  17.839  0.00  0.00    +0.000 C 
ATOM      6  O   UNL     1       3.195   1.424  17.872  0.00  0.00    +0.000 OA
ATOM      7  N   UNL     1       2.492   3.601  18.269  0.00  0.00    +0.000 N 
ATOM      8  C   UNL     1       1.158   3.280  18.742  0.00  0.00    +0.000 C 
BRANCH   3   9
ATOM      9  C   UNL     1       5.505   5.635  17.692  0.00  0.00    +0.000 A 
ATOM     10  C   UNL     1       5.755   6.880  17.105  0.00  0.00    +0.000 A 
ATOM     11  C   UNL     1       6.949   7.557  17.352  0.00  0.00    +0.000 A 
ATOM     12  C   UNL     1       7.885   7.026  18.232  0.00  0.00    +0.000 A 
ATOM     13  C   UNL     1       7.596   5.850  18.915  0.00  0.00    +0.000 A 
ATOM     14  C   UNL     1       6.412   5.155  18.646  0.00  0.00    +0.000 A 
ENDBRANCH   3   9
ENDBRANCH   1   2
BRANCH   1  18
ATOM     15  C   UNL     1       1.115   9.518  19.028  0.00  0.00    +0.000 A 
ATOM     16  C   UNL     1       1.912   9.378  17.905  0.00  0.00    +0.000 A 
ATOM     17  C   UNL     1       2.607   8.132  17.883  0.00  0.00    +0.000 A 
ATOM     18  C   UNL     1       2.315   7.341  18.980  0.00  0.00    +0.000 A 
ATOM     19  S   UNL     1       1.514   8.285  20.165  0.00  0.00    +0.000 S 
BRANCH  15  24
ATOM     20  C   UNL     1      -2.113  11.517  18.863  0.00  0.00    +0.000 A 
ATOM     21  C   UNL     1      -1.985  12.326  19.993  0.00  0.00    +0.000 A 
ATOM     22  C   UNL     1      -0.847  12.252  20.785  0.00  0.00    +0.000 A 
ATOM     23  C   UNL     1       0.176  11.373  20.436  0.00  0.00    +0.000 A 
ATOM     24  C   UNL     1       0.070  10.521  19.322  0.00  0.00    +0.000 A 
ATOM     25  C   UNL     1      -1.101  10.601  18.547  0.00  0.00    +0.000 A 
BRANCH  20  27
ATOM     26  C   UNL     1      -3.365  11.140  16.869  0.00  0.00    +0.000 C 
ATOM     27  O   UNL     1      -3.267  11.727  18.159  0.00  0.00    +0.000 OA
ENDBRANCH  20  27
ENDBRANCH  15  24
ENDBRANCH   1  18
BRANCH   1  28
ATOM     28  O   UNL     1       3.872   5.906  20.053  0.00  0.00    +0.000 OA
ATOM     29  H   UNL     1       4.255   5.013  19.990  0.00  0.00    +0.000 HD
ENDBRANCH   1  28
TORSDOF 6
ENDMDL
MODEL 2
REMARK VINA RESULT:      -8.7      1.027      1.725
REMARK  Name = 
REMARK  8 active torsions:
REMARK  status: ('A' for Active; 'I' for Inactive)
REMARK    1  A    between atoms: C_1  and  O_2
REMARK    2  A    between atoms: O_2  and  C_3
REMARK    3  A    between atoms: C_7  and  C_8
REMARK    4  A    between atoms: C_11  and  C_12
REMARK    5  A    between atoms: C_12  and  O_13
REMARK    6  A    between atoms: C_12  and  C_14
REMARK    7  A    between atoms: C_15  and  C_16
REMARK    8  A    between atoms: N_25  and  C_26
REMARK                            x       y       z     vdW  Elec       q    Type
REMARK                         _______ _______ _______ _____ _____    ______ ____
ROOT
ATOM      1  C   UNL     1       2.698   5.895  19.209  0.00  0.00    +0.000 C 
ENDROOT
BRANCH   1   2
ATOM      2  C   UNL     1       2.914   4.975  17.973  0.00  0.00    +0.000 C 
ATOM      3  C   UNL     1       4.305   4.787  17.290  0.00  0.00    +0.000 C 
ATOM      4  C   UNL     1       4.630   3.288  17.344  0.00  0.00    +0.000 C 
ATOM      5  C   UNL     1       3.375   2.627  17.826  0.00  0.00    +0.000 C 
ATOM      6  O   UNL     1       3.196   1.420  17.856  0.00  0.00    +0.000 OA
ATOM      7  N   UNL     1       2.488   3.594  18.258  0.00  0.00    +0.000 N 
ATOM      8  C   UNL     1       1.155   3.268  18.730  0.00  0.00    +0.000 C 
BRANCH   3   9
ATOM      9  C   UNL     1       5.496   5.636  17.686  0.00  0.00    +0.000 A 
ATOM     10  C   UNL     1       5.740   6.886  17.106  0.00  0.00    +0.000 A 
ATOM     11  C   UNL     1       6.933   7.566  17.353  0.00  0.00    +0.000 A 
ATOM     12  C   UNL     1       7.873   7.033  18.229  0.00  0.00    +0.000 A 
ATOM     13  C   UNL     1       7.589   5.852  18.905  0.00  0.00    +0.000 A 
ATOM     14  C   UNL     1       6.406   5.155  18.635  0.00  0.00    +0.000 A 
ENDBRANCH   3   9
ENDBRANCH   1   2
BRANCH   1  18
ATOM     15  C   UNL     1       1.123   9.517  19.030  0.00  0.00    +0.000 A 
ATOM     16  C   UNL     1       1.922   9.376  17.908  0.00  0.00    +0.000 A 
ATOM     17  C   UNL     1       2.611   8.127  17.883  0.00  0.00    +0.000 A 
ATOM     18  C   UNL     1       2.313   7.334  18.978  0.00  0.00    +0.000 A 
ATOM     19  S   UNL     1       1.515   8.279  20.165  0.00  0.00    +0.000 S 
BRANCH  15  24
ATOM     20  C   UNL     1      -1.204  11.848  20.927  0.00  0.00    +0.000 A 
ATOM     21  C   UNL     1      -1.780  12.563  19.877  0.00  0.00    +0.000 A 
ATOM     22  C   UNL     1      -1.447  12.272  18.561  0.00  0.00    +0.000 A 
ATOM     23  C   UNL     1      -0.540  11.248  18.293  0.00  0.00    +0.000 A 
ATOM     24  C   UNL     1       0.083  10.525  19.326  0.00  0.00    +0.000 A 
ATOM     25  C   UNL     1      -0.257  10.852  20.651  0.00  0.00    +0.000 A 
BRANCH  20  27
ATOM     26  C   UNL     1      -1.561  11.260  23.210  0.00  0.00    +0.000 C 
ATOM     27  O   UNL     1      -1.657  12.216  22.164  0.00  0.00    +0.000 OA
ENDBRANCH  20  27
ENDBRANCH  15  24
ENDBRANCH   1  18
BRANCH   1  28
ATOM     28  O   UNL     1       3.858   5.889  20.054  0.00  0.00    +0.000 OA
ATOM     29  H   UNL     1       4.492   6.508  19.650  0.00  0.00    +0.000 HD
ENDBRANCH   1  28
TORSDOF 6
ENDMDL
MODEL 3
REMARK VINA RESULT:      -8.7      0.434      1.004
REMARK  Name = 
REMARK  8 active torsions:
REMARK  status: ('A' for Active; 'I' for Inactive)
REMARK    1  A    between atoms: C_1  and  O_2
REMARK    2  A    between atoms: O_2  and  C_3
REMARK    3  A    between atoms: C_7  and  C_8
REMARK    4  A    between atoms: C_11  and  C_12
REMARK    5  A    between atoms: C_12  and  O_13
REMARK    6  A    between atoms: C_12  and  C_14
REMARK    7  A    between atoms: C_15  and  C_16
REMARK    8  A    between atoms: N_25  and  C_26
REMARK                            x       y       z     vdW  Elec       q    Type
REMARK                         _______ _______ _______ _____ _____    ______ ____
ROOT
ATOM      1  C   UNL     1       2.820   5.891  19.305  0.00  0.00    +0.000 C 
ENDROOT
BRANCH   1   2
ATOM      2  C   UNL     1       2.832   4.846  18.153  0.00  0.00    +0.000 C 
ATOM      3  C   UNL     1       4.118   4.498  17.339  0.00  0.00    +0.000 C 
ATOM      4  C   UNL     1       4.359   2.992  17.507  0.00  0.00    +0.000 C 
ATOM      5  C   UNL     1       3.135   2.468  18.194  0.00  0.00    +0.000 C 
ATOM      6  O   UNL     1       2.892   1.284  18.368  0.00  0.00    +0.000 OA
ATOM      7  N   UNL     1       2.365   3.531  18.624  0.00  0.00    +0.000 N 
ATOM      8  C   UNL     1       1.082   3.344  19.276  0.00  0.00    +0.000 C 
BRANCH   3   9
ATOM      9  C   UNL     1       5.395   5.296  17.507  0.00  0.00    +0.000 A 
ATOM     10  C   UNL     1       6.450   4.847  18.309  0.00  0.00    +0.000 A 
ATOM     11  C   UNL     1       7.535   5.677  18.590  0.00  0.00    +0.000 A 
ATOM     12  C   UNL     1       7.609   6.946  18.027  0.00  0.00    +0.000 A 
ATOM     13  C   UNL     1       6.628   7.359  17.132  0.00  0.00    +0.000 A 
ATOM     14  C   UNL     1       5.524   6.539  16.873  0.00  0.00    +0.000 A 
ENDBRANCH   3   9
ENDBRANCH   1   2
BRANCH   1  18
ATOM     15  C   UNL     1       1.121   9.433  18.863  0.00  0.00    +0.000 A 
ATOM     16  C   UNL     1       2.024   9.295  17.823  0.00  0.00    +0.000 A 
ATOM     17  C   UNL     1       2.763   8.077  17.903  0.00  0.00    +0.000 A 
ATOM     18  C   UNL     1       2.399   7.305  18.993  0.00  0.00    +0.000 A 
ATOM     19  S   UNL     1       1.458   8.248  20.070  0.00  0.00    +0.000 S 
BRANCH  15  24
ATOM     20  C   UNL     1      -2.114  11.347  18.298  0.00  0.00    +0.000 A 
ATOM     21  C   UNL     1      -2.161  12.139  19.446  0.00  0.00    +0.000 A 
ATOM     22  C   UNL     1      -1.136  12.082  20.381  0.00  0.00    +0.000 A 
ATOM     23  C   UNL     1      -0.050  11.237  20.159  0.00  0.00    +0.000 A 
ATOM     24  C   UNL     1       0.017  10.403  19.030  0.00  0.00    +0.000 A 
ATOM     25  C   UNL     1      -1.043  10.465  18.106  0.00  0.00    +0.000 A 
BRANCH  20  27
ATOM     26  C   UNL     1      -3.064  10.999  16.139  0.00  0.00    +0.000 C 
ATOM     27  O   UNL     1      -3.170  11.538  17.449  0.00  0.00    +0.000 OA
ENDBRANCH  20  27
ENDBRANCH  15  24
ENDBRANCH   1  18
BRANCH   1  28
ATOM     28  O   UNL     1       4.103   5.955  19.944  0.00  0.00    +0.000 OA
ATOM     29  H   UNL     1       4.757   6.073  19.232  0.00  0.00    +0.000 HD
ENDBRANCH   1  28
TORSDOF 6
ENDMDL
MODEL 4
REMARK VINA RESULT:      -8.4      1.281      1.695
REMARK  Name = 
REMARK  8 active torsions:
REMARK  status: ('A' for Active; 'I' for Inactive)
REMARK    1  A    between atoms: C_1  and  O_2
REMARK    2  A    between atoms: O_2  and  C_3
REMARK    3  A    between atoms: C_7  and  C_8
REMARK    4  A    between atoms: C_11  and  C_12
REMARK    5  A    between atoms: C_12  and  O_13
REMARK    6  A    between atoms: C_12  and  C_14
REMARK    7  A    between atoms: C_15  and  C_16
REMARK    8  A    between atoms: N_25  and  C_26
REMARK                            x       y       z     vdW  Elec       q    Type
REMARK                         _______ _______ _______ _____ _____    ______ ____
ROOT
ATOM      1  C   UNL     1       2.612   5.932  19.169  0.00  0.00    +0.000 C 
ENDROOT
BRANCH   1   2
ATOM      2  C   UNL     1       2.844   4.962  17.975  0.00  0.00    +0.000 C 
ATOM      3  C   UNL     1       4.247   4.734  17.330  0.00  0.00    +0.000 C 
ATOM      4  C   UNL     1       4.555   3.236  17.449  0.00  0.00    +0.000 C 
ATOM      5  C   UNL     1       3.284   2.606  17.931  0.00  0.00    +0.000 C 
ATOM      6  O   UNL     1       3.092   1.402  18.006  0.00  0.00    +0.000 OA
ATOM      7  N   UNL     1       2.398   3.598  18.307  0.00  0.00    +0.000 N 
ATOM      8  C   UNL     1       1.053   3.303  18.764  0.00  0.00    +0.000 C 
BRANCH   3   9
ATOM      9  C   UNL     1       5.438   5.587  17.715  0.00  0.00    +0.000 A 
ATOM     10  C   UNL     1       5.718   6.800  17.077  0.00  0.00    +0.000 A 
ATOM     11  C   UNL     1       6.913   7.476  17.324  0.00  0.00    +0.000 A 
ATOM     12  C   UNL     1       7.818   6.979  18.256  0.00  0.00    +0.000 A 
ATOM     13  C   UNL     1       7.496   5.840  18.985  0.00  0.00    +0.000 A 
ATOM     14  C   UNL     1       6.312   5.145  18.717  0.00  0.00    +0.000 A 
ENDBRANCH   3   9
ENDBRANCH   1   2
BRANCH   1  18
ATOM     15  C   UNL     1       1.357   9.666  18.823  0.00  0.00    +0.000 A 
ATOM     16  C   UNL     1       2.150   9.410  17.717  0.00  0.00    +0.000 A 
ATOM     17  C   UNL     1       2.729   8.106  17.752  0.00  0.00    +0.000 A 
ATOM     18  C   UNL     1       2.355   7.389  18.875  0.00  0.00    +0.000 A 
ATOM     19  S   UNL     1       1.632   8.448  20.012  0.00  0.00    +0.000 S 
BRANCH  15  24
ATOM     20  C   UNL     1      -0.162  13.146  18.983  0.00  0.00    +0.000 A 
ATOM     21  C   UNL     1      -1.469  12.850  19.373  0.00  0.00    +0.000 A 
ATOM     22  C   UNL     1      -1.849  11.537  19.618  0.00  0.00    +0.000 A 
ATOM     23  C   UNL     1      -0.911  10.514  19.485  0.00  0.00    +0.000 A 
ATOM     24  C   UNL     1       0.406  10.771  19.065  0.00  0.00    +0.000 A 
ATOM     25  C   UNL     1       0.761  12.107  18.805  0.00  0.00    +0.000 A 
BRANCH  20  27
ATOM     26  C   UNL     1       1.420  14.928  18.941  0.00  0.00    +0.000 C 
ATOM     27  O   UNL     1       0.078  14.482  18.817  0.00  0.00    +0.000 OA
ENDBRANCH  20  27
ENDBRANCH  15  24
ENDBRANCH   1  18
BRANCH   1  28
ATOM     28  O   UNL     1       3.706   5.867  20.095  0.00  0.00    +0.000 OA
ATOM     29  H   UNL     1       3.356   6.168  20.953  0.00  0.00    +0.000 HD
ENDBRANCH   1  28
TORSDOF 6
ENDMDL
MODEL 5
REMARK VINA RESULT:      -8.3      2.437      4.528
REMARK  Name = 
REMARK  8 active torsions:
REMARK  status: ('A' for Active; 'I' for Inactive)
REMARK    1  A    between atoms: C_1  and  O_2
REMARK    2  A    between atoms: O_2  and  C_3
REMARK    3  A    between atoms: C_7  and  C_8
REMARK    4  A    between atoms: C_11  and  C_12
REMARK    5  A    between atoms: C_12  and  O_13
REMARK    6  A    between atoms: C_12  and  C_14
REMARK    7  A    between atoms: C_15  and  C_16
REMARK    8  A    between atoms: N_25  and  C_26
REMARK                            x       y       z     vdW  Elec       q    Type
REMARK                         _______ _______ _______ _____ _____    ______ ____
ROOT
ATOM      1  C   UNL     1       5.406   4.747  19.304  0.00  0.00    +0.000 C 
ENDROOT
BRANCH   1   2
ATOM      2  C   UNL     1       5.736   4.268  17.861  0.00  0.00    +0.000 C 
ATOM      3  C   UNL     1       4.697   3.539  16.951  0.00  0.00    +0.000 C 
ATOM      4  C   UNL     1       4.549   4.383  15.679  0.00  0.00    +0.000 C 
ATOM      5  C   UNL     1       5.627   5.420  15.762  0.00  0.00    +0.000 C 
ATOM      6  O   UNL     1       5.921   6.186  14.858  0.00  0.00    +0.000 OA
ATOM      7  N   UNL     1       6.193   5.389  17.022  0.00  0.00    +0.000 N 
ATOM      8  C   UNL     1       7.309   6.239  17.391  0.00  0.00    +0.000 C 
BRANCH   3   9
ATOM      9  C   UNL     1       3.354   3.094  17.493  0.00  0.00    +0.000 A 
ATOM     10  C   UNL     1       2.178   3.805  17.234  0.00  0.00    +0.000 A 
ATOM     11  C   UNL     1       0.989   3.479  17.887  0.00  0.00    +0.000 A 
ATOM     12  C   UNL     1       0.946   2.401  18.764  0.00  0.00    +0.000 A 
ATOM     13  C   UNL     1       2.078   1.612  18.938  0.00  0.00    +0.000 A 
ATOM     14  C   UNL     1       3.278   1.956  18.306  0.00  0.00    +0.000 A 
ENDBRANCH   3   9
ENDBRANCH   1   2
BRANCH   1  18
ATOM     15  C   UNL     1       2.272   7.108  19.793  0.00  0.00    +0.000 A 
ATOM     16  C   UNL     1       2.030   5.968  20.540  0.00  0.00    +0.000 A 
ATOM     17  C   UNL     1       3.062   4.993  20.396  0.00  0.00    +0.000 A 
ATOM     18  C   UNL     1       4.077   5.414  19.555  0.00  0.00    +0.000 A 
ATOM     19  S   UNL     1       3.561   6.800  18.689  0.00  0.00    +0.000 S 
BRANCH  15  24
ATOM     20  C   UNL     1       0.605  10.265  21.098  0.00  0.00    +0.000 A 
ATOM     21  C   UNL     1       0.469  11.002  19.920  0.00  0.00    +0.000 A 
ATOM     22  C   UNL     1       0.880  10.469  18.706  0.00  0.00    +0.000 A 
ATOM     23  C   UNL     1       1.419   9.184  18.667  0.00  0.00    +0.000 A 
ATOM     24  C   UNL     1       1.600   8.424  19.836  0.00  0.00    +0.000 A 
ATOM     25  C   UNL     1       1.192   8.993  21.056  0.00  0.00    +0.000 A 
BRANCH  20  27
ATOM     26  C   UNL     1      -0.677  10.138  23.104  0.00  0.00    +0.000 C 
ATOM     27  O   UNL     1       0.120  10.899  22.208  0.00  0.00    +0.000 OA
ENDBRANCH  20  27
ENDBRANCH  15  24
ENDBRANCH   1  18
BRANCH   1  28
ATOM     28  O   UNL     1       6.429   5.626  19.793  0.00  0.00    +0.000 OA
ATOM     29  H   UNL     1       7.136   5.055  20.142  0.00  0.00    +0.000 HD
ENDBRANCH   1  28
TORSDOF 6
ENDMDL
MODEL 6
REMARK VINA RESULT:      -8.3      1.236      2.029
REMARK  Name = 
REMARK  8 active torsions:
REMARK  status: ('A' for Active; 'I' for Inactive)
REMARK    1  A    between atoms: C_1  and  O_2
REMARK    2  A    between atoms: O_2  and  C_3
REMARK    3  A    between atoms: C_7  and  C_8
REMARK    4  A    between atoms: C_11  and  C_12
REMARK    5  A    between atoms: C_12  and  O_13
REMARK    6  A    between atoms: C_12  and  C_14
REMARK    7  A    between atoms: C_15  and  C_16
REMARK    8  A    between atoms: N_25  and  C_26
REMARK                            x       y       z     vdW  Elec       q    Type
REMARK                         _______ _______ _______ _____ _____    ______ ____
ROOT
ATOM      1  C   UNL     1       2.763   5.767  19.419  0.00  0.00    +0.000 C 
ENDROOT
BRANCH   1   2
ATOM      2  C   UNL     1       2.752   4.780  18.216  0.00  0.00    +0.000 C 
ATOM      3  C   UNL     1       4.018   4.483  17.353  0.00  0.00    +0.000 C 
ATOM      4  C   UNL     1       4.274   2.973  17.440  0.00  0.00    +0.000 C 
ATOM      5  C   UNL     1       3.071   2.406  18.132  0.00  0.00    +0.000 C 
ATOM      6  O   UNL     1       2.840   1.213  18.252  0.00  0.00    +0.000 OA
ATOM      7  N   UNL     1       2.305   3.440  18.634  0.00  0.00    +0.000 N 
ATOM      8  C   UNL     1       1.041   3.211  19.308  0.00  0.00    +0.000 C 
BRANCH   3   9
ATOM      9  C   UNL     1       5.294   5.281  17.527  0.00  0.00    +0.000 A 
ATOM     10  C   UNL     1       6.333   4.847  18.358  0.00  0.00    +0.000 A 
ATOM     11  C   UNL     1       7.415   5.680  18.641  0.00  0.00    +0.000 A 
ATOM     12  C   UNL     1       7.502   6.937  18.053  0.00  0.00    +0.000 A 
ATOM     13  C   UNL     1       6.539   7.333  17.132  0.00  0.00    +0.000 A 
ATOM     14  C   UNL     1       5.438   6.510  16.870  0.00  0.00    +0.000 A 
ENDBRANCH   3   9
ENDBRANCH   1   2
BRANCH   1  18
ATOM     15  C   UNL     1       1.039   9.325  19.362  0.00  0.00    +0.000 A 
ATOM     16  C   UNL     1       1.633   9.152  18.123  0.00  0.00    +0.000 A 
ATOM     17  C   UNL     1       2.356   7.925  18.032  0.00  0.00    +0.000 A 
ATOM     18  C   UNL     1       2.287   7.180  19.197  0.00  0.00    +0.000 A 
ATOM     19  S   UNL     1       1.673   8.159  20.463  0.00  0.00    +0.000 S 
BRANCH  15  24
ATOM     20  C   UNL     1      -1.106  11.566  21.557  0.00  0.00    +0.000 A 
ATOM     21  C   UNL     1      -1.782  12.316  20.594  0.00  0.00    +0.000 A 
ATOM     22  C   UNL     1      -1.574  12.076  19.242  0.00  0.00    +0.000 A 
ATOM     23  C   UNL     1      -0.693  11.069  18.851  0.00  0.00    +0.000 A 
ATOM     24  C   UNL     1       0.028  10.313  19.792  0.00  0.00    +0.000 A 
ATOM     25  C   UNL     1      -0.186  10.588  21.155  0.00  0.00    +0.000 A 
BRANCH  20  27
ATOM     26  C   UNL     1      -2.767  12.336  23.084  0.00  0.00    +0.000 C 
ATOM     27  O   UNL     1      -1.442  11.885  22.844  0.00  0.00    +0.000 OA
ENDBRANCH  20  27
ENDBRANCH  15  24
ENDBRANCH   1  18
BRANCH   1  28
ATOM     28  O   UNL     1       4.072   5.840  20.002  0.00  0.00    +0.000 OA
ATOM     29  H   UNL     1       4.163   5.054  20.569  0.00  0.00    +0.000 HD
ENDBRANCH   1  28
TORSDOF 6
ENDMDL
MODEL 7
REMARK VINA RESULT:      -8.3      1.064      1.884
REMARK  Name = 
REMARK  8 active torsions:
REMARK  status: ('A' for Active; 'I' for Inactive)
REMARK    1  A    between atoms: C_1  and  O_2
REMARK    2  A    between atoms: O_2  and  C_3
REMARK    3  A    between atoms: C_7  and  C_8
REMARK    4  A    between atoms: C_11  and  C_12
REMARK    5  A    between atoms: C_12  and  O_13
REMARK    6  A    between atoms: C_12  and  C_14
REMARK    7  A    between atoms: C_15  and  C_16
REMARK    8  A    between atoms: N_25  and  C_26
REMARK                            x       y       z     vdW  Elec       q    Type
REMARK                         _______ _______ _______ _____ _____    ______ ____
ROOT
ATOM      1  C   UNL     1       2.796   5.873  19.320  0.00  0.00    +0.000 C 
ENDROOT
BRANCH   1   2
ATOM      2  C   UNL     1       2.782   4.832  18.164  0.00  0.00    +0.000 C 
ATOM      3  C   UNL     1       4.052   4.475  17.329  0.00  0.00    +0.000 C 
ATOM      4  C   UNL     1       4.282   2.967  17.489  0.00  0.00    +0.000 C 
ATOM      5  C   UNL     1       3.064   2.451  18.193  0.00  0.00    +0.000 C 
ATOM      6  O   UNL     1       2.813   1.269  18.366  0.00  0.00    +0.000 OA
ATOM      7  N   UNL     1       2.310   3.519  18.638  0.00  0.00    +0.000 N 
ATOM      8  C   UNL     1       1.035   3.342  19.309  0.00  0.00    +0.000 C 
BRANCH   3   9
ATOM      9  C   UNL     1       5.338   5.261  17.481  0.00  0.00    +0.000 A 
ATOM     10  C   UNL     1       6.415   4.783  18.236  0.00  0.00    +0.000 A 
ATOM     11  C   UNL     1       7.514   5.599  18.507  0.00  0.00    +0.000 A 
ATOM     12  C   UNL     1       7.577   6.884  17.979  0.00  0.00    +0.000 A 
ATOM     13  C   UNL     1       6.572   7.328  17.128  0.00  0.00    +0.000 A 
ATOM     14  C   UNL     1       5.456   6.521  16.879  0.00  0.00    +0.000 A 
ENDBRANCH   3   9
ENDBRANCH   1   2
BRANCH   1  18
ATOM     15  C   UNL     1       1.204   9.472  18.940  0.00  0.00    +0.000 A 
ATOM     16  C   UNL     1       2.017   9.280  17.837  0.00  0.00    +0.000 A 
ATOM     17  C   UNL     1       2.714   8.035  17.883  0.00  0.00    +0.000 A 
ATOM     18  C   UNL     1       2.406   7.297  19.013  0.00  0.00    +0.000 A 
ATOM     19  S   UNL     1       1.588   8.295  20.140  0.00  0.00    +0.000 S 
BRANCH  15  24
ATOM     20  C   UNL     1      -0.546  12.668  20.024  0.00  0.00    +0.000 A 
ATOM     21  C   UNL     1      -1.810  12.483  19.463  0.00  0.00    +0.000 A 
ATOM     22  C   UNL     1      -2.109  11.318  18.770  0.00  0.00    +0.000 A 
ATOM     23  C   UNL     1      -1.140  10.324  18.647  0.00  0.00    +0.000 A 
ATOM     24  C   UNL     1       0.154  10.487  19.172  0.00  0.00    +0.000 A 
ATOM     25  C   UNL     1       0.438  11.684  19.854  0.00  0.00    +0.000 A 
BRANCH  20  27
ATOM     26  C   UNL     1      -1.245  14.926  20.330  0.00  0.00    +0.000 C 
ATOM     27  O   UNL     1      -0.409  13.842  20.711  0.00  0.00    +0.000 OA
ENDBRANCH  20  27
ENDBRANCH  15  24
ENDBRANCH   1  18
BRANCH   1  28
ATOM     28  O   UNL     1       4.082   5.906  19.955  0.00  0.00    +0.000 OA
ATOM     29  H   UNL     1       4.159   6.784  20.369  0.00  0.00    +0.000 HD
ENDBRANCH   1  28
TORSDOF 6
ENDMDL
MODEL 8
REMARK VINA RESULT:      -8.2      1.974      2.540
REMARK  Name = 
REMARK  8 active torsions:
REMARK  status: ('A' for Active; 'I' for Inactive)
REMARK    1  A    between atoms: C_1  and  O_2
REMARK    2  A    between atoms: O_2  and  C_3
REMARK    3  A    between atoms: C_7  and  C_8
REMARK    4  A    between atoms: C_11  and  C_12
REMARK    5  A    between atoms: C_12  and  O_13
REMARK    6  A    between atoms: C_12  and  C_14
REMARK    7  A    between atoms: C_15  and  C_16
REMARK    8  A    between atoms: N_25  and  C_26
REMARK                            x       y       z     vdW  Elec       q    Type
REMARK                         _______ _______ _______ _____ _____    ______ ____
ROOT
ATOM      1  C   UNL     1       2.317   4.382  17.606  0.00  0.00    +0.000 C 
ENDROOT
BRANCH   1   2
ATOM      2  C   UNL     1       2.977   3.204  18.379  0.00  0.00    +0.000 C 
ATOM      3  C   UNL     1       4.487   3.191  18.774  0.00  0.00    +0.000 C 
ATOM      4  C   UNL     1       4.548   3.053  20.300  0.00  0.00    +0.000 C 
ATOM      5  C   UNL     1       3.142   2.767  20.730  0.00  0.00    +0.000 C 
ATOM      6  O   UNL     1       2.815   2.449  21.863  0.00  0.00    +0.000 OA
ATOM      7  N   UNL     1       2.291   2.959  19.659  0.00  0.00    +0.000 N 
ATOM      8  C   UNL     1       0.865   2.703  19.746  0.00  0.00    +0.000 C 
BRANCH   3   9
ATOM      9  C   UNL     1       5.442   4.251  18.264  0.00  0.00    +0.000 A 
ATOM     10  C   UNL     1       5.797   4.342  16.913  0.00  0.00    +0.000 A 
ATOM     11  C   UNL     1       6.810   5.207  16.499  0.00  0.00    +0.000 A 
ATOM     12  C   UNL     1       7.443   6.034  17.420  0.00  0.00    +0.000 A 
ATOM     13  C   UNL     1       7.017   6.041  18.743  0.00  0.00    +0.000 A 
ATOM     14  C   UNL     1       6.021   5.153  19.166  0.00  0.00    +0.000 A 
ENDBRANCH   3   9
ENDBRANCH   1   2
BRANCH   1  18
ATOM     15  C   UNL     1       1.939   7.824  19.514  0.00  0.00    +0.000 A 
ATOM     16  C   UNL     1       2.686   8.081  18.378  0.00  0.00    +0.000 A 
ATOM     17  C   UNL     1       2.957   6.900  17.625  0.00  0.00    +0.000 A 
ATOM     18  C   UNL     1       2.400   5.768  18.195  0.00  0.00    +0.000 A 
ATOM     19  S   UNL     1       1.900   6.123  19.795  0.00  0.00    +0.000 S 
BRANCH  15  24
ATOM     20  C   UNL     1      -0.152  10.733  20.785  0.00  0.00    +0.000 A 
ATOM     21  C   UNL     1      -0.189  10.458  22.152  0.00  0.00    +0.000 A 
ATOM     22  C   UNL     1       0.487   9.361  22.668  0.00  0.00    +0.000 A 
ATOM     23  C   UNL     1       1.216   8.539  21.811  0.00  0.00    +0.000 A 
ATOM     24  C   UNL     1       1.252   8.766  20.424  0.00  0.00    +0.000 A 
ATOM     25  C   UNL     1       0.544   9.874  19.923  0.00  0.00    +0.000 A 
BRANCH  20  27
ATOM     26  C   UNL     1      -1.179  12.019  19.060  0.00  0.00    +0.000 C 
ATOM     27  O   UNL     1      -0.829  11.867  20.428  0.00  0.00    +0.000 OA
ENDBRANCH  20  27
ENDBRANCH  15  24
ENDBRANCH   1  18
BRANCH   1  28
ATOM     28  O   UNL     1       0.932   4.107  17.349  0.00  0.00    +0.000 OA
ATOM     29  H   UNL     1       0.531   3.894  18.210  0.00  0.00    +0.000 HD
ENDBRANCH   1  28
TORSDOF 6
ENDMDL
MODEL 9
REMARK VINA RESULT:      -8.1      3.364      7.938
REMARK  Name = 
REMARK  8 active torsions:
REMARK  status: ('A' for Active; 'I' for Inactive)
REMARK    1  A    between atoms: C_1  and  O_2
REMARK    2  A    between atoms: O_2  and  C_3
REMARK    3  A    between atoms: C_7  and  C_8
REMARK    4  A    between atoms: C_11  and  C_12
REMARK    5  A    between atoms: C_12  and  O_13
REMARK    6  A    between atoms: C_12  and  C_14
REMARK    7  A    between atoms: C_15  and  C_16
REMARK    8  A    between atoms: N_25  and  C_26
REMARK                            x       y       z     vdW  Elec       q    Type
REMARK                         _______ _______ _______ _____ _____    ______ ____
ROOT
ATOM      1  C   UNL     1       4.922   5.367  19.410  0.00  0.00    +0.000 C 
ENDROOT
BRANCH   1   2
ATOM      2  C   UNL     1       3.664   4.676  20.012  0.00  0.00    +0.000 C 
ATOM      3  C   UNL     1       2.250   5.337  20.003  0.00  0.00    +0.000 C 
ATOM      4  C   UNL     1       1.315   4.381  19.250  0.00  0.00    +0.000 C 
ATOM      5  C   UNL     1       2.111   3.129  19.044  0.00  0.00    +0.000 C 
ATOM      6  O   UNL     1       1.654   2.083  18.609  0.00  0.00    +0.000 OA
ATOM      7  N   UNL     1       3.429   3.365  19.384  0.00  0.00    +0.000 N 
ATOM      8  C   UNL     1       4.437   2.322  19.347  0.00  0.00    +0.000 C 
BRANCH   3   9
ATOM      9  C   UNL     1       2.057   6.775  19.567  0.00  0.00    +0.000 A 
ATOM     10  C   UNL     1       1.776   7.796  20.482  0.00  0.00    +0.000 A 
ATOM     11  C   UNL     1       1.426   9.072  20.042  0.00  0.00    +0.000 A 
ATOM     12  C   UNL     1       1.409   9.362  18.681  0.00  0.00    +0.000 A 
ATOM     13  C   UNL     1       1.804   8.391  17.768  0.00  0.00    +0.000 A 
ATOM     14  C   UNL     1       2.126   7.103  18.207  0.00  0.00    +0.000 A 
ENDBRANCH   3   9
ENDBRANCH   1   2
BRANCH   1  18
ATOM     15  C   UNL     1       5.488   5.273  15.498  0.00  0.00    +0.000 A 
ATOM     16  C   UNL     1       5.227   6.591  15.829  0.00  0.00    +0.000 A 
ATOM     17  C   UNL     1       4.934   6.757  17.216  0.00  0.00    +0.000 A 
ATOM     18  C   UNL     1       4.991   5.565  17.917  0.00  0.00    +0.000 A 
ATOM     19  S   UNL     1       5.025   4.256  16.811  0.00  0.00    +0.000 S 
BRANCH  15  24
ATOM     20  C   UNL     1       5.883   3.224  12.321  0.00  0.00    +0.000 A 
ATOM     21  C   UNL     1       7.065   3.758  11.804  0.00  0.00    +0.000 A 
ATOM     22  C   UNL     1       7.750   4.749  12.494  0.00  0.00    +0.000 A 
ATOM     23  C   UNL     1       7.257   5.200  13.717  0.00  0.00    +0.000 A 
ATOM     24  C   UNL     1       6.055   4.708  14.255  0.00  0.00    +0.000 A 
ATOM     25  C   UNL     1       5.369   3.718  13.527  0.00  0.00    +0.000 A 
BRANCH  20  27
ATOM     26  C   UNL     1       6.211   1.198  11.109  0.00  0.00    +0.000 C 
ATOM     27  O   UNL     1       5.342   2.230  11.554  0.00  0.00    +0.000 OA
ENDBRANCH  20  27
ENDBRANCH  15  24
ENDBRANCH   1  18
BRANCH   1  28
ATOM     28  O   UNL     1       6.117   4.680  19.808  0.00  0.00    +0.000 OA
ATOM     29  H   UNL     1       5.830   3.936  20.368  0.00  0.00    +0.000 HD
ENDBRANCH   1  28
TORSDOF 6
ENDMDL
