MODEL 1
REMARK VINA RESULT:      -8.7      0.000      0.000
REMARK  Name = 
REMARK  3 active torsions:
REMARK  status: ('A' for Active; 'I' for Inactive)
REMARK    1  A    between atoms: C_10  and  C_11
REMARK    2  A    between atoms: C_16  and  N_17
REMARK    3  A    between atoms: C_20  and  N_22
REMARK                            x       y       z     vdW  Elec       q    Type
REMARK                         _______ _______ _______ _____ _____    ______ ____
ROOT
ATOM      1  O   UNL     1       2.814   4.931  21.018  0.00  0.00    +0.000 OA
ATOM      2  C   UNL     1       2.958   5.504  19.942  0.00  0.00    +0.000 C 
ATOM      3  C   UNL     1       2.406   6.872  19.752  0.00  0.00    +0.000 A 
ATOM      4  C   UNL     1       1.577   7.430  20.732  0.00  0.00    +0.000 A 
ATOM      5  C   UNL     1       0.952   8.653  20.490  0.00  0.00    +0.000 A 
ATOM      6  C   UNL     1       1.163   9.318  19.280  0.00  0.00    +0.000 A 
ATOM      7  C   UNL     1       2.004   8.768  18.308  0.00  0.00    +0.000 A 
ATOM      8  C   UNL     1       2.631   7.544  18.543  0.00  0.00    +0.000 A 
ATOM      9  O   UNL     1       3.407   7.040  17.519  0.00  0.00    +0.000 OA
ATOM     10  C   UNL     1       4.316   6.008  17.973  0.00  0.00    +0.000 C 
ATOM     11  C   UNL     1       3.549   4.879  18.699  0.00  0.00    +0.000 C 
ATOM     12  I   UNL     1       1.782   4.040  17.676  0.00  0.00    +0.000 I 
ENDROOT
BRANCH  10  13
ATOM     13  C   UNL     1       5.232   5.571  16.816  0.00  0.00    +0.000 A 
ATOM     14  C   UNL     1       4.667   4.724  15.838  0.00  0.00    +0.000 A 
ATOM     15  C   UNL     1       5.446   4.056  14.890  0.00  0.00    +0.000 A 
ATOM     16  C   UNL     1       6.813   4.273  14.836  0.00  0.00    +0.000 A 
ATOM     17  C   UNL     1       7.396   5.189  15.706  0.00  0.00    +0.000 A 
ATOM     18  C   UNL     1       6.626   5.842  16.695  0.00  0.00    +0.000 A 
BRANCH  18  19
ATOM     19  N   UNL     1       7.379   6.813  17.537  0.00  0.00    +0.000 N 
ATOM     20  O   UNL     1       7.520   7.969  17.124  0.00  0.00    +0.000 OA
ATOM     21  O   UNL     1       7.864   6.401  18.597  0.00  0.00    +0.000 OA
ENDBRANCH  18  19
ENDBRANCH  10  13
BRANCH  11  22
ATOM     22  N   UNL     1       4.546   3.823  19.109  0.00  0.00    +0.000 N 
ATOM     23  O   UNL     1       4.186   2.639  19.027  0.00  0.00    +0.000 OA
ATOM     24  O   UNL     1       5.614   4.182  19.621  0.00  0.00    +0.000 OA
ENDBRANCH  11  22
TORSDOF 3
ENDMDL
MODEL 2
REMARK VINA RESULT:      -7.3      2.833      5.934
REMARK  Name = 
REMARK  3 active torsions:
REMARK  status: ('A' for Active; 'I' for Inactive)
REMARK    1  A    between atoms: C_10  and  C_11
REMARK    2  A    between atoms: C_16  and  N_17
REMARK    3  A    between atoms: C_20  and  N_22
REMARK                            x       y       z     vdW  Elec       q    Type
REMARK                         _______ _______ _______ _____ _____    ______ ____
ROOT
ATOM      1  O   UNL     1       7.567   5.802  17.535  0.00  0.00    +0.000 OA
ATOM      2  C   UNL     1       6.564   5.287  17.050  0.00  0.00    +0.000 C 
ATOM      3  C   UNL     1       6.581   4.822  15.637  0.00  0.00    +0.000 A 
ATOM      4  C   UNL     1       7.671   5.129  14.816  0.00  0.00    +0.000 A 
ATOM      5  C   UNL     1       7.623   4.812  13.459  0.00  0.00    +0.000 A 
ATOM      6  C   UNL     1       6.494   4.181  12.929  0.00  0.00    +0.000 A 
ATOM      7  C   UNL     1       5.412   3.860  13.754  0.00  0.00    +0.000 A 
ATOM      8  C   UNL     1       5.453   4.176  15.111  0.00  0.00    +0.000 A 
ATOM      9  O   UNL     1       4.328   3.873  15.851  0.00  0.00    +0.000 OA
ATOM     10  C   UNL     1       4.593   3.858  17.276  0.00  0.00    +0.000 C 
ATOM     11  C   UNL     1       5.219   5.195  17.733  0.00  0.00    +0.000 C 
ATOM     12  I   UNL     1       4.210   7.052  17.094  0.00  0.00    +0.000 I 
ENDROOT
BRANCH  10  13
ATOM     13  C   UNL     1       3.337   3.400  18.037  0.00  0.00    +0.000 A 
ATOM     14  C   UNL     1       2.117   4.020  17.690  0.00  0.00    +0.000 A 
ATOM     15  C   UNL     1       0.964   3.886  18.467  0.00  0.00    +0.000 A 
ATOM     16  C   UNL     1       0.969   3.061  19.580  0.00  0.00    +0.000 A 
ATOM     17  C   UNL     1       2.116   2.339  19.893  0.00  0.00    +0.000 A 
ATOM     18  C   UNL     1       3.301   2.495  19.138  0.00  0.00    +0.000 A 
BRANCH  18  19
ATOM     19  N   UNL     1       4.440   1.640  19.573  0.00  0.00    +0.000 N 
ATOM     20  O   UNL     1       4.692   0.616  18.928  0.00  0.00    +0.000 OA
ATOM     21  O   UNL     1       5.057   1.978  20.590  0.00  0.00    +0.000 OA
ENDBRANCH  18  19
ENDBRANCH  10  13
BRANCH  11  22
ATOM     22  N   UNL     1       5.432   5.127  19.225  0.00  0.00    +0.000 N 
ATOM     23  O   UNL     1       4.566   5.643  19.949  0.00  0.00    +0.000 OA
ATOM     24  O   UNL     1       6.505   4.680  19.652  0.00  0.00    +0.000 OA
ENDBRANCH  11  22
TORSDOF 3
ENDMDL
MODEL 3
REMARK VINA RESULT:      -6.3      7.537     10.674
REMARK  Name = 
REMARK  3 active torsions:
REMARK  status: ('A' for Active; 'I' for Inactive)
REMARK    1  A    between atoms: C_10  and  C_11
REMARK    2  A    between atoms: C_16  and  N_17
REMARK    3  A    between atoms: C_20  and  N_22
REMARK                            x       y       z     vdW  Elec       q    Type
REMARK                         _______ _______ _______ _____ _____    ______ ____
ROOT
ATOM      1  O   UNL     1       0.313  10.014  19.215  0.00  0.00    +0.000 OA
ATOM      2  C   UNL     1      -0.559  10.866  19.360  0.00  0.00    +0.000 C 
ATOM      3  C   UNL     1      -1.809  10.788  18.558  0.00  0.00    +0.000 A 
ATOM      4  C   UNL     1      -1.916   9.852  17.523  0.00  0.00    +0.000 A 
ATOM      5  C   UNL     1      -3.032   9.874  16.687  0.00  0.00    +0.000 A 
ATOM      6  C   UNL     1      -4.040  10.819  16.892  0.00  0.00    +0.000 A 
ATOM      7  C   UNL     1      -3.941  11.742  17.937  0.00  0.00    +0.000 A 
ATOM      8  C   UNL     1      -2.826  11.728  18.776  0.00  0.00    +0.000 A 
ATOM      9  O   UNL     1      -2.776  12.700  19.753  0.00  0.00    +0.000 OA
ATOM     10  C   UNL     1      -1.827  12.380  20.801  0.00  0.00    +0.000 C 
ATOM     11  C   UNL     1      -0.425  12.109  20.209  0.00  0.00    +0.000 C 
ATOM     12  I   UNL     1       0.375  13.597  18.788  0.00  0.00    +0.000 I 
ENDROOT
BRANCH  10  13
ATOM     13  C   UNL     1      -1.901  13.439  21.916  0.00  0.00    +0.000 A 
ATOM     14  C   UNL     1      -0.968  14.497  21.855  0.00  0.00    +0.000 A 
ATOM     15  C   UNL     1      -0.760  15.369  22.926  0.00  0.00    +0.000 A 
ATOM     16  C   UNL     1      -1.535  15.263  24.069  0.00  0.00    +0.000 A 
ATOM     17  C   UNL     1      -2.545  14.308  24.126  0.00  0.00    +0.000 A 
ATOM     18  C   UNL     1      -2.741  13.394  23.066  0.00  0.00    +0.000 A 
BRANCH  18  19
ATOM     19  N   UNL     1      -3.875  12.447  23.255  0.00  0.00    +0.000 N 
ATOM     20  O   UNL     1      -4.785  12.439  22.418  0.00  0.00    +0.000 OA
ATOM     21  O   UNL     1      -3.870  11.738  24.268  0.00  0.00    +0.000 OA
ENDBRANCH  18  19
ENDBRANCH  10  13
BRANCH  11  22
ATOM     22  N   UNL     1       0.519  11.822  21.351  0.00  0.00    +0.000 N 
ATOM     23  O   UNL     1       1.661  12.302  21.280  0.00  0.00    +0.000 OA
ATOM     24  O   UNL     1       0.160  11.029  22.232  0.00  0.00    +0.000 OA
ENDBRANCH  11  22
TORSDOF 3
ENDMDL
MODEL 4
REMARK VINA RESULT:      -6.3      7.242     10.207
REMARK  Name = 
REMARK  3 active torsions:
REMARK  status: ('A' for Active; 'I' for Inactive)
REMARK    1  A    between atoms: C_10  and  C_11
REMARK    2  A    between atoms: C_16  and  N_17
REMARK    3  A    between atoms: C_20  and  N_22
REMARK                            x       y       z     vdW  Elec       q    Type
REMARK                         _______ _______ _______ _____ _____    ______ ____
ROOT
ATOM      1  O   UNL     1       0.699   9.984  18.855  0.00  0.00    +0.000 OA
ATOM      2  C   UNL     1      -0.183  10.820  19.032  0.00  0.00    +0.000 C 
ATOM      3  C   UNL     1      -1.454  10.727  18.266  0.00  0.00    +0.000 A 
ATOM      4  C   UNL     1      -1.574   9.799  17.225  0.00  0.00    +0.000 A 
ATOM      5  C   UNL     1      -2.714   9.809  16.422  0.00  0.00    +0.000 A 
ATOM      6  C   UNL     1      -3.732  10.734  16.665  0.00  0.00    +0.000 A 
ATOM      7  C   UNL     1      -3.619  11.650  17.715  0.00  0.00    +0.000 A 
ATOM      8  C   UNL     1      -2.480  11.647  18.521  0.00  0.00    +0.000 A 
ATOM      9  O   UNL     1      -2.418  12.612  19.505  0.00  0.00    +0.000 OA
ATOM     10  C   UNL     1      -1.434  12.299  20.522  0.00  0.00    +0.000 C 
ATOM     11  C   UNL     1      -0.045  12.057  19.889  0.00  0.00    +0.000 C 
ATOM     12  I   UNL     1       0.689  13.571  18.459  0.00  0.00    +0.000 I 
ENDROOT
BRANCH  10  13
ATOM     13  C   UNL     1      -1.494  13.346  21.649  0.00  0.00    +0.000 A 
ATOM     14  C   UNL     1      -1.016  14.640  21.345  0.00  0.00    +0.000 A 
ATOM     15  C   UNL     1      -0.778  15.597  22.334  0.00  0.00    +0.000 A 
ATOM     16  C   UNL     1      -1.084  15.322  23.656  0.00  0.00    +0.000 A 
ATOM     17  C   UNL     1      -1.666  14.102  23.985  0.00  0.00    +0.000 A 
ATOM     18  C   UNL     1      -1.876  13.109  23.001  0.00  0.00    +0.000 A 
BRANCH  18  19
ATOM     19  N   UNL     1      -2.531  11.866  23.494  0.00  0.00    +0.000 N 
ATOM     20  O   UNL     1      -3.691  11.933  23.914  0.00  0.00    +0.000 OA
ATOM     21  O   UNL     1      -1.862  10.825  23.496  0.00  0.00    +0.000 OA
ENDBRANCH  18  19
ENDBRANCH  10  13
BRANCH  11  22
ATOM     22  N   UNL     1       0.935  11.777  21.000  0.00  0.00    +0.000 N 
ATOM     23  O   UNL     1       0.697  10.808  21.739  0.00  0.00    +0.000 OA
ATOM     24  O   UNL     1       1.850  12.586  21.203  0.00  0.00    +0.000 OA
ENDBRANCH  11  22
TORSDOF 3
ENDMDL
MODEL 5
REMARK VINA RESULT:      -6.1      7.901     11.524
REMARK  Name = 
REMARK  3 active torsions:
REMARK  status: ('A' for Active; 'I' for Inactive)
REMARK    1  A    between atoms: C_10  and  C_11
REMARK    2  A    between atoms: C_16  and  N_17
REMARK    3  A    between atoms: C_20  and  N_22
REMARK                            x       y       z     vdW  Elec       q    Type
REMARK                         _______ _______ _______ _____ _____    ______ ____
ROOT
ATOM      1  O   UNL     1       0.426  11.017  20.401  0.00  0.00    +0.000 OA
ATOM      2  C   UNL     1      -0.606  11.646  20.181  0.00  0.00    +0.000 C 
ATOM      3  C   UNL     1      -1.538  11.188  19.116  0.00  0.00    +0.000 A 
ATOM      4  C   UNL     1      -1.157  10.153  18.256  0.00  0.00    +0.000 A 
ATOM      5  C   UNL     1      -1.975   9.820  17.175  0.00  0.00    +0.000 A 
ATOM      6  C   UNL     1      -3.170  10.511  16.965  0.00  0.00    +0.000 A 
ATOM      7  C   UNL     1      -3.557  11.535  17.835  0.00  0.00    +0.000 A 
ATOM      8  C   UNL     1      -2.744  11.874  18.916  0.00  0.00    +0.000 A 
ATOM      9  O   UNL     1      -3.167  12.926  19.702  0.00  0.00    +0.000 OA
ATOM     10  C   UNL     1      -2.506  12.953  20.991  0.00  0.00    +0.000 C 
ATOM     11  C   UNL     1      -0.970  12.966  20.821  0.00  0.00    +0.000 C 
ATOM     12  I   UNL     1      -0.122  14.447  19.421  0.00  0.00    +0.000 I 
ENDROOT
BRANCH  10  13
ATOM     13  C   UNL     1      -3.103  14.072  21.863  0.00  0.00    +0.000 A 
ATOM     14  C   UNL     1      -2.741  15.397  21.538  0.00  0.00    +0.000 A 
ATOM     15  C   UNL     1      -3.001  16.472  22.392  0.00  0.00    +0.000 A 
ATOM     16  C   UNL     1      -3.703  16.270  23.568  0.00  0.00    +0.000 A 
ATOM     17  C   UNL     1      -4.180  14.999  23.872  0.00  0.00    +0.000 A 
ATOM     18  C   UNL     1      -3.892  13.896  23.037  0.00  0.00    +0.000 A 
BRANCH  18  19
ATOM     19  N   UNL     1      -4.489  12.604  23.474  0.00  0.00    +0.000 N 
ATOM     20  O   UNL     1      -5.632  12.323  23.098  0.00  0.00    +0.000 OA
ATOM     21  O   UNL     1      -3.822  11.888  24.231  0.00  0.00    +0.000 OA
ENDBRANCH  18  19
ENDBRANCH  10  13
BRANCH  11  22
ATOM     22  N   UNL     1      -0.347  13.032  22.194  0.00  0.00    +0.000 N 
ATOM     23  O   UNL     1       0.499  13.918  22.393  0.00  0.00    +0.000 OA
ATOM     24  O   UNL     1      -0.608  12.137  23.008  0.00  0.00    +0.000 OA
ENDBRANCH  11  22
TORSDOF 3
ENDMDL
MODEL 6
REMARK VINA RESULT:      -6.1      2.236      6.108
REMARK  Name = 
REMARK  3 active torsions:
REMARK  status: ('A' for Active; 'I' for Inactive)
REMARK    1  A    between atoms: C_10  and  C_11
REMARK    2  A    between atoms: C_16  and  N_17
REMARK    3  A    between atoms: C_20  and  N_22
REMARK                            x       y       z     vdW  Elec       q    Type
REMARK                         _______ _______ _______ _____ _____    ______ ____
ROOT
ATOM      1  O   UNL     1       8.080   4.236  17.193  0.00  0.00    +0.000 OA
ATOM      2  C   UNL     1       6.918   4.494  16.894  0.00  0.00    +0.000 C 
ATOM      3  C   UNL     1       6.450   4.288  15.497  0.00  0.00    +0.000 A 
ATOM      4  C   UNL     1       7.371   3.970  14.494  0.00  0.00    +0.000 A 
ATOM      5  C   UNL     1       6.951   3.912  13.165  0.00  0.00    +0.000 A 
ATOM      6  C   UNL     1       5.614   4.161  12.845  0.00  0.00    +0.000 A 
ATOM      7  C   UNL     1       4.690   4.463  13.850  0.00  0.00    +0.000 A 
ATOM      8  C   UNL     1       5.105   4.524  15.180  0.00  0.00    +0.000 A 
ATOM      9  O   UNL     1       4.148   4.876  16.110  0.00  0.00    +0.000 OA
ATOM     10  C   UNL     1       4.540   4.533  17.462  0.00  0.00    +0.000 C 
ATOM     11  C   UNL     1       5.912   5.153  17.811  0.00  0.00    +0.000 C 
ATOM     12  I   UNL     1       6.186   7.302  17.385  0.00  0.00    +0.000 I 
ENDROOT
BRANCH  10  13
ATOM     13  C   UNL     1       3.389   4.840  18.436  0.00  0.00    +0.000 A 
ATOM     14  C   UNL     1       3.252   6.178  18.863  0.00  0.00    +0.000 A 
ATOM     15  C   UNL     1       2.424   6.540  19.928  0.00  0.00    +0.000 A 
ATOM     16  C   UNL     1       1.641   5.586  20.555  0.00  0.00    +0.000 A 
ATOM     17  C   UNL     1       1.657   4.274  20.091  0.00  0.00    +0.000 A 
ATOM     18  C   UNL     1       2.518   3.886  19.040  0.00  0.00    +0.000 A 
BRANCH  18  19
ATOM     19  N   UNL     1       2.408   2.458  18.632  0.00  0.00    +0.000 N 
ATOM     20  O   UNL     1       1.419   2.103  17.982  0.00  0.00    +0.000 OA
ATOM     21  O   UNL     1       3.298   1.684  19.002  0.00  0.00    +0.000 OA
ENDBRANCH  18  19
ENDBRANCH  10  13
BRANCH  11  22
ATOM     22  N   UNL     1       6.242   4.791  19.238  0.00  0.00    +0.000 N 
ATOM     23  O   UNL     1       7.007   5.548  19.855  0.00  0.00    +0.000 OA
ATOM     24  O   UNL     1       5.843   3.706  19.682  0.00  0.00    +0.000 OA
ENDBRANCH  11  22
TORSDOF 3
ENDMDL
MODEL 7
REMARK VINA RESULT:      -6.0      7.827     11.185
REMARK  Name = 
REMARK  3 active torsions:
REMARK  status: ('A' for Active; 'I' for Inactive)
REMARK    1  A    between atoms: C_10  and  C_11
REMARK    2  A    between atoms: C_16  and  N_17
REMARK    3  A    between atoms: C_20  and  N_22
REMARK                            x       y       z     vdW  Elec       q    Type
REMARK                         _______ _______ _______ _____ _____    ______ ____
ROOT
ATOM      1  O   UNL     1       0.048  10.341  19.757  0.00  0.00    +0.000 OA
ATOM      2  C   UNL     1      -0.875  11.139  19.618  0.00  0.00    +0.000 C 
ATOM      3  C   UNL     1      -1.922  10.885  18.593  0.00  0.00    +0.000 A 
ATOM      4  C   UNL     1      -1.763   9.839  17.677  0.00  0.00    +0.000 A 
ATOM      5  C   UNL     1      -2.677   9.690  16.635  0.00  0.00    +0.000 A 
ATOM      6  C   UNL     1      -3.750  10.577  16.516  0.00  0.00    +0.000 A 
ATOM      7  C   UNL     1      -3.918  11.612  17.440  0.00  0.00    +0.000 A 
ATOM      8  C   UNL     1      -3.006  11.767  18.484  0.00  0.00    +0.000 A 
ATOM      9  O   UNL     1      -3.210  12.840  19.327  0.00  0.00    +0.000 OA
ATOM     10  C   UNL     1      -2.489  12.703  20.577  0.00  0.00    +0.000 C 
ATOM     11  C   UNL     1      -0.983  12.472  20.321  0.00  0.00    +0.000 C 
ATOM     12  I   UNL     1       0.027  13.853  18.925  0.00  0.00    +0.000 I 
ENDROOT
BRANCH  10  13
ATOM     13  C   UNL     1      -2.848  13.867  21.519  0.00  0.00    +0.000 A 
ATOM     14  C   UNL     1      -2.342  15.141  21.181  0.00  0.00    +0.000 A 
ATOM     15  C   UNL     1      -2.376  16.216  22.072  0.00  0.00    +0.000 A 
ATOM     16  C   UNL     1      -2.988  16.077  23.306  0.00  0.00    +0.000 A 
ATOM     17  C   UNL     1      -3.601  14.872  23.635  0.00  0.00    +0.000 A 
ATOM     18  C   UNL     1      -3.542  13.765  22.759  0.00  0.00    +0.000 A 
BRANCH  18  19
ATOM     19  N   UNL     1      -4.265  12.551  23.231  0.00  0.00    +0.000 N 
ATOM     20  O   UNL     1      -3.755  11.869  24.127  0.00  0.00    +0.000 OA
ATOM     21  O   UNL     1      -5.329  12.262  22.672  0.00  0.00    +0.000 OA
ENDBRANCH  18  19
ENDBRANCH  10  13
BRANCH  11  22
ATOM     22  N   UNL     1      -0.289  12.377  21.657  0.00  0.00    +0.000 N 
ATOM     23  O   UNL     1      -0.753  11.579  22.486  0.00  0.00    +0.000 OA
ATOM     24  O   UNL     1       0.620  13.179  21.912  0.00  0.00    +0.000 OA
ENDBRANCH  11  22
TORSDOF 3
ENDMDL
MODEL 8
REMARK VINA RESULT:      -6.0      8.356      9.663
REMARK  Name = 
REMARK  3 active torsions:
REMARK  status: ('A' for Active; 'I' for Inactive)
REMARK    1  A    between atoms: C_10  and  C_11
REMARK    2  A    between atoms: C_16  and  N_17
REMARK    3  A    between atoms: C_20  and  N_22
REMARK                            x       y       z     vdW  Elec       q    Type
REMARK                         _______ _______ _______ _____ _____    ______ ____
ROOT
ATOM      1  O   UNL     1       6.018  15.118  21.364  0.00  0.00    +0.000 OA
ATOM      2  C   UNL     1       6.983  14.378  21.537  0.00  0.00    +0.000 C 
ATOM      3  C   UNL     1       6.955  13.371  22.632  0.00  0.00    +0.000 A 
ATOM      4  C   UNL     1       5.913  13.386  23.566  0.00  0.00    +0.000 A 
ATOM      5  C   UNL     1       5.963  12.532  24.667  0.00  0.00    +0.000 A 
ATOM      6  C   UNL     1       7.042  11.660  24.826  0.00  0.00    +0.000 A 
ATOM      7  C   UNL     1       8.075  11.634  23.884  0.00  0.00    +0.000 A 
ATOM      8  C   UNL     1       8.033  12.487  22.782  0.00  0.00    +0.000 A 
ATOM      9  O   UNL     1       9.111  12.440  21.922  0.00  0.00    +0.000 OA
ATOM     10  C   UNL     1       8.816  13.036  20.634  0.00  0.00    +0.000 C 
ATOM     11  C   UNL     1       8.300  14.483  20.803  0.00  0.00    +0.000 C 
ATOM     12  I   UNL     1       9.481  15.831  22.093  0.00  0.00    +0.000 I 
ENDROOT
BRANCH  10  13
ATOM     13  C   UNL     1      10.011  12.847  19.683  0.00  0.00    +0.000 A 
ATOM     14  C   UNL     1      11.247  13.391  20.094  0.00  0.00    +0.000 A 
ATOM     15  C   UNL     1      12.333  13.515  19.225  0.00  0.00    +0.000 A 
ATOM     16  C   UNL     1      12.248  13.025  17.932  0.00  0.00    +0.000 A 
ATOM     17  C   UNL     1      11.087  12.377  17.520  0.00  0.00    +0.000 A 
ATOM     18  C   UNL     1       9.967  12.279  18.377  0.00  0.00    +0.000 A 
BRANCH  18  19
ATOM     19  N   UNL     1       8.807  11.536  17.811  0.00  0.00    +0.000 N 
ATOM     20  O   UNL     1       7.980  12.156  17.134  0.00  0.00    +0.000 OA
ATOM     21  O   UNL     1       8.707  10.333  18.081  0.00  0.00    +0.000 OA
ENDBRANCH  18  19
ENDBRANCH  10  13
BRANCH  11  22
ATOM     22  N   UNL     1       8.050  15.055  19.430  0.00  0.00    +0.000 N 
ATOM     23  O   UNL     1       8.690  16.069  19.110  0.00  0.00    +0.000 OA
ATOM     24  O   UNL     1       7.140  14.573  18.742  0.00  0.00    +0.000 OA
ENDBRANCH  11  22
TORSDOF 3
ENDMDL
MODEL 9
REMARK VINA RESULT:      -6.0      8.276      9.645
REMARK  Name = 
REMARK  3 active torsions:
REMARK  status: ('A' for Active; 'I' for Inactive)
REMARK    1  A    between atoms: C_10  and  C_11
REMARK    2  A    between atoms: C_16  and  N_17
REMARK    3  A    between atoms: C_20  and  N_22
REMARK                            x       y       z     vdW  Elec       q    Type
REMARK                         _______ _______ _______ _____ _____    ______ ____
ROOT
ATOM      1  O   UNL     1       6.129  15.099  21.486  0.00  0.00    +0.000 OA
ATOM      2  C   UNL     1       7.076  14.351  21.712  0.00  0.00    +0.000 C 
ATOM      3  C   UNL     1       7.008  13.395  22.849  0.00  0.00    +0.000 A 
ATOM      4  C   UNL     1       5.947  13.469  23.759  0.00  0.00    +0.000 A 
ATOM      5  C   UNL     1       5.959  12.663  24.898  0.00  0.00    +0.000 A 
ATOM      6  C   UNL     1       7.020  11.781  25.118  0.00  0.00    +0.000 A 
ATOM      7  C   UNL     1       8.070  11.696  24.200  0.00  0.00    +0.000 A 
ATOM      8  C   UNL     1       8.066  12.500  23.061  0.00  0.00    +0.000 A 
ATOM      9  O   UNL     1       9.160  12.396  22.226  0.00  0.00    +0.000 OA
ATOM     10  C   UNL     1       8.902  12.939  20.908  0.00  0.00    +0.000 C 
ATOM     11  C   UNL     1       8.409  14.401  21.002  0.00  0.00    +0.000 C 
ATOM     12  I   UNL     1       9.588  15.784  22.256  0.00  0.00    +0.000 I 
ENDROOT
BRANCH  10  13
ATOM     13  C   UNL     1      10.113  12.688  19.992  0.00  0.00    +0.000 A 
ATOM     14  C   UNL     1      11.238  13.520  20.176  0.00  0.00    +0.000 A 
ATOM     15  C   UNL     1      12.288  13.569  19.256  0.00  0.00    +0.000 A 
ATOM     16  C   UNL     1      12.288  12.728  18.157  0.00  0.00    +0.000 A 
ATOM     17  C   UNL     1      11.256  11.809  17.997  0.00  0.00    +0.000 A 
ATOM     18  C   UNL     1      10.168  11.775  18.898  0.00  0.00    +0.000 A 
BRANCH  18  19
ATOM     19  N   UNL     1       9.152  10.723  18.617  0.00  0.00    +0.000 N 
ATOM     20  O   UNL     1       9.206   9.663  19.249  0.00  0.00    +0.000 OA
ATOM     21  O   UNL     1       8.321  10.948  17.728  0.00  0.00    +0.000 OA
ENDBRANCH  18  19
ENDBRANCH  10  13
BRANCH  11  22
ATOM     22  N   UNL     1       8.198  14.916  19.600  0.00  0.00    +0.000 N 
ATOM     23  O   UNL     1       7.541  14.204  18.824  0.00  0.00    +0.000 OA
ATOM     24  O   UNL     1       8.786  15.949  19.252  0.00  0.00    +0.000 OA
ENDBRANCH  11  22
TORSDOF 3
ENDMDL
