MODEL 1
REMARK VINA RESULT:      -7.6      0.000      0.000
REMARK  Name = 
REMARK  3 active torsions:
REMARK  status: ('A' for Active; 'I' for Inactive)
REMARK    1  A    between atoms: C_2  and  C_16
REMARK    2  A    between atoms: N_3  and  C_4
REMARK    3  A    between atoms: C_4  and  C_5
REMARK                            x       y       z     vdW  Elec       q    Type
REMARK                         _______ _______ _______ _____ _____    ______ ____
ROOT
ATOM      1  C   UNL     1       4.792   6.063  17.736  0.00  0.00    +0.000 A 
ATOM      2  C   UNL     1       3.424   6.303  17.884  0.00  0.00    +0.000 A 
ATOM      3  C   UNL     1       2.678   5.550  18.791  0.00  0.00    +0.000 A 
ATOM      4  C   UNL     1       3.326   4.562  19.529  0.00  0.00    +0.000 A 
ATOM      5  N   UNL     1       2.574   3.760  20.427  0.00  0.00    +0.000 N 
ATOM      6  C   UNL     1       3.058   2.776  21.253  0.00  0.00    +0.000 A 
ATOM      7  N   UNL     1       2.074   2.191  21.897  0.00  0.00    +0.000 NA
ATOM      8  C   UNL     1       0.978   2.862  21.440  0.00  0.00    +0.000 A 
ATOM      9  N   UNL     1       1.222   3.839  20.563  0.00  0.00    +0.000 NA
ATOM     10  N   UNL     1       4.657   4.309  19.407  0.00  0.00    +0.000 NA
ATOM     11  C   UNL     1       5.350   5.056  18.518  0.00  0.00    +0.000 A 
ENDROOT
BRANCH   1  12
ATOM     12  C   UNL     1       5.631   6.832  16.758  0.00  0.00    +0.000 C 
BRANCH  12  15
ATOM     13  O   UNL     1       7.678   5.113  16.017  0.00  0.00    +0.000 OA
ATOM     14  C   UNL     1       6.770   5.312  15.216  0.00  0.00    +0.000 C 
ATOM     15  N   UNL     1       5.719   6.158  15.485  0.00  0.00    +0.000 N 
ATOM     16  H   UNL     1       4.935   6.199  14.851  0.00  0.00    +0.000 HD
BRANCH  14  17
ATOM     17  C   UNL     1       6.722   4.661  13.915  0.00  0.00    +0.000 A 
ATOM     18  C   UNL     1       5.845   3.665  13.395  0.00  0.00    +0.000 A 
ATOM     19  C   UNL     1       6.246   3.418  12.103  0.00  0.00    +0.000 A 
ATOM     20  O   UNL     1       7.315   4.190  11.785  0.00  0.00    +0.000 OA
ATOM     21  C   UNL     1       7.594   4.941  12.878  0.00  0.00    +0.000 A 
ENDBRANCH  14  17
ENDBRANCH  12  15
ENDBRANCH   1  12
TORSDOF 3
ENDMDL
MODEL 2
REMARK VINA RESULT:      -7.4      0.712      1.007
REMARK  Name = 
REMARK  3 active torsions:
REMARK  status: ('A' for Active; 'I' for Inactive)
REMARK    1  A    between atoms: C_2  and  C_16
REMARK    2  A    between atoms: N_3  and  C_4
REMARK    3  A    between atoms: C_4  and  C_5
REMARK                            x       y       z     vdW  Elec       q    Type
REMARK                         _______ _______ _______ _____ _____    ______ ____
ROOT
ATOM      1  C   UNL     1       5.533   5.924  18.067  0.00  0.00    +0.000 A 
ATOM      2  C   UNL     1       4.167   6.147  17.878  0.00  0.00    +0.000 A 
ATOM      3  C   UNL     1       3.233   5.448  18.644  0.00  0.00    +0.000 A 
ATOM      4  C   UNL     1       3.696   4.531  19.584  0.00  0.00    +0.000 A 
ATOM      5  N   UNL     1       2.759   3.782  20.344  0.00  0.00    +0.000 N 
ATOM      6  C   UNL     1       3.042   2.872  21.332  0.00  0.00    +0.000 A 
ATOM      7  N   UNL     1       1.936   2.316  21.775  0.00  0.00    +0.000 NA
ATOM      8  C   UNL     1       0.975   2.930  21.028  0.00  0.00    +0.000 A 
ATOM      9  N   UNL     1       1.412   3.844  20.158  0.00  0.00    +0.000 NA
ATOM     10  N   UNL     1       5.020   4.296  19.792  0.00  0.00    +0.000 NA
ATOM     11  C   UNL     1       5.898   4.989  19.031  0.00  0.00    +0.000 A 
ENDROOT
BRANCH   1  12
ATOM     12  C   UNL     1       6.573   6.635  17.252  0.00  0.00    +0.000 C 
BRANCH  12  15
ATOM     13  O   UNL     1       7.861   4.372  16.296  0.00  0.00    +0.000 OA
ATOM     14  C   UNL     1       7.222   5.054  15.500  0.00  0.00    +0.000 C 
ATOM     15  N   UNL     1       6.561   6.202  15.875  0.00  0.00    +0.000 N 
ATOM     16  H   UNL     1       5.950   6.664  15.220  0.00  0.00    +0.000 HD
BRANCH  14  17
ATOM     17  C   UNL     1       7.098   4.701  14.094  0.00  0.00    +0.000 A 
ATOM     18  C   UNL     1       7.834   5.129  12.950  0.00  0.00    +0.000 A 
ATOM     19  C   UNL     1       7.301   4.470  11.867  0.00  0.00    +0.000 A 
ATOM     20  O   UNL     1       6.283   3.665  12.258  0.00  0.00    +0.000 OA
ATOM     21  C   UNL     1       6.168   3.804  13.601  0.00  0.00    +0.000 A 
ENDBRANCH  14  17
ENDBRANCH  12  15
ENDBRANCH   1  12
TORSDOF 3
ENDMDL
MODEL 3
REMARK VINA RESULT:      -7.3      0.872      1.392
REMARK  Name = 
REMARK  3 active torsions:
REMARK  status: ('A' for Active; 'I' for Inactive)
REMARK    1  A    between atoms: C_2  and  C_16
REMARK    2  A    between atoms: N_3  and  C_4
REMARK    3  A    between atoms: C_4  and  C_5
REMARK                            x       y       z     vdW  Elec       q    Type
REMARK                         _______ _______ _______ _____ _____    ______ ____
ROOT
ATOM      1  C   UNL     1       5.166   5.777  17.786  0.00  0.00    +0.000 A 
ATOM      2  C   UNL     1       5.733   4.838  18.651  0.00  0.00    +0.000 A 
ATOM      3  C   UNL     1       4.916   4.088  19.497  0.00  0.00    +0.000 A 
ATOM      4  C   UNL     1       3.540   4.304  19.460  0.00  0.00    +0.000 A 
ATOM      5  N   UNL     1       2.698   3.578  20.343  0.00  0.00    +0.000 N 
ATOM      6  C   UNL     1       1.329   3.641  20.410  0.00  0.00    +0.000 A 
ATOM      7  N   UNL     1       0.882   2.886  21.389  0.00  0.00    +0.000 NA
ATOM      8  C   UNL     1       2.028   2.357  21.904  0.00  0.00    +0.000 A 
ATOM      9  N   UNL     1       3.160   2.724  21.297  0.00  0.00    +0.000 NA
ATOM     10  N   UNL     1       2.962   5.210  18.626  0.00  0.00    +0.000 NA
ATOM     11  C   UNL     1       3.783   5.921  17.820  0.00  0.00    +0.000 A 
ENDROOT
BRANCH   1  12
ATOM     12  C   UNL     1       6.006   6.623  16.873  0.00  0.00    +0.000 C 
BRANCH  12  15
ATOM     13  O   UNL     1       7.809   4.682  16.049  0.00  0.00    +0.000 OA
ATOM     14  C   UNL     1       6.993   5.099  15.233  0.00  0.00    +0.000 C 
ATOM     15  N   UNL     1       6.068   6.071  15.541  0.00  0.00    +0.000 N 
ATOM     16  H   UNL     1       5.341   6.297  14.880  0.00  0.00    +0.000 HD
BRANCH  14  17
ATOM     17  C   UNL     1       6.927   4.594  13.869  0.00  0.00    +0.000 A 
ATOM     18  C   UNL     1       6.095   3.601  13.275  0.00  0.00    +0.000 A 
ATOM     19  C   UNL     1       6.450   3.527  11.948  0.00  0.00    +0.000 A 
ATOM     20  O   UNL     1       7.447   4.406  11.678  0.00  0.00    +0.000 OA
ATOM     21  C   UNL     1       7.727   5.050  12.837  0.00  0.00    +0.000 A 
ENDBRANCH  14  17
ENDBRANCH  12  15
ENDBRANCH   1  12
TORSDOF 3
ENDMDL
MODEL 4
REMARK VINA RESULT:      -7.2      3.429      4.452
REMARK  Name = 
REMARK  3 active torsions:
REMARK  status: ('A' for Active; 'I' for Inactive)
REMARK    1  A    between atoms: C_2  and  C_16
REMARK    2  A    between atoms: N_3  and  C_4
REMARK    3  A    between atoms: C_4  and  C_5
REMARK                            x       y       z     vdW  Elec       q    Type
REMARK                         _______ _______ _______ _____ _____    ______ ____
ROOT
ATOM      1  C   UNL     1       2.521   5.525  19.015  0.00  0.00    +0.000 A 
ATOM      2  C   UNL     1       2.569   6.733  18.314  0.00  0.00    +0.000 A 
ATOM      3  C   UNL     1       2.139   7.911  18.925  0.00  0.00    +0.000 A 
ATOM      4  C   UNL     1       1.661   7.848  20.232  0.00  0.00    +0.000 A 
ATOM      5  N   UNL     1       1.182   9.031  20.854  0.00  0.00    +0.000 N 
ATOM      6  C   UNL     1       0.716   9.152  22.139  0.00  0.00    +0.000 A 
ATOM      7  N   UNL     1       0.290  10.376  22.360  0.00  0.00    +0.000 NA
ATOM      8  C   UNL     1       0.524  10.992  21.167  0.00  0.00    +0.000 A 
ATOM      9  N   UNL     1       1.083  10.232  20.222  0.00  0.00    +0.000 NA
ATOM     10  N   UNL     1       1.606   6.687  20.939  0.00  0.00    +0.000 NA
ATOM     11  C   UNL     1       2.029   5.563  20.316  0.00  0.00    +0.000 A 
ENDROOT
BRANCH   1  12
ATOM     12  C   UNL     1       2.952   4.229  18.393  0.00  0.00    +0.000 C 
BRANCH  12  15
ATOM     13  O   UNL     1       5.721   4.128  18.516  0.00  0.00    +0.000 OA
ATOM     14  C   UNL     1       5.198   4.358  17.430  0.00  0.00    +0.000 C 
ATOM     15  N   UNL     1       3.833   4.443  17.270  0.00  0.00    +0.000 N 
ATOM     16  H   UNL     1       3.442   4.513  16.344  0.00  0.00    +0.000 HD
BRANCH  14  17
ATOM     17  C   UNL     1       5.975   4.551  16.215  0.00  0.00    +0.000 A 
ATOM     18  C   UNL     1       5.754   4.109  14.878  0.00  0.00    +0.000 A 
ATOM     19  C   UNL     1       6.802   4.584  14.125  0.00  0.00    +0.000 A 
ATOM     20  O   UNL     1       7.660   5.289  14.902  0.00  0.00    +0.000 OA
ATOM     21  C   UNL     1       7.155   5.272  16.159  0.00  0.00    +0.000 A 
ENDBRANCH  14  17
ENDBRANCH  12  15
ENDBRANCH   1  12
TORSDOF 3
ENDMDL
MODEL 5
REMARK VINA RESULT:      -7.1      4.313      5.607
REMARK  Name = 
REMARK  3 active torsions:
REMARK  status: ('A' for Active; 'I' for Inactive)
REMARK    1  A    between atoms: C_2  and  C_16
REMARK    2  A    between atoms: N_3  and  C_4
REMARK    3  A    between atoms: C_4  and  C_5
REMARK                            x       y       z     vdW  Elec       q    Type
REMARK                         _______ _______ _______ _____ _____    ______ ____
ROOT
ATOM      1  C   UNL     1       2.448   6.901  19.485  0.00  0.00    +0.000 A 
ATOM      2  C   UNL     1       2.413   7.735  18.364  0.00  0.00    +0.000 A 
ATOM      3  C   UNL     1       1.727   8.948  18.419  0.00  0.00    +0.000 A 
ATOM      4  C   UNL     1       1.082   9.296  19.604  0.00  0.00    +0.000 A 
ATOM      5  N   UNL     1       0.346  10.509  19.664  0.00  0.00    +0.000 N 
ATOM      6  C   UNL     1      -0.312  11.017  20.756  0.00  0.00    +0.000 A 
ATOM      7  N   UNL     1      -0.945  12.124  20.438  0.00  0.00    +0.000 NA
ATOM      8  C   UNL     1      -0.639  12.271  19.117  0.00  0.00    +0.000 A 
ATOM      9  N   UNL     1       0.159  11.334  18.598  0.00  0.00    +0.000 NA
ATOM     10  N   UNL     1       1.102   8.505  20.711  0.00  0.00    +0.000 NA
ATOM     11  C   UNL     1       1.775   7.335  20.622  0.00  0.00    +0.000 A 
ENDROOT
BRANCH   1  12
ATOM     12  C   UNL     1       3.154   5.577  19.466  0.00  0.00    +0.000 C 
BRANCH  12  15
ATOM     13  O   UNL     1       5.307   3.831  19.354  0.00  0.00    +0.000 OA
ATOM     14  C   UNL     1       5.110   4.570  18.394  0.00  0.00    +0.000 C 
ATOM     15  N   UNL     1       4.077   5.480  18.361  0.00  0.00    +0.000 N 
ATOM     16  H   UNL     1       3.878   5.979  17.508  0.00  0.00    +0.000 HD
BRANCH  14  17
ATOM     17  C   UNL     1       5.945   4.539  17.202  0.00  0.00    +0.000 A 
ATOM     18  C   UNL     1       5.607   4.429  15.822  0.00  0.00    +0.000 A 
ATOM     19  C   UNL     1       6.790   4.460  15.121  0.00  0.00    +0.000 A 
ATOM     20  O   UNL     1       7.839   4.580  15.971  0.00  0.00    +0.000 OA
ATOM     21  C   UNL     1       7.325   4.633  17.224  0.00  0.00    +0.000 A 
ENDBRANCH  14  17
ENDBRANCH  12  15
ENDBRANCH   1  12
TORSDOF 3
ENDMDL
MODEL 6
REMARK VINA RESULT:      -6.9      4.174      5.446
REMARK  Name = 
REMARK  3 active torsions:
REMARK  status: ('A' for Active; 'I' for Inactive)
REMARK    1  A    between atoms: C_2  and  C_16
REMARK    2  A    between atoms: N_3  and  C_4
REMARK    3  A    between atoms: C_4  and  C_5
REMARK                            x       y       z     vdW  Elec       q    Type
REMARK                         _______ _______ _______ _____ _____    ______ ____
ROOT
ATOM      1  C   UNL     1       2.404   6.443  19.573  0.00  0.00    +0.000 A 
ATOM      2  C   UNL     1       1.765   6.784  20.768  0.00  0.00    +0.000 A 
ATOM      3  C   UNL     1       1.216   8.057  20.926  0.00  0.00    +0.000 A 
ATOM      4  C   UNL     1       1.328   8.966  19.876  0.00  0.00    +0.000 A 
ATOM      5  N   UNL     1       0.811  10.279  20.035  0.00  0.00    +0.000 N 
ATOM      6  C   UNL     1       0.803  11.278  19.095  0.00  0.00    +0.000 A 
ATOM      7  N   UNL     1       0.308  12.384  19.604  0.00  0.00    +0.000 NA
ATOM      8  C   UNL     1       0.008  12.015  20.882  0.00  0.00    +0.000 A 
ATOM      9  N   UNL     1       0.271  10.744  21.195  0.00  0.00    +0.000 NA
ATOM     10  N   UNL     1       1.942   8.659  18.701  0.00  0.00    +0.000 NA
ATOM     11  C   UNL     1       2.464   7.417  18.582  0.00  0.00    +0.000 A 
ENDROOT
BRANCH   1  12
ATOM     12  C   UNL     1       3.028   5.094  19.366  0.00  0.00    +0.000 C 
BRANCH  12  15
ATOM     13  O   UNL     1       5.488   3.812  19.336  0.00  0.00    +0.000 OA
ATOM     14  C   UNL     1       5.137   4.416  18.327  0.00  0.00    +0.000 C 
ATOM     15  N   UNL     1       3.942   5.094  18.249  0.00  0.00    +0.000 N 
ATOM     16  H   UNL     1       3.638   5.473  17.365  0.00  0.00    +0.000 HD
BRANCH  14  17
ATOM     17  C   UNL     1       5.950   4.456  17.120  0.00  0.00    +0.000 A 
ATOM     18  C   UNL     1       5.591   4.382  15.743  0.00  0.00    +0.000 A 
ATOM     19  C   UNL     1       6.759   4.481  15.023  0.00  0.00    +0.000 A 
ATOM     20  O   UNL     1       7.819   4.609  15.858  0.00  0.00    +0.000 OA
ATOM     21  C   UNL     1       7.326   4.599  17.121  0.00  0.00    +0.000 A 
ENDBRANCH  14  17
ENDBRANCH  12  15
ENDBRANCH   1  12
TORSDOF 3
ENDMDL
MODEL 7
REMARK VINA RESULT:      -6.9      5.410      7.390
REMARK  Name = 
REMARK  3 active torsions:
REMARK  status: ('A' for Active; 'I' for Inactive)
REMARK    1  A    between atoms: C_2  and  C_16
REMARK    2  A    between atoms: N_3  and  C_4
REMARK    3  A    between atoms: C_4  and  C_5
REMARK                            x       y       z     vdW  Elec       q    Type
REMARK                         _______ _______ _______ _____ _____    ______ ____
ROOT
ATOM      1  C   UNL     1       2.246   8.045  18.631  0.00  0.00    +0.000 A 
ATOM      2  C   UNL     1       2.940   7.062  17.920  0.00  0.00    +0.000 A 
ATOM      3  C   UNL     1       3.115   5.794  18.473  0.00  0.00    +0.000 A 
ATOM      4  C   UNL     1       2.591   5.541  19.739  0.00  0.00    +0.000 A 
ATOM      5  N   UNL     1       2.794   4.267  20.334  0.00  0.00    +0.000 N 
ATOM      6  C   UNL     1       2.317   3.842  21.548  0.00  0.00    +0.000 A 
ATOM      7  N   UNL     1       2.754   2.632  21.816  0.00  0.00    +0.000 NA
ATOM      8  C   UNL     1       3.504   2.337  20.716  0.00  0.00    +0.000 A 
ATOM      9  N   UNL     1       3.548   3.283  19.774  0.00  0.00    +0.000 NA
ATOM     10  N   UNL     1       1.908   6.477  20.452  0.00  0.00    +0.000 NA
ATOM     11  C   UNL     1       1.758   7.697  19.887  0.00  0.00    +0.000 A 
ENDROOT
BRANCH   1  12
ATOM     12  C   UNL     1       2.052   9.429  18.086  0.00  0.00    +0.000 C 
BRANCH  12  15
ATOM     13  O   UNL     1       0.288  11.009  19.531  0.00  0.00    +0.000 OA
ATOM     14  C   UNL     1      -0.117  10.484  18.498  0.00  0.00    +0.000 C 
ATOM     15  N   UNL     1       0.677   9.672  17.721  0.00  0.00    +0.000 N 
ATOM     16  H   UNL     1       0.345   9.361  16.821  0.00  0.00    +0.000 HD
BRANCH  14  17
ATOM     17  C   UNL     1      -1.470  10.685  18.000  0.00  0.00    +0.000 A 
ATOM     18  C   UNL     1      -2.493  11.594  18.399  0.00  0.00    +0.000 A 
ATOM     19  C   UNL     1      -3.574  11.359  17.582  0.00  0.00    +0.000 A 
ATOM     20  O   UNL     1      -3.294  10.363  16.705  0.00  0.00    +0.000 OA
ATOM     21  C   UNL     1      -2.024   9.964  16.957  0.00  0.00    +0.000 A 
ENDBRANCH  14  17
ENDBRANCH  12  15
ENDBRANCH   1  12
TORSDOF 3
ENDMDL
MODEL 8
REMARK VINA RESULT:      -6.9      2.640      3.394
REMARK  Name = 
REMARK  3 active torsions:
REMARK  status: ('A' for Active; 'I' for Inactive)
REMARK    1  A    between atoms: C_2  and  C_16
REMARK    2  A    between atoms: N_3  and  C_4
REMARK    3  A    between atoms: C_4  and  C_5
REMARK                            x       y       z     vdW  Elec       q    Type
REMARK                         _______ _______ _______ _____ _____    ______ ____
ROOT
ATOM      1  C   UNL     1       4.335   5.057  18.261  0.00  0.00    +0.000 A 
ATOM      2  C   UNL     1       4.075   6.156  17.439  0.00  0.00    +0.000 A 
ATOM      3  C   UNL     1       3.253   7.188  17.894  0.00  0.00    +0.000 A 
ATOM      4  C   UNL     1       2.702   7.088  19.170  0.00  0.00    +0.000 A 
ATOM      5  N   UNL     1       1.832   8.109  19.634  0.00  0.00    +0.000 N 
ATOM      6  C   UNL     1       1.239   8.185  20.869  0.00  0.00    +0.000 A 
ATOM      7  N   UNL     1       0.441   9.228  20.932  0.00  0.00    +0.000 NA
ATOM      8  C   UNL     1       0.581   9.785  19.696  0.00  0.00    +0.000 A 
ATOM      9  N   UNL     1       1.428   9.162  18.872  0.00  0.00    +0.000 NA
ATOM     10  N   UNL     1       2.941   6.030  19.992  0.00  0.00    +0.000 NA
ATOM     11  C   UNL     1       3.741   5.047  19.519  0.00  0.00    +0.000 A 
ENDROOT
BRANCH   1  12
ATOM     12  C   UNL     1       5.194   3.913  17.807  0.00  0.00    +0.000 C 
BRANCH  12  15
ATOM     13  O   UNL     1       7.544   4.696  16.558  0.00  0.00    +0.000 OA
ATOM     14  C   UNL     1       6.610   4.327  15.854  0.00  0.00    +0.000 C 
ATOM     15  N   UNL     1       5.399   3.934  16.378  0.00  0.00    +0.000 N 
ATOM     16  H   UNL     1       4.703   3.524  15.775  0.00  0.00    +0.000 HD
BRANCH  14  17
ATOM     17  C   UNL     1       6.704   4.263  14.403  0.00  0.00    +0.000 A 
ATOM     18  C   UNL     1       5.983   3.488  13.448  0.00  0.00    +0.000 A 
ATOM     19  C   UNL     1       6.473   3.830  12.209  0.00  0.00    +0.000 A 
ATOM     20  O   UNL     1       7.451   4.761  12.329  0.00  0.00    +0.000 OA
ATOM     21  C   UNL     1       7.583   5.023  13.652  0.00  0.00    +0.000 A 
ENDBRANCH  14  17
ENDBRANCH  12  15
ENDBRANCH   1  12
TORSDOF 3
ENDMDL
MODEL 9
REMARK VINA RESULT:      -6.9      3.520      4.626
REMARK  Name = 
REMARK  3 active torsions:
REMARK  status: ('A' for Active; 'I' for Inactive)
REMARK    1  A    between atoms: C_2  and  C_16
REMARK    2  A    between atoms: N_3  and  C_4
REMARK    3  A    between atoms: C_4  and  C_5
REMARK                            x       y       z     vdW  Elec       q    Type
REMARK                         _______ _______ _______ _____ _____    ______ ____
ROOT
ATOM      1  C   UNL     1       2.634   5.506  19.303  0.00  0.00    +0.000 A 
ATOM      2  C   UNL     1       1.978   5.590  20.534  0.00  0.00    +0.000 A 
ATOM      3  C   UNL     1       1.417   6.800  20.944  0.00  0.00    +0.000 A 
ATOM      4  C   UNL     1       1.533   7.906  20.105  0.00  0.00    +0.000 A 
ATOM      5  N   UNL     1       1.002   9.155  20.525  0.00  0.00    +0.000 N 
ATOM      6  C   UNL     1       0.996  10.327  19.811  0.00  0.00    +0.000 A 
ATOM      7  N   UNL     1       0.486  11.301  20.530  0.00  0.00    +0.000 NA
ATOM      8  C   UNL     1       0.174  10.674  21.700  0.00  0.00    +0.000 A 
ATOM      9  N   UNL     1       0.444   9.367  21.748  0.00  0.00    +0.000 NA
ATOM     10  N   UNL     1       2.163   7.852  18.901  0.00  0.00    +0.000 NA
ATOM     11  C   UNL     1       2.698   6.664  18.535  0.00  0.00    +0.000 A 
ENDROOT
BRANCH   1  12
ATOM     12  C   UNL     1       3.273   4.233  18.831  0.00  0.00    +0.000 C 
BRANCH  12  15
ATOM     13  O   UNL     1       6.042   4.195  18.677  0.00  0.00    +0.000 OA
ATOM     14  C   UNL     1       5.408   4.383  17.644  0.00  0.00    +0.000 C 
ATOM     15  N   UNL     1       4.032   4.434  17.620  0.00  0.00    +0.000 N 
ATOM     16  H   UNL     1       3.549   4.469  16.736  0.00  0.00    +0.000 HD
BRANCH  14  17
ATOM     17  C   UNL     1       6.055   4.558  16.352  0.00  0.00    +0.000 A 
ATOM     18  C   UNL     1       5.820   3.935  15.092  0.00  0.00    +0.000 A 
ATOM     19  C   UNL     1       6.716   4.484  14.205  0.00  0.00    +0.000 A 
ATOM     20  O   UNL     1       7.494   5.404  14.828  0.00  0.00    +0.000 OA
ATOM     21  C   UNL     1       7.088   5.449  16.120  0.00  0.00    +0.000 A 
ENDBRANCH  14  17
ENDBRANCH  12  15
ENDBRANCH   1  12
TORSDOF 3
ENDMDL
