MODEL 1
REMARK VINA RESULT:      -7.5      0.000      0.000
REMARK  Name = 
REMARK  3 active torsions:
REMARK  status: ('A' for Active; 'I' for Inactive)
REMARK    1  A    between atoms: C_1  and  O_2
REMARK    2  A    between atoms: O_2  and  C_3
REMARK    3  A    between atoms: C_7  and  C_8
REMARK                            x       y       z     vdW  Elec       q    Type
REMARK                         _______ _______ _______ _____ _____    ______ ____
ROOT
ATOM      1  C   UNL     1       4.666   4.282  16.651  0.00  0.00    +0.000 C 
ATOM      2  C   UNL     1       4.051   5.258  17.343  0.00  0.00    +0.000 C 
ATOM      3  C   UNL     1       4.206   6.750  17.123  0.00  0.00    +0.000 C 
ATOM      4  O   UNL     1       4.771   7.345  16.226  0.00  0.00    +0.000 OA
ATOM      5  N   UNL     1       3.512   7.351  18.148  0.00  0.00    +0.000 N 
ATOM      6  C   UNL     1       2.869   6.419  18.943  0.00  0.00    +0.000 A 
ATOM      7  C   UNL     1       2.040   6.754  20.001  0.00  0.00    +0.000 A 
ATOM      8  C   UNL     1       1.416   5.712  20.671  0.00  0.00    +0.000 A 
ATOM      9  C   UNL     1       1.646   4.390  20.274  0.00  0.00    +0.000 A 
ATOM     10  F   UNL     1       1.001   3.429  20.954  0.00  0.00    +0.000 F 
ATOM     11  C   UNL     1       2.505   4.062  19.202  0.00  0.00    +0.000 A 
ATOM     12  I   UNL     1       2.698   2.029  18.763  0.00  0.00    +0.000 I 
ATOM     13  C   UNL     1       3.133   5.100  18.516  0.00  0.00    +0.000 A 
ATOM     14  H   UNL     1       3.446   8.354  18.234  0.00  0.00    +0.000 HD
ENDROOT
BRANCH   1  19
ATOM     15  C   UNL     1       6.861   4.881  15.462  0.00  0.00    +0.000 A 
ATOM     16  C   UNL     1       7.327   4.694  14.137  0.00  0.00    +0.000 A 
ATOM     17  C   UNL     1       6.317   4.077  13.440  0.00  0.00    +0.000 A 
ATOM     18  N   UNL     1       5.271   3.881  14.305  0.00  0.00    +0.000 N 
ATOM     19  C   UNL     1       5.570   4.376  15.553  0.00  0.00    +0.000 A 
ATOM     20  H   UNL     1       4.376   3.491  14.035  0.00  0.00    +0.000 HD
BRANCH  15  22
ATOM     21  C   UNL     1       7.722   4.530  17.593  0.00  0.00    +0.000 C 
ATOM     22  O   UNL     1       7.481   5.442  16.528  0.00  0.00    +0.000 OA
ENDBRANCH  15  22
ENDBRANCH   1  19
TORSDOF 2
ENDMDL
MODEL 2
REMARK VINA RESULT:      -7.3      1.536      2.211
REMARK  Name = 
REMARK  3 active torsions:
REMARK  status: ('A' for Active; 'I' for Inactive)
REMARK    1  A    between atoms: C_1  and  O_2
REMARK    2  A    between atoms: O_2  and  C_3
REMARK    3  A    between atoms: C_7  and  C_8
REMARK                            x       y       z     vdW  Elec       q    Type
REMARK                         _______ _______ _______ _____ _____    ______ ____
ROOT
ATOM      1  C   UNL     1       5.198   4.237  15.952  0.00  0.00    +0.000 C 
ATOM      2  C   UNL     1       4.580   5.187  16.677  0.00  0.00    +0.000 C 
ATOM      3  C   UNL     1       4.658   6.685  16.447  0.00  0.00    +0.000 C 
ATOM      4  O   UNL     1       5.145   7.300  15.520  0.00  0.00    +0.000 OA
ATOM      5  N   UNL     1       3.996   7.258  17.508  0.00  0.00    +0.000 N 
ATOM      6  C   UNL     1       3.440   6.302  18.339  0.00  0.00    +0.000 A 
ATOM      7  C   UNL     1       2.656   6.604  19.441  0.00  0.00    +0.000 A 
ATOM      8  C   UNL     1       2.117   5.539  20.146  0.00  0.00    +0.000 A 
ATOM      9  C   UNL     1       2.382   4.227  19.738  0.00  0.00    +0.000 A 
ATOM     10  F   UNL     1       1.818   3.241  20.453  0.00  0.00    +0.000 F 
ATOM     11  C   UNL     1       3.193   3.933  18.620  0.00  0.00    +0.000 A 
ATOM     12  I   UNL     1       3.450   1.908  18.173  0.00  0.00    +0.000 I 
ATOM     13  C   UNL     1       3.736   4.994  17.899  0.00  0.00    +0.000 A 
ATOM     14  H   UNL     1       3.892   8.257  17.597  0.00  0.00    +0.000 HD
ENDROOT
BRANCH   1  19
ATOM     15  C   UNL     1       5.849   3.992  13.481  0.00  0.00    +0.000 A 
ATOM     16  C   UNL     1       6.986   4.389  12.735  0.00  0.00    +0.000 A 
ATOM     17  C   UNL     1       7.847   5.001  13.613  0.00  0.00    +0.000 A 
ATOM     18  N   UNL     1       7.260   4.991  14.851  0.00  0.00    +0.000 N 
ATOM     19  C   UNL     1       6.034   4.366  14.806  0.00  0.00    +0.000 A 
ATOM     20  H   UNL     1       7.705   5.333  15.695  0.00  0.00    +0.000 HD
BRANCH  15  22
ATOM     21  C   UNL     1       4.616   3.234  11.661  0.00  0.00    +0.000 C 
ATOM     22  O   UNL     1       4.724   3.353  13.075  0.00  0.00    +0.000 OA
ENDBRANCH  15  22
ENDBRANCH   1  19
TORSDOF 2
ENDMDL
MODEL 3
REMARK VINA RESULT:      -6.7      2.174      2.773
REMARK  Name = 
REMARK  3 active torsions:
REMARK  status: ('A' for Active; 'I' for Inactive)
REMARK    1  A    between atoms: C_1  and  O_2
REMARK    2  A    between atoms: O_2  and  C_3
REMARK    3  A    between atoms: C_7  and  C_8
REMARK                            x       y       z     vdW  Elec       q    Type
REMARK                         _______ _______ _______ _____ _____    ______ ____
ROOT
ATOM      1  C   UNL     1       4.434   4.877  16.779  0.00  0.00    +0.000 C 
ATOM      2  C   UNL     1       3.854   3.953  17.566  0.00  0.00    +0.000 C 
ATOM      3  C   UNL     1       4.064   2.453  17.493  0.00  0.00    +0.000 C 
ATOM      4  O   UNL     1       4.870   1.815  16.844  0.00  0.00    +0.000 OA
ATOM      5  N   UNL     1       3.165   1.908  18.380  0.00  0.00    +0.000 N 
ATOM      6  C   UNL     1       2.467   2.888  19.065  0.00  0.00    +0.000 A 
ATOM      7  C   UNL     1       1.553   2.618  20.070  0.00  0.00    +0.000 A 
ATOM      8  C   UNL     1       0.975   3.705  20.709  0.00  0.00    +0.000 A 
ATOM      9  C   UNL     1       1.319   5.005  20.320  0.00  0.00    +0.000 A 
ATOM     10  F   UNL     1       0.735   6.014  20.988  0.00  0.00    +0.000 F 
ATOM     11  C   UNL     1       2.242   5.265  19.284  0.00  0.00    +0.000 A 
ATOM     12  I   UNL     1       2.624   7.277  18.872  0.00  0.00    +0.000 I 
ATOM     13  C   UNL     1       2.835   4.182  18.639  0.00  0.00    +0.000 A 
ATOM     14  H   UNL     1       3.101   0.913  18.535  0.00  0.00    +0.000 HD
ENDROOT
BRANCH   1  19
ATOM     15  C   UNL     1       6.738   4.998  15.655  0.00  0.00    +0.000 A 
ATOM     16  C   UNL     1       7.215   4.604  14.380  0.00  0.00    +0.000 A 
ATOM     17  C   UNL     1       6.145   4.084  13.694  0.00  0.00    +0.000 A 
ATOM     18  N   UNL     1       5.051   4.145  14.518  0.00  0.00    +0.000 N 
ATOM     19  C   UNL     1       5.380   4.714  15.727  0.00  0.00    +0.000 A 
ATOM     20  H   UNL     1       4.115   3.875  14.240  0.00  0.00    +0.000 HD
BRANCH  15  22
ATOM     21  C   UNL     1       7.713   4.646  17.736  0.00  0.00    +0.000 C 
ATOM     22  O   UNL     1       7.401   5.562  16.693  0.00  0.00    +0.000 OA
ENDBRANCH  15  22
ENDBRANCH   1  19
TORSDOF 2
ENDMDL
MODEL 4
REMARK VINA RESULT:      -6.6      4.468      6.288
REMARK  Name = 
REMARK  3 active torsions:
REMARK  status: ('A' for Active; 'I' for Inactive)
REMARK    1  A    between atoms: C_1  and  O_2
REMARK    2  A    between atoms: O_2  and  C_3
REMARK    3  A    between atoms: C_7  and  C_8
REMARK                            x       y       z     vdW  Elec       q    Type
REMARK                         _______ _______ _______ _____ _____    ______ ____
ROOT
ATOM      1  C   UNL     1       1.851   7.738  20.090  0.00  0.00    +0.000 C 
ATOM      2  C   UNL     1       1.584   8.859  19.396  0.00  0.00    +0.000 C 
ATOM      3  C   UNL     1       1.986   9.145  17.962  0.00  0.00    +0.000 C 
ATOM      4  O   UNL     1       2.476   8.403  17.134  0.00  0.00    +0.000 OA
ATOM      5  N   UNL     1       1.631  10.454  17.730  0.00  0.00    +0.000 N 
ATOM      6  C   UNL     1       0.980  11.006  18.820  0.00  0.00    +0.000 A 
ATOM      7  C   UNL     1       0.449  12.285  18.829  0.00  0.00    +0.000 A 
ATOM      8  C   UNL     1      -0.229  12.681  19.972  0.00  0.00    +0.000 A 
ATOM      9  C   UNL     1      -0.344  11.801  21.055  0.00  0.00    +0.000 A 
ATOM     10  F   UNL     1      -1.025  12.240  22.126  0.00  0.00    +0.000 F 
ATOM     11  C   UNL     1       0.214  10.504  21.036  0.00  0.00    +0.000 A 
ATOM     12  I   UNL     1      -0.085   9.347  22.750  0.00  0.00    +0.000 I 
ATOM     13  C   UNL     1       0.892  10.092  19.892  0.00  0.00    +0.000 A 
ATOM     14  H   UNL     1       1.782  10.900  16.839  0.00  0.00    +0.000 HD
ENDROOT
BRANCH   1  19
ATOM     15  C   UNL     1       2.243   5.210  19.879  0.00  0.00    +0.000 A 
ATOM     16  C   UNL     1       3.232   4.434  19.225  0.00  0.00    +0.000 A 
ATOM     17  C   UNL     1       4.107   5.314  18.636  0.00  0.00    +0.000 A 
ATOM     18  N   UNL     1       3.669   6.585  18.908  0.00  0.00    +0.000 N 
ATOM     19  C   UNL     1       2.531   6.554  19.681  0.00  0.00    +0.000 A 
ATOM     20  H   UNL     1       4.163   7.426  18.636  0.00  0.00    +0.000 HD
BRANCH  15  22
ATOM     21  C   UNL     1       1.204   3.442  20.974  0.00  0.00    +0.000 C 
ATOM     22  O   UNL     1       1.165   4.814  20.599  0.00  0.00    +0.000 OA
ENDBRANCH  15  22
ENDBRANCH   1  19
TORSDOF 2
ENDMDL
MODEL 5
REMARK VINA RESULT:      -6.5      3.736      6.599
REMARK  Name = 
REMARK  3 active torsions:
REMARK  status: ('A' for Active; 'I' for Inactive)
REMARK    1  A    between atoms: C_1  and  O_2
REMARK    2  A    between atoms: O_2  and  C_3
REMARK    3  A    between atoms: C_7  and  C_8
REMARK                            x       y       z     vdW  Elec       q    Type
REMARK                         _______ _______ _______ _____ _____    ______ ____
ROOT
ATOM      1  C   UNL     1       2.596   7.024  19.272  0.00  0.00    +0.000 C 
ATOM      2  C   UNL     1       2.462   5.688  19.196  0.00  0.00    +0.000 C 
ATOM      3  C   UNL     1       1.491   4.835  19.990  0.00  0.00    +0.000 C 
ATOM      4  O   UNL     1       0.574   5.176  20.712  0.00  0.00    +0.000 OA
ATOM      5  N   UNL     1       1.811   3.531  19.693  0.00  0.00    +0.000 N 
ATOM      6  C   UNL     1       2.817   3.457  18.745  0.00  0.00    +0.000 A 
ATOM      7  C   UNL     1       3.281   2.266  18.210  0.00  0.00    +0.000 A 
ATOM      8  C   UNL     1       4.252   2.351  17.223  0.00  0.00    +0.000 A 
ATOM      9  C   UNL     1       4.725   3.604  16.817  0.00  0.00    +0.000 A 
ATOM     10  F   UNL     1       5.654   3.618  15.847  0.00  0.00    +0.000 F 
ATOM     11  C   UNL     1       4.252   4.809  17.380  0.00  0.00    +0.000 A 
ATOM     12  I   UNL     1       5.081   6.570  16.620  0.00  0.00    +0.000 I 
ATOM     13  C   UNL     1       3.272   4.739  18.368  0.00  0.00    +0.000 A 
ATOM     14  H   UNL     1       1.306   2.752  20.087  0.00  0.00    +0.000 HD
ENDROOT
BRANCH   1  19
ATOM     15  C   UNL     1       1.099   9.062  19.711  0.00  0.00    +0.000 A 
ATOM     16  C   UNL     1       0.578   9.644  20.894  0.00  0.00    +0.000 A 
ATOM     17  C   UNL     1       1.043   8.897  21.948  0.00  0.00    +0.000 A 
ATOM     18  N   UNL     1       1.814   7.885  21.435  0.00  0.00    +0.000 N 
ATOM     19  C   UNL     1       1.878   7.967  20.063  0.00  0.00    +0.000 A 
ATOM     20  H   UNL     1       2.324   7.217  22.000  0.00  0.00    +0.000 HD
BRANCH  15  22
ATOM     21  C   UNL     1      -0.258  10.174  18.185  0.00  0.00    +0.000 C 
ATOM     22  O   UNL     1       0.932   9.429  18.418  0.00  0.00    +0.000 OA
ENDBRANCH  15  22
ENDBRANCH   1  19
TORSDOF 2
ENDMDL
MODEL 6
REMARK VINA RESULT:      -6.5      2.484      2.863
REMARK  Name = 
REMARK  3 active torsions:
REMARK  status: ('A' for Active; 'I' for Inactive)
REMARK    1  A    between atoms: C_1  and  O_2
REMARK    2  A    between atoms: O_2  and  C_3
REMARK    3  A    between atoms: C_7  and  C_8
REMARK                            x       y       z     vdW  Elec       q    Type
REMARK                         _______ _______ _______ _____ _____    ______ ____
ROOT
ATOM      1  C   UNL     1       4.458   6.007  16.953  0.00  0.00    +0.000 C 
ATOM      2  C   UNL     1       3.971   5.519  18.108  0.00  0.00    +0.000 C 
ATOM      3  C   UNL     1       4.299   4.172  18.722  0.00  0.00    +0.000 C 
ATOM      4  O   UNL     1       5.140   3.357  18.397  0.00  0.00    +0.000 OA
ATOM      5  N   UNL     1       3.465   4.047  19.810  0.00  0.00    +0.000 N 
ATOM      6  C   UNL     1       2.705   5.187  20.003  0.00  0.00    +0.000 A 
ATOM      7  C   UNL     1       1.837   5.359  21.068  0.00  0.00    +0.000 A 
ATOM      8  C   UNL     1       1.187   6.580  21.165  0.00  0.00    +0.000 A 
ATOM      9  C   UNL     1       1.417   7.571  20.203  0.00  0.00    +0.000 A 
ATOM     10  F   UNL     1       0.768   8.736  20.361  0.00  0.00    +0.000 F 
ATOM     11  C   UNL     1       2.295   7.377  19.114  0.00  0.00    +0.000 A 
ATOM     12  I   UNL     1       2.506   8.987  17.801  0.00  0.00    +0.000 I 
ATOM     13  C   UNL     1       2.959   6.157  19.009  0.00  0.00    +0.000 A 
ATOM     14  H   UNL     1       3.484   3.236  20.408  0.00  0.00    +0.000 HD
ENDROOT
BRANCH   1  19
ATOM     15  C   UNL     1       6.749   5.661  15.847  0.00  0.00    +0.000 A 
ATOM     16  C   UNL     1       7.213   4.787  14.833  0.00  0.00    +0.000 A 
ATOM     17  C   UNL     1       6.136   4.038  14.426  0.00  0.00    +0.000 A 
ATOM     18  N   UNL     1       5.051   4.427  15.169  0.00  0.00    +0.000 N 
ATOM     19  C   UNL     1       5.393   5.433  16.043  0.00  0.00    +0.000 A 
ATOM     20  H   UNL     1       4.113   4.070  15.034  0.00  0.00    +0.000 HD
BRANCH  15  22
ATOM     21  C   UNL     1       7.632   6.228  17.922  0.00  0.00    +0.000 C 
ATOM     22  O   UNL     1       7.423   6.594  16.563  0.00  0.00    +0.000 OA
ENDBRANCH  15  22
ENDBRANCH   1  19
TORSDOF 2
ENDMDL
MODEL 7
REMARK VINA RESULT:      -6.4      8.426     11.298
REMARK  Name = 
REMARK  3 active torsions:
REMARK  status: ('A' for Active; 'I' for Inactive)
REMARK    1  A    between atoms: C_1  and  O_2
REMARK    2  A    between atoms: O_2  and  C_3
REMARK    3  A    between atoms: C_7  and  C_8
REMARK                            x       y       z     vdW  Elec       q    Type
REMARK                         _______ _______ _______ _____ _____    ______ ____
ROOT
ATOM      1  C   UNL     1      -3.926  11.909  19.021  0.00  0.00    +0.000 C 
ATOM      2  C   UNL     1      -2.909  11.296  18.389  0.00  0.00    +0.000 C 
ATOM      3  C   UNL     1      -2.941  10.718  16.987  0.00  0.00    +0.000 C 
ATOM      4  O   UNL     1      -3.797  10.815  16.130  0.00  0.00    +0.000 OA
ATOM      5  N   UNL     1      -1.738  10.070  16.824  0.00  0.00    +0.000 N 
ATOM      6  C   UNL     1      -0.917  10.237  17.926  0.00  0.00    +0.000 A 
ATOM      7  C   UNL     1       0.379   9.752  17.997  0.00  0.00    +0.000 A 
ATOM      8  C   UNL     1       1.104  10.048  19.141  0.00  0.00    +0.000 A 
ATOM      9  C   UNL     1       0.515  10.800  20.165  0.00  0.00    +0.000 A 
ATOM     10  F   UNL     1       1.275  11.065  21.240  0.00  0.00    +0.000 F 
ATOM     11  C   UNL     1      -0.812  11.276  20.084  0.00  0.00    +0.000 A 
ATOM     12  I   UNL     1      -1.492  12.390  21.715  0.00  0.00    +0.000 I 
ATOM     13  C   UNL     1      -1.549  10.992  18.937  0.00  0.00    +0.000 A 
ATOM     14  H   UNL     1      -1.495   9.601  15.966  0.00  0.00    +0.000 HD
ENDROOT
BRANCH   1  19
ATOM     15  C   UNL     1      -6.488  12.006  19.151  0.00  0.00    +0.000 A 
ATOM     16  C   UNL     1      -7.484  12.503  18.274  0.00  0.00    +0.000 A 
ATOM     17  C   UNL     1      -6.835  12.989  17.165  0.00  0.00    +0.000 A 
ATOM     18  N   UNL     1      -5.489  12.808  17.354  0.00  0.00    +0.000 N 
ATOM     19  C   UNL     1      -5.244  12.195  18.561  0.00  0.00    +0.000 A 
ATOM     20  H   UNL     1      -4.783  13.031  16.663  0.00  0.00    +0.000 HD
BRANCH  15  22
ATOM     21  C   UNL     1      -7.447  10.275  20.370  0.00  0.00    +0.000 C 
ATOM     22  O   UNL     1      -6.615  11.429  20.370  0.00  0.00    +0.000 OA
ENDBRANCH  15  22
ENDBRANCH   1  19
TORSDOF 2
ENDMDL
MODEL 8
REMARK VINA RESULT:      -6.3      3.316      4.007
REMARK  Name = 
REMARK  3 active torsions:
REMARK  status: ('A' for Active; 'I' for Inactive)
REMARK    1  A    between atoms: C_1  and  O_2
REMARK    2  A    between atoms: O_2  and  C_3
REMARK    3  A    between atoms: C_7  and  C_8
REMARK                            x       y       z     vdW  Elec       q    Type
REMARK                         _______ _______ _______ _____ _____    ______ ____
ROOT
ATOM      1  C   UNL     1       3.566   7.050  17.792  0.00  0.00    +0.000 C 
ATOM      2  C   UNL     1       2.930   6.861  18.962  0.00  0.00    +0.000 C 
ATOM      3  C   UNL     1       3.023   5.632  19.846  0.00  0.00    +0.000 C 
ATOM      4  O   UNL     1       3.767   4.674  19.764  0.00  0.00    +0.000 OA
ATOM      5  N   UNL     1       2.099   5.824  20.848  0.00  0.00    +0.000 N 
ATOM      6  C   UNL     1       1.490   7.062  20.749  0.00  0.00    +0.000 A 
ATOM      7  C   UNL     1       0.575   7.543  21.670  0.00  0.00    +0.000 A 
ATOM      8  C   UNL     1       0.092   8.828  21.472  0.00  0.00    +0.000 A 
ATOM      9  C   UNL     1       0.528   9.574  20.371  0.00  0.00    +0.000 A 
ATOM     10  F   UNL     1       0.034  10.817  20.244  0.00  0.00    +0.000 F 
ATOM     11  C   UNL     1       1.451   9.066  19.432  0.00  0.00    +0.000 A 
ATOM     12  I   UNL     1       1.979  10.350  17.870  0.00  0.00    +0.000 I 
ATOM     13  C   UNL     1       1.949   7.779  19.623  0.00  0.00    +0.000 A 
ATOM     14  H   UNL     1       1.962   5.150  21.585  0.00  0.00    +0.000 HD
ENDROOT
BRANCH   1  19
ATOM     15  C   UNL     1       5.792   6.398  16.692  0.00  0.00    +0.000 A 
ATOM     16  C   UNL     1       6.257   5.207  16.080  0.00  0.00    +0.000 A 
ATOM     17  C   UNL     1       5.226   4.301  16.129  0.00  0.00    +0.000 A 
ATOM     18  N   UNL     1       4.168   4.905  16.757  0.00  0.00    +0.000 N 
ATOM     19  C   UNL     1       4.480   6.200  17.104  0.00  0.00    +0.000 A 
ATOM     20  H   UNL     1       3.258   4.476  16.879  0.00  0.00    +0.000 HD
BRANCH  15  22
ATOM     21  C   UNL     1       7.633   7.456  17.638  0.00  0.00    +0.000 C 
ATOM     22  O   UNL     1       6.428   7.577  16.890  0.00  0.00    +0.000 OA
ENDBRANCH  15  22
ENDBRANCH   1  19
TORSDOF 2
ENDMDL
MODEL 9
REMARK VINA RESULT:      -6.2      3.028      6.309
REMARK  Name = 
REMARK  3 active torsions:
REMARK  status: ('A' for Active; 'I' for Inactive)
REMARK    1  A    between atoms: C_1  and  O_2
REMARK    2  A    between atoms: O_2  and  C_3
REMARK    3  A    between atoms: C_7  and  C_8
REMARK                            x       y       z     vdW  Elec       q    Type
REMARK                         _______ _______ _______ _____ _____    ______ ____
ROOT
ATOM      1  C   UNL     1       1.696   7.526  19.717  0.00  0.00    +0.000 C 
ATOM      2  C   UNL     1       2.591   7.121  18.798  0.00  0.00    +0.000 C 
ATOM      3  C   UNL     1       3.214   7.978  17.713  0.00  0.00    +0.000 C 
ATOM      4  O   UNL     1       3.155   9.181  17.548  0.00  0.00    +0.000 OA
ATOM      5  N   UNL     1       3.945   7.115  16.930  0.00  0.00    +0.000 N 
ATOM      6  C   UNL     1       3.923   5.827  17.436  0.00  0.00    +0.000 A 
ATOM      7  C   UNL     1       4.636   4.774  16.885  0.00  0.00    +0.000 A 
ATOM      8  C   UNL     1       4.566   3.552  17.536  0.00  0.00    +0.000 A 
ATOM      9  C   UNL     1       3.789   3.423  18.694  0.00  0.00    +0.000 A 
ATOM     10  F   UNL     1       3.774   2.217  19.285  0.00  0.00    +0.000 F 
ATOM     11  C   UNL     1       3.056   4.501  19.236  0.00  0.00    +0.000 A 
ATOM     12  I   UNL     1       1.973   4.098  20.976  0.00  0.00    +0.000 I 
ATOM     13  C   UNL     1       3.124   5.736  18.595  0.00  0.00    +0.000 A 
ATOM     14  H   UNL     1       4.473   7.432  16.132  0.00  0.00    +0.000 HD
ENDROOT
BRANCH   1  19
ATOM     15  C   UNL     1       0.892   9.534  21.098  0.00  0.00    +0.000 A 
ATOM     16  C   UNL     1       0.347  10.794  20.747  0.00  0.00    +0.000 A 
ATOM     17  C   UNL     1       0.264  10.828  19.377  0.00  0.00    +0.000 A 
ATOM     18  N   UNL     1       0.750   9.639  18.899  0.00  0.00    +0.000 N 
ATOM     19  C   UNL     1       1.133   8.816  19.933  0.00  0.00    +0.000 A 
ATOM     20  H   UNL     1       0.754   9.379  17.920  0.00  0.00    +0.000 HD
BRANCH  15  22
ATOM     21  C   UNL     1       0.242   9.409  23.327  0.00  0.00    +0.000 C 
ATOM     22  O   UNL     1       1.169   9.019  22.320  0.00  0.00    +0.000 OA
ENDBRANCH  15  22
ENDBRANCH   1  19
TORSDOF 2
ENDMDL
