MODEL 1
REMARK VINA RESULT:      -9.7      0.000      0.000
REMARK  Name = 
REMARK  6 active torsions:
REMARK  status: ('A' for Active; 'I' for Inactive)
REMARK    1  A    between atoms: C_1  and  C_2
REMARK    2  A    between atoms: N_5  and  C_6
REMARK    3  A    between atoms: C_6  and  C_7
REMARK    4  A    between atoms: N_9  and  C_10
REMARK    5  A    between atoms: C_10  and  C_11
REMARK    6  A    between atoms: C_14  and  C_15
REMARK                            x       y       z     vdW  Elec       q    Type
REMARK                         _______ _______ _______ _____ _____    ______ ____
ROOT
ATOM      1  C   UNL     1       2.882   5.370  18.659  0.00  0.00    +0.000 C 
ATOM      2  C   UNL     1       1.918   4.543  17.757  0.00  0.00    +0.000 C 
ATOM      3  C   UNL     1       2.077   3.028  17.981  0.00  0.00    +0.000 C 
ATOM      4  C   UNL     1       1.059   2.458  18.967  0.00  0.00    +0.000 C 
ATOM      5  C   UNL     1       1.087   2.999  20.400  0.00  0.00    +0.000 C 
ATOM      6  C   UNL     1       1.376   4.491  20.582  0.00  0.00    +0.000 C 
ATOM      7  C   UNL     1       2.795   4.875  20.131  0.00  0.00    +0.000 C 
ENDROOT
BRANCH   1   8
ATOM      8  C   UNL     1       2.573   6.867  18.612  0.00  0.00    +0.000 A 
ATOM      9  N   UNL     1       2.953   7.653  17.588  0.00  0.00    +0.000 NA
ATOM     10  O   UNL     1       2.448   8.904  17.923  0.00  0.00    +0.000 OA
ATOM     11  C   UNL     1       1.819   8.758  19.122  0.00  0.00    +0.000 A 
ATOM     12  N   UNL     1       1.879   7.533  19.596  0.00  0.00    +0.000 NA
BRANCH  11  13
ATOM     13  C   UNL     1       1.055   9.920  19.617  0.00  0.00    +0.000 C 
ATOM     14  C   UNL     1      -0.115  10.285  18.730  0.00  0.00    +0.000 C 
ATOM     15  C   UNL     1      -0.944  11.151  19.649  0.00  0.00    +0.000 C 
ATOM     16  O   UNL     1      -0.739  10.655  20.979  0.00  0.00    +0.000 OA
ATOM     17  C   UNL     1       0.365   9.729  20.955  0.00  0.00    +0.000 C 
ENDBRANCH  11  13
ENDBRANCH   1   8
BRANCH   1  20
ATOM     18  C   UNL     1       5.265   4.437  18.476  0.00  0.00    +0.000 C 
ATOM     19  O   UNL     1       5.167   3.610  19.381  0.00  0.00    +0.000 OA
ATOM     20  N   UNL     1       4.221   5.194  18.029  0.00  0.00    +0.000 N 
ATOM     21  H   UNL     1       4.499   5.972  17.424  0.00  0.00    +0.000 HD
BRANCH  18  22
ATOM     22  C   UNL     1       6.614   4.692  17.823  0.00  0.00    +0.000 C 
BRANCH  22  27
ATOM     23  C   UNL     1       5.753   3.479  13.021  0.00  0.00    +0.000 C 
ATOM     24  C   UNL     1       6.255   4.106  14.264  0.00  0.00    +0.000 A 
ATOM     25  C   UNL     1       7.205   5.144  14.396  0.00  0.00    +0.000 A 
ATOM     26  N   UNL     1       7.417   5.493  15.669  0.00  0.00    +0.000 NA
ATOM     27  N   UNL     1       6.611   4.660  16.367  0.00  0.00    +0.000 N 
ATOM     28  C   UNL     1       5.906   3.807  15.564  0.00  0.00    +0.000 A 
ENDBRANCH  22  27
ENDBRANCH  18  22
ENDBRANCH   1  20
TORSDOF 5
ENDMDL
MODEL 2
REMARK VINA RESULT:      -9.3      1.107      1.317
REMARK  Name = 
REMARK  6 active torsions:
REMARK  status: ('A' for Active; 'I' for Inactive)
REMARK    1  A    between atoms: C_1  and  C_2
REMARK    2  A    between atoms: N_5  and  C_6
REMARK    3  A    between atoms: C_6  and  C_7
REMARK    4  A    between atoms: N_9  and  C_10
REMARK    5  A    between atoms: C_10  and  C_11
REMARK    6  A    between atoms: C_14  and  C_15
REMARK                            x       y       z     vdW  Elec       q    Type
REMARK                         _______ _______ _______ _____ _____    ______ ____
ROOT
ATOM      1  C   UNL     1       3.264   4.863  18.430  0.00  0.00    +0.000 C 
ATOM      2  C   UNL     1       2.324   3.957  17.581  0.00  0.00    +0.000 C 
ATOM      3  C   UNL     1       2.311   2.504  18.088  0.00  0.00    +0.000 C 
ATOM      4  C   UNL     1       1.146   2.207  19.030  0.00  0.00    +0.000 C 
ATOM      5  C   UNL     1       1.079   3.003  20.337  0.00  0.00    +0.000 C 
ATOM      6  C   UNL     1       1.490   4.476  20.286  0.00  0.00    +0.000 C 
ATOM      7  C   UNL     1       2.979   4.660  19.945  0.00  0.00    +0.000 C 
ENDROOT
BRANCH   1   8
ATOM      8  C   UNL     1       3.108   6.344  18.082  0.00  0.00    +0.000 A 
ATOM      9  N   UNL     1       3.890   6.962  17.178  0.00  0.00    +0.000 NA
ATOM     10  O   UNL     1       3.395   8.260  17.141  0.00  0.00    +0.000 OA
ATOM     11  C   UNL     1       2.366   8.307  18.033  0.00  0.00    +0.000 A 
ATOM     12  N   UNL     1       2.158   7.163  18.648  0.00  0.00    +0.000 NA
BRANCH  11  13
ATOM     13  C   UNL     1       1.565   9.547  18.059  0.00  0.00    +0.000 C 
ATOM     14  C   UNL     1       0.789   9.727  19.345  0.00  0.00    +0.000 C 
ATOM     15  C   UNL     1       0.450  11.199  19.299  0.00  0.00    +0.000 C 
ATOM     16  O   UNL     1       1.530  11.849  18.615  0.00  0.00    +0.000 OA
ATOM     17  C   UNL     1       2.359  10.839  18.006  0.00  0.00    +0.000 C 
ENDBRANCH  11  13
ENDBRANCH   1   8
BRANCH   1  20
ATOM     18  C   UNL     1       5.827   4.863  18.548  0.00  0.00    +0.000 C 
ATOM     19  O   UNL     1       5.923   5.449  19.626  0.00  0.00    +0.000 OA
ATOM     20  N   UNL     1       4.638   4.471  18.005  0.00  0.00    +0.000 N 
ATOM     21  H   UNL     1       4.701   4.186  17.024  0.00  0.00    +0.000 HD
BRANCH  18  22
ATOM     22  C   UNL     1       7.073   4.578  17.725  0.00  0.00    +0.000 C 
BRANCH  22  27
ATOM     23  C   UNL     1       5.728   3.499  13.004  0.00  0.00    +0.000 C 
ATOM     24  C   UNL     1       6.317   4.122  14.211  0.00  0.00    +0.000 A 
ATOM     25  C   UNL     1       7.157   5.256  14.286  0.00  0.00    +0.000 A 
ATOM     26  N   UNL     1       7.494   5.568  15.541  0.00  0.00    +0.000 NA
ATOM     27  N   UNL     1       6.883   4.615  16.283  0.00  0.00    +0.000 N 
ATOM     28  C   UNL     1       6.176   3.723  15.523  0.00  0.00    +0.000 A 
ENDBRANCH  22  27
ENDBRANCH  18  22
ENDBRANCH   1  20
TORSDOF 5
ENDMDL
MODEL 3
REMARK VINA RESULT:      -9.3      1.654      2.419
REMARK  Name = 
REMARK  6 active torsions:
REMARK  status: ('A' for Active; 'I' for Inactive)
REMARK    1  A    between atoms: C_1  and  C_2
REMARK    2  A    between atoms: N_5  and  C_6
REMARK    3  A    between atoms: C_6  and  C_7
REMARK    4  A    between atoms: N_9  and  C_10
REMARK    5  A    between atoms: C_10  and  C_11
REMARK    6  A    between atoms: C_14  and  C_15
REMARK                            x       y       z     vdW  Elec       q    Type
REMARK                         _______ _______ _______ _____ _____    ______ ____
ROOT
ATOM      1  C   UNL     1       3.000   5.415  18.611  0.00  0.00    +0.000 C 
ATOM      2  C   UNL     1       2.088   4.498  17.743  0.00  0.00    +0.000 C 
ATOM      3  C   UNL     1       2.248   3.012  18.111  0.00  0.00    +0.000 C 
ATOM      4  C   UNL     1       1.188   2.521  19.095  0.00  0.00    +0.000 C 
ATOM      5  C   UNL     1       1.143   3.189  20.473  0.00  0.00    +0.000 C 
ATOM      6  C   UNL     1       1.410   4.695  20.532  0.00  0.00    +0.000 C 
ATOM      7  C   UNL     1       2.846   5.055  20.115  0.00  0.00    +0.000 C 
ENDROOT
BRANCH   1   8
ATOM      8  C   UNL     1       2.681   6.898  18.413  0.00  0.00    +0.000 A 
ATOM      9  N   UNL     1       3.115   7.596  17.348  0.00  0.00    +0.000 NA
ATOM     10  O   UNL     1       2.580   8.865  17.540  0.00  0.00    +0.000 OA
ATOM     11  C   UNL     1       1.881   8.816  18.708  0.00  0.00    +0.000 A 
ATOM     12  N   UNL     1       1.923   7.638  19.291  0.00  0.00    +0.000 NA
BRANCH  11  13
ATOM     13  C   UNL     1       1.078  10.006  19.051  0.00  0.00    +0.000 C 
ATOM     14  C   UNL     1      -0.238  10.071  18.307  0.00  0.00    +0.000 C 
ATOM     15  C   UNL     1      -1.013  11.070  19.135  0.00  0.00    +0.000 C 
ATOM     16  O   UNL     1      -0.571  10.914  20.490  0.00  0.00    +0.000 OA
ATOM     17  C   UNL     1       0.609  10.086  20.492  0.00  0.00    +0.000 C 
ENDBRANCH  11  13
ENDBRANCH   1   8
BRANCH   1  20
ATOM     18  C   UNL     1       5.379   4.455  18.600  0.00  0.00    +0.000 C 
ATOM     19  O   UNL     1       5.223   3.670  19.535  0.00  0.00    +0.000 OA
ATOM     20  N   UNL     1       4.369   5.200  18.063  0.00  0.00    +0.000 N 
ATOM     21  H   UNL     1       4.688   5.947  17.441  0.00  0.00    +0.000 HD
BRANCH  18  22
ATOM     22  C   UNL     1       6.764   4.669  18.011  0.00  0.00    +0.000 C 
BRANCH  22  27
ATOM     23  C   UNL     1       8.858   9.187  18.692  0.00  0.00    +0.000 C 
ATOM     24  C   UNL     1       8.061   8.048  18.184  0.00  0.00    +0.000 A 
ATOM     25  C   UNL     1       7.159   8.030  17.095  0.00  0.00    +0.000 A 
ATOM     26  N   UNL     1       6.621   6.824  16.889  0.00  0.00    +0.000 NA
ATOM     27  N   UNL     1       7.165   6.060  17.864  0.00  0.00    +0.000 N 
ATOM     28  C   UNL     1       8.025   6.757  18.667  0.00  0.00    +0.000 A 
ENDBRANCH  22  27
ENDBRANCH  18  22
ENDBRANCH   1  20
TORSDOF 5
ENDMDL
MODEL 4
REMARK VINA RESULT:      -9.1      0.985      1.102
REMARK  Name = 
REMARK  6 active torsions:
REMARK  status: ('A' for Active; 'I' for Inactive)
REMARK    1  A    between atoms: C_1  and  C_2
REMARK    2  A    between atoms: N_5  and  C_6
REMARK    3  A    between atoms: C_6  and  C_7
REMARK    4  A    between atoms: N_9  and  C_10
REMARK    5  A    between atoms: C_10  and  C_11
REMARK    6  A    between atoms: C_14  and  C_15
REMARK                            x       y       z     vdW  Elec       q    Type
REMARK                         _______ _______ _______ _____ _____    ______ ____
ROOT
ATOM      1  C   UNL     1       2.558   5.751  18.888  0.00  0.00    +0.000 C 
ATOM      2  C   UNL     1       1.554   5.043  17.931  0.00  0.00    +0.000 C 
ATOM      3  C   UNL     1       1.862   3.542  17.780  0.00  0.00    +0.000 C 
ATOM      4  C   UNL     1       1.032   2.663  18.713  0.00  0.00    +0.000 C 
ATOM      5  C   UNL     1       1.205   2.875  20.220  0.00  0.00    +0.000 C 
ATOM      6  C   UNL     1       1.394   4.313  20.710  0.00  0.00    +0.000 C 
ATOM      7  C   UNL     1       2.706   4.938  20.206  0.00  0.00    +0.000 C 
ENDROOT
BRANCH   1   8
ATOM      8  C   UNL     1       2.126   7.179  19.223  0.00  0.00    +0.000 A 
ATOM      9  N   UNL     1       1.962   8.126  18.281  0.00  0.00    +0.000 NA
ATOM     10  O   UNL     1       1.538   9.239  18.997  0.00  0.00    +0.000 OA
ATOM     11  C   UNL     1       1.495   8.863  20.306  0.00  0.00    +0.000 A 
ATOM     12  N   UNL     1       1.860   7.615  20.501  0.00  0.00    +0.000 NA
BRANCH  11  13
ATOM     13  C   UNL     1       0.913   9.831  21.257  0.00  0.00    +0.000 C 
ATOM     14  C   UNL     1      -0.373  10.454  20.760  0.00  0.00    +0.000 C 
ATOM     15  C   UNL     1      -0.959  11.014  22.034  0.00  0.00    +0.000 C 
ATOM     16  O   UNL     1      -0.547  10.142  23.096  0.00  0.00    +0.000 OA
ATOM     17  C   UNL     1       0.470   9.255  22.589  0.00  0.00    +0.000 C 
ENDBRANCH  11  13
ENDBRANCH   1   8
BRANCH   1  20
ATOM     18  C   UNL     1       4.955   5.129  18.218  0.00  0.00    +0.000 C 
ATOM     19  O   UNL     1       5.034   4.103  18.894  0.00  0.00    +0.000 OA
ATOM     20  N   UNL     1       3.812   5.864  18.091  0.00  0.00    +0.000 N 
ATOM     21  H   UNL     1       3.954   6.787  17.673  0.00  0.00    +0.000 HD
BRANCH  18  22
ATOM     22  C   UNL     1       6.186   5.664  17.505  0.00  0.00    +0.000 C 
BRANCH  22  27
ATOM     23  C   UNL     1       5.500   3.494  13.023  0.00  0.00    +0.000 C 
ATOM     24  C   UNL     1       6.048   4.253  14.170  0.00  0.00    +0.000 A 
ATOM     25  C   UNL     1       7.281   4.938  14.254  0.00  0.00    +0.000 A 
ATOM     26  N   UNL     1       7.458   5.544  15.432  0.00  0.00    +0.000 NA
ATOM     27  N   UNL     1       6.337   5.232  16.123  0.00  0.00    +0.000 N 
ATOM     28  C   UNL     1       5.471   4.452  15.407  0.00  0.00    +0.000 A 
ENDBRANCH  22  27
ENDBRANCH  18  22
ENDBRANCH   1  20
TORSDOF 5
ENDMDL
MODEL 5
REMARK VINA RESULT:      -9.0      1.909      2.744
REMARK  Name = 
REMARK  6 active torsions:
REMARK  status: ('A' for Active; 'I' for Inactive)
REMARK    1  A    between atoms: C_1  and  C_2
REMARK    2  A    between atoms: N_5  and  C_6
REMARK    3  A    between atoms: C_6  and  C_7
REMARK    4  A    between atoms: N_9  and  C_10
REMARK    5  A    between atoms: C_10  and  C_11
REMARK    6  A    between atoms: C_14  and  C_15
REMARK                            x       y       z     vdW  Elec       q    Type
REMARK                         _______ _______ _______ _____ _____    ______ ____
ROOT
ATOM      1  C   UNL     1       2.650   5.179  18.871  0.00  0.00    +0.000 C 
ATOM      2  C   UNL     1       1.528   4.460  18.065  0.00  0.00    +0.000 C 
ATOM      3  C   UNL     1       1.807   2.955  17.906  0.00  0.00    +0.000 C 
ATOM      4  C   UNL     1       1.100   2.099  18.955  0.00  0.00    +0.000 C 
ATOM      5  C   UNL     1       1.467   2.339  20.422  0.00  0.00    +0.000 C 
ATOM      6  C   UNL     1       1.724   3.784  20.855  0.00  0.00    +0.000 C 
ATOM      7  C   UNL     1       2.963   4.391  20.175  0.00  0.00    +0.000 C 
ENDROOT
BRANCH   1   8
ATOM      8  C   UNL     1       2.271   6.617  19.230  0.00  0.00    +0.000 A 
ATOM      9  N   UNL     1       2.287   7.616  18.330  0.00  0.00    +0.000 NA
ATOM     10  O   UNL     1       1.848   8.721  19.050  0.00  0.00    +0.000 OA
ATOM     11  C   UNL     1       1.617   8.287  20.321  0.00  0.00    +0.000 A 
ATOM     12  N   UNL     1       1.875   7.008  20.489  0.00  0.00    +0.000 NA
BRANCH  11  13
ATOM     13  C   UNL     1       0.984   9.247  21.246  0.00  0.00    +0.000 C 
ATOM     14  C   UNL     1      -0.440   8.880  21.602  0.00  0.00    +0.000 C 
ATOM     15  C   UNL     1      -0.676   9.714  22.839  0.00  0.00    +0.000 C 
ATOM     16  O   UNL     1       0.588   9.823  23.509  0.00  0.00    +0.000 OA
ATOM     17  C   UNL     1       1.618   9.347  22.621  0.00  0.00    +0.000 C 
ENDBRANCH  11  13
ENDBRANCH   1   8
BRANCH   1  20
ATOM     18  C   UNL     1       4.951   4.549  17.929  0.00  0.00    +0.000 C 
ATOM     19  O   UNL     1       5.129   3.554  18.631  0.00  0.00    +0.000 OA
ATOM     20  N   UNL     1       3.791   5.268  17.917  0.00  0.00    +0.000 N 
ATOM     21  H   UNL     1       3.867   6.173  17.446  0.00  0.00    +0.000 HD
BRANCH  18  22
ATOM     22  C   UNL     1       6.075   5.063  17.043  0.00  0.00    +0.000 C 
BRANCH  22  27
ATOM     23  C   UNL     1       8.352   9.444  17.984  0.00  0.00    +0.000 C 
ATOM     24  C   UNL     1       7.910   8.032  18.018  0.00  0.00    +0.000 A 
ATOM     25  C   UNL     1       8.342   7.003  18.885  0.00  0.00    +0.000 A 
ATOM     26  N   UNL     1       7.719   5.841  18.661  0.00  0.00    +0.000 NA
ATOM     27  N   UNL     1       6.890   6.118  17.628  0.00  0.00    +0.000 N 
ATOM     28  C   UNL     1       6.981   7.416  17.206  0.00  0.00    +0.000 A 
ENDBRANCH  22  27
ENDBRANCH  18  22
ENDBRANCH   1  20
TORSDOF 5
ENDMDL
MODEL 6
REMARK VINA RESULT:      -8.9      1.914      7.278
REMARK  Name = 
REMARK  6 active torsions:
REMARK  status: ('A' for Active; 'I' for Inactive)
REMARK    1  A    between atoms: C_1  and  C_2
REMARK    2  A    between atoms: N_5  and  C_6
REMARK    3  A    between atoms: C_6  and  C_7
REMARK    4  A    between atoms: N_9  and  C_10
REMARK    5  A    between atoms: C_10  and  C_11
REMARK    6  A    between atoms: C_14  and  C_15
REMARK                            x       y       z     vdW  Elec       q    Type
REMARK                         _______ _______ _______ _____ _____    ______ ____
ROOT
ATOM      1  C   UNL     1       3.000   4.713  18.345  0.00  0.00    +0.000 C 
ATOM      2  C   UNL     1       3.228   4.835  19.881  0.00  0.00    +0.000 C 
ATOM      3  C   UNL     1       1.905   4.772  20.666  0.00  0.00    +0.000 C 
ATOM      4  C   UNL     1       1.587   3.373  21.191  0.00  0.00    +0.000 C 
ATOM      5  C   UNL     1       1.398   2.259  20.157  0.00  0.00    +0.000 C 
ATOM      6  C   UNL     1       2.311   2.279  18.929  0.00  0.00    +0.000 C 
ATOM      7  C   UNL     1       2.068   3.507  18.035  0.00  0.00    +0.000 C 
ENDROOT
BRANCH   1   8
ATOM      8  C   UNL     1       4.313   4.543  17.579  0.00  0.00    +0.000 A 
ATOM      9  N   UNL     1       5.507   4.467  18.195  0.00  0.00    +0.000 NA
ATOM     10  O   UNL     1       6.409   4.282  17.154  0.00  0.00    +0.000 OA
ATOM     11  C   UNL     1       5.676   4.273  16.006  0.00  0.00    +0.000 A 
ATOM     12  N   UNL     1       4.388   4.444  16.208  0.00  0.00    +0.000 NA
BRANCH  11  13
ATOM     13  C   UNL     1       6.394   3.926  14.763  0.00  0.00    +0.000 C 
ATOM     14  C   UNL     1       5.468   3.637  13.602  0.00  0.00    +0.000 C 
ATOM     15  C   UNL     1       6.403   3.760  12.421  0.00  0.00    +0.000 C 
ATOM     16  O   UNL     1       7.383   4.747  12.773  0.00  0.00    +0.000 OA
ATOM     17  C   UNL     1       7.266   5.024  14.182  0.00  0.00    +0.000 C 
ENDBRANCH  11  13
ENDBRANCH   1   8
BRANCH   1  20
ATOM     18  C   UNL     1       3.096   7.236  17.893  0.00  0.00    +0.000 C 
ATOM     19  O   UNL     1       4.319   7.352  17.972  0.00  0.00    +0.000 OA
ATOM     20  N   UNL     1       2.446   6.037  17.947  0.00  0.00    +0.000 N 
ATOM     21  H   UNL     1       1.434   6.117  18.075  0.00  0.00    +0.000 HD
BRANCH  18  22
ATOM     22  C   UNL     1       2.223   8.474  17.772  0.00  0.00    +0.000 C 
BRANCH  22  27
ATOM     23  C   UNL     1      -0.499  10.955  21.192  0.00  0.00    +0.000 C 
ATOM     24  C   UNL     1       0.378   9.983  20.501  0.00  0.00    +0.000 A 
ATOM     25  C   UNL     1       1.029   8.854  21.047  0.00  0.00    +0.000 A 
ATOM     26  N   UNL     1       1.731   8.171  20.137  0.00  0.00    +0.000 NA
ATOM     27  N   UNL     1       1.547   8.876  18.996  0.00  0.00    +0.000 N 
ATOM     28  C   UNL     1       0.751   9.975  19.174  0.00  0.00    +0.000 A 
ENDBRANCH  22  27
ENDBRANCH  18  22
ENDBRANCH   1  20
TORSDOF 5
ENDMDL
MODEL 7
REMARK VINA RESULT:      -8.9      1.017      1.416
REMARK  Name = 
REMARK  6 active torsions:
REMARK  status: ('A' for Active; 'I' for Inactive)
REMARK    1  A    between atoms: C_1  and  C_2
REMARK    2  A    between atoms: N_5  and  C_6
REMARK    3  A    between atoms: C_6  and  C_7
REMARK    4  A    between atoms: N_9  and  C_10
REMARK    5  A    between atoms: C_10  and  C_11
REMARK    6  A    between atoms: C_14  and  C_15
REMARK                            x       y       z     vdW  Elec       q    Type
REMARK                         _______ _______ _______ _____ _____    ______ ____
ROOT
ATOM      1  C   UNL     1       2.712   5.318  19.007  0.00  0.00    +0.000 C 
ATOM      2  C   UNL     1       1.735   4.524  18.088  0.00  0.00    +0.000 C 
ATOM      3  C   UNL     1       2.043   3.016  18.087  0.00  0.00    +0.000 C 
ATOM      4  C   UNL     1       1.182   2.227  19.072  0.00  0.00    +0.000 C 
ATOM      5  C   UNL     1       1.310   2.578  20.557  0.00  0.00    +0.000 C 
ATOM      6  C   UNL     1       1.488   4.055  20.917  0.00  0.00    +0.000 C 
ATOM      7  C   UNL     1       2.816   4.631  20.398  0.00  0.00    +0.000 C 
ENDROOT
BRANCH   1   8
ATOM      8  C   UNL     1       2.274   6.771  19.194  0.00  0.00    +0.000 A 
ATOM      9  N   UNL     1       2.578   7.739  18.310  0.00  0.00    +0.000 NA
ATOM     10  O   UNL     1       1.969   8.873  18.834  0.00  0.00    +0.000 OA
ATOM     11  C   UNL     1       1.362   8.485  19.990  0.00  0.00    +0.000 A 
ATOM     12  N   UNL     1       1.530   7.211  20.265  0.00  0.00    +0.000 NA
BRANCH  11  13
ATOM     13  C   UNL     1       0.502   9.485  20.656  0.00  0.00    +0.000 C 
ATOM     14  C   UNL     1       0.095   9.081  22.056  0.00  0.00    +0.000 C 
ATOM     15  C   UNL     1      -0.360  10.398  22.639  0.00  0.00    +0.000 C 
ATOM     16  O   UNL     1       0.437  11.419  22.022  0.00  0.00    +0.000 OA
ATOM     17  C   UNL     1       1.146  10.835  20.911  0.00  0.00    +0.000 C 
ENDBRANCH  11  13
ENDBRANCH   1   8
BRANCH   1  20
ATOM     18  C   UNL     1       5.158   4.711  18.529  0.00  0.00    +0.000 C 
ATOM     19  O   UNL     1       5.255   3.821  19.373  0.00  0.00    +0.000 OA
ATOM     20  N   UNL     1       3.990   5.356  18.241  0.00  0.00    +0.000 N 
ATOM     21  H   UNL     1       4.108   6.200  17.676  0.00  0.00    +0.000 HD
BRANCH  18  22
ATOM     22  C   UNL     1       6.392   5.178  17.773  0.00  0.00    +0.000 C 
BRANCH  22  27
ATOM     23  C   UNL     1       7.588   4.920  12.898  0.00  0.00    +0.000 C 
ATOM     24  C   UNL     1       6.896   4.818  14.203  0.00  0.00    +0.000 A 
ATOM     25  C   UNL     1       5.611   4.295  14.471  0.00  0.00    +0.000 A 
ATOM     26  N   UNL     1       5.297   4.333  15.770  0.00  0.00    +0.000 NA
ATOM     27  N   UNL     1       6.382   4.902  16.344  0.00  0.00    +0.000 N 
ATOM     28  C   UNL     1       7.358   5.217  15.439  0.00  0.00    +0.000 A 
ENDBRANCH  22  27
ENDBRANCH  18  22
ENDBRANCH   1  20
TORSDOF 5
ENDMDL
MODEL 8
REMARK VINA RESULT:      -8.9      1.166      1.514
REMARK  Name = 
REMARK  6 active torsions:
REMARK  status: ('A' for Active; 'I' for Inactive)
REMARK    1  A    between atoms: C_1  and  C_2
REMARK    2  A    between atoms: N_5  and  C_6
REMARK    3  A    between atoms: C_6  and  C_7
REMARK    4  A    between atoms: N_9  and  C_10
REMARK    5  A    between atoms: C_10  and  C_11
REMARK    6  A    between atoms: C_14  and  C_15
REMARK                            x       y       z     vdW  Elec       q    Type
REMARK                         _______ _______ _______ _____ _____    ______ ____
ROOT
ATOM      1  C   UNL     1       2.695   5.399  18.859  0.00  0.00    +0.000 C 
ATOM      2  C   UNL     1       1.766   4.627  17.875  0.00  0.00    +0.000 C 
ATOM      3  C   UNL     1       2.101   3.125  17.825  0.00  0.00    +0.000 C 
ATOM      4  C   UNL     1       1.219   2.284  18.746  0.00  0.00    +0.000 C 
ATOM      5  C   UNL     1       1.288   2.577  20.247  0.00  0.00    +0.000 C 
ATOM      6  C   UNL     1       1.428   4.041  20.672  0.00  0.00    +0.000 C 
ATOM      7  C   UNL     1       2.763   4.659  20.225  0.00  0.00    +0.000 C 
ENDROOT
BRANCH   1   8
ATOM      8  C   UNL     1       2.225   6.836  19.088  0.00  0.00    +0.000 A 
ATOM      9  N   UNL     1       2.095   7.368  20.317  0.00  0.00    +0.000 NA
ATOM     10  O   UNL     1       1.691   8.676  20.074  0.00  0.00    +0.000 OA
ATOM     11  C   UNL     1       1.607   8.808  18.720  0.00  0.00    +0.000 A 
ATOM     12  N   UNL     1       1.910   7.706  18.070  0.00  0.00    +0.000 NA
BRANCH  11  13
ATOM     13  C   UNL     1       1.351  10.166  18.201  0.00  0.00    +0.000 C 
ATOM     14  C   UNL     1       0.509  11.011  19.131  0.00  0.00    +0.000 C 
ATOM     15  C   UNL     1       0.773  12.404  18.611  0.00  0.00    +0.000 C 
ATOM     16  O   UNL     1       2.114  12.407  18.102  0.00  0.00    +0.000 OA
ATOM     17  C   UNL     1       2.577  11.044  18.030  0.00  0.00    +0.000 C 
ENDBRANCH  11  13
ENDBRANCH   1   8
BRANCH   1  20
ATOM     18  C   UNL     1       5.134   4.768  18.375  0.00  0.00    +0.000 C 
ATOM     19  O   UNL     1       5.172   3.771  19.095  0.00  0.00    +0.000 OA
ATOM     20  N   UNL     1       3.999   5.489  18.142  0.00  0.00    +0.000 N 
ATOM     21  H   UNL     1       4.164   6.396  17.698  0.00  0.00    +0.000 HD
BRANCH  18  22
ATOM     22  C   UNL     1       6.407   5.283  17.723  0.00  0.00    +0.000 C 
BRANCH  22  27
ATOM     23  C   UNL     1       5.766   3.499  13.068  0.00  0.00    +0.000 C 
ATOM     24  C   UNL     1       6.246   4.239  14.257  0.00  0.00    +0.000 A 
ATOM     25  C   UNL     1       7.300   5.177  14.334  0.00  0.00    +0.000 A 
ATOM     26  N   UNL     1       7.458   5.679  15.563  0.00  0.00    +0.000 NA
ATOM     27  N   UNL     1       6.509   5.046  16.291  0.00  0.00    +0.000 N 
ATOM     28  C   UNL     1       5.768   4.167  15.548  0.00  0.00    +0.000 A 
ENDBRANCH  22  27
ENDBRANCH  18  22
ENDBRANCH   1  20
TORSDOF 5
ENDMDL
MODEL 9
REMARK VINA RESULT:      -8.7      1.660      2.422
REMARK  Name = 
REMARK  6 active torsions:
REMARK  status: ('A' for Active; 'I' for Inactive)
REMARK    1  A    between atoms: C_1  and  C_2
REMARK    2  A    between atoms: N_5  and  C_6
REMARK    3  A    between atoms: C_6  and  C_7
REMARK    4  A    between atoms: N_9  and  C_10
REMARK    5  A    between atoms: C_10  and  C_11
REMARK    6  A    between atoms: C_14  and  C_15
REMARK                            x       y       z     vdW  Elec       q    Type
REMARK                         _______ _______ _______ _____ _____    ______ ____
ROOT
ATOM      1  C   UNL     1       2.769   5.355  18.677  0.00  0.00    +0.000 C 
ATOM      2  C   UNL     1       1.747   4.553  17.818  0.00  0.00    +0.000 C 
ATOM      3  C   UNL     1       1.902   3.034  18.008  0.00  0.00    +0.000 C 
ATOM      4  C   UNL     1       0.935   2.457  19.040  0.00  0.00    +0.000 C 
ATOM      5  C   UNL     1       1.051   2.972  20.478  0.00  0.00    +0.000 C 
ATOM      6  C   UNL     1       1.366   4.458  20.668  0.00  0.00    +0.000 C 
ATOM      7  C   UNL     1       2.761   4.836  20.143  0.00  0.00    +0.000 C 
ENDROOT
BRANCH   1   8
ATOM      8  C   UNL     1       2.474   6.856  18.673  0.00  0.00    +0.000 A 
ATOM      9  N   UNL     1       2.735   7.642  17.612  0.00  0.00    +0.000 NA
ATOM     10  O   UNL     1       2.289   8.897  18.010  0.00  0.00    +0.000 OA
ATOM     11  C   UNL     1       1.809   8.753  19.277  0.00  0.00    +0.000 A 
ATOM     12  N   UNL     1       1.913   7.525  19.736  0.00  0.00    +0.000 NA
BRANCH  11  13
ATOM     13  C   UNL     1       1.125   9.921  19.865  0.00  0.00    +0.000 C 
ATOM     14  C   UNL     1       1.099  11.121  18.944  0.00  0.00    +0.000 C 
ATOM     15  C   UNL     1       0.008  11.964  19.563  0.00  0.00    +0.000 C 
ATOM     16  O   UNL     1      -0.937  11.054  20.143  0.00  0.00    +0.000 OA
ATOM     17  C   UNL     1      -0.353   9.737  20.155  0.00  0.00    +0.000 C 
ENDBRANCH  11  13
ENDBRANCH   1   8
BRANCH   1  20
ATOM     18  C   UNL     1       5.123   4.394  18.336  0.00  0.00    +0.000 C 
ATOM     19  O   UNL     1       5.062   3.543  19.224  0.00  0.00    +0.000 OA
ATOM     20  N   UNL     1       4.068   5.177  17.968  0.00  0.00    +0.000 N 
ATOM     21  H   UNL     1       4.324   5.967  17.370  0.00  0.00    +0.000 HD
BRANCH  18  22
ATOM     22  C   UNL     1       6.437   4.646  17.615  0.00  0.00    +0.000 C 
BRANCH  22  27
ATOM     23  C   UNL     1       8.186   9.358  17.688  0.00  0.00    +0.000 C 
ATOM     24  C   UNL     1       7.906   7.937  17.994  0.00  0.00    +0.000 A 
ATOM     25  C   UNL     1       8.438   7.149  19.039  0.00  0.00    +0.000 A 
ATOM     26  N   UNL     1       7.955   5.902  19.045  0.00  0.00    +0.000 NA
ATOM     27  N   UNL     1       7.117   5.880  17.983  0.00  0.00    +0.000 N 
ATOM     28  C   UNL     1       7.067   7.075  17.320  0.00  0.00    +0.000 A 
ENDBRANCH  22  27
ENDBRANCH  18  22
ENDBRANCH   1  20
TORSDOF 5
ENDMDL
