MODEL 1
REMARK VINA RESULT:      -8.4      0.000      0.000
REMARK  Name = 
REMARK  12 active torsions:
REMARK  status: ('A' for Active; 'I' for Inactive)
REMARK    1  A    between atoms: C_1  and  O_2
REMARK    2  A    between atoms: O_2  and  C_3
REMARK    3  A    between atoms: C_4  and  C_5
REMARK    4  A    between atoms: C_4  and  C_9
REMARK    5  A    between atoms: C_5  and  O_7
REMARK    6  A    between atoms: O_7  and  C_8
REMARK    7  A    between atoms: C_14  and  C_15
REMARK    8  A    between atoms: C_15  and  O_16
REMARK    9  A    between atoms: O_16  and  C_17
REMARK   10  A    between atoms: C_21  and  C_22
REMARK   11  A    between atoms: C_22  and  C_24
REMARK   12  A    between atoms: C_25  and  C_26
REMARK                            x       y       z     vdW  Elec       q    Type
REMARK                         _______ _______ _______ _____ _____    ______ ____
ROOT
ATOM      1  C   UNL     1       2.190   5.894  20.149  0.00  0.00    +0.000 A 
ATOM      2  C   UNL     1       1.369   4.764  20.102  0.00  0.00    +0.000 A 
ATOM      3  C   UNL     1       1.771   3.620  19.413  0.00  0.00    +0.000 A 
ATOM      4  C   UNL     1       3.020   3.587  18.798  0.00  0.00    +0.000 A 
ATOM      5  C   UNL     1       3.875   4.693  18.880  0.00  0.00    +0.000 A 
ATOM      6  C   UNL     1       3.445   5.860  19.533  0.00  0.00    +0.000 A 
ENDROOT
BRANCH   5   7
ATOM      7  C   UNL     1       5.230   4.561  18.271  0.00  0.00    +0.000 C 
ATOM      8  O   UNL     1       6.228   4.550  18.985  0.00  0.00    +0.000 OA
BRANCH   7   9
ATOM      9  C   UNL     1       5.320   4.523  16.784  0.00  0.00    +0.000 C 
ATOM     10  C   UNL     1       6.515   4.402  16.178  0.00  0.00    +0.000 C 
BRANCH  10  11
ATOM     11  C   UNL     1       6.680   4.379  14.715  0.00  0.00    +0.000 A 
ATOM     12  C   UNL     1       7.661   5.184  14.120  0.00  0.00    +0.000 A 
ATOM     13  C   UNL     1       7.849   5.178  12.733  0.00  0.00    +0.000 A 
ATOM     14  C   UNL     1       7.061   4.356  11.927  0.00  0.00    +0.000 A 
ATOM     15  C   UNL     1       6.099   3.539  12.513  0.00  0.00    +0.000 A 
ATOM     16 CL   UNL     1       5.124   2.518  11.527  0.00  0.00    +0.000 Cl
ATOM     17  C   UNL     1       5.914   3.539  13.896  0.00  0.00    +0.000 A 
ENDBRANCH  10  11
ENDBRANCH   7   9
ENDBRANCH   5   7
BRANCH   1  18
ATOM     18  O   UNL     1       1.688   6.930  20.890  0.00  0.00    +0.000 OA
BRANCH  18  19
ATOM     19  C   UNL     1       1.387   8.169  20.233  0.00  0.00    +0.000 C 
BRANCH  19  25
ATOM     20  C   UNL     1       0.074  10.347  20.495  0.00  0.00    +0.000 A 
ATOM     21  C   UNL     1      -0.640  11.251  21.301  0.00  0.00    +0.000 A 
ATOM     22  C   UNL     1      -0.860  10.988  22.651  0.00  0.00    +0.000 A 
ATOM     23  C   UNL     1      -0.393   9.804  23.207  0.00  0.00    +0.000 A 
ATOM     24  C   UNL     1       0.299   8.887  22.415  0.00  0.00    +0.000 A 
ATOM     25  C   UNL     1       0.570   9.148  21.059  0.00  0.00    +0.000 A 
BRANCH  20  27
ATOM     26  C   UNL     1      -0.716  10.446  18.174  0.00  0.00    +0.000 C 
ATOM     27  C   UNL     1       0.248  10.715  19.073  0.00  0.00    +0.000 C 
BRANCH  26  29
ATOM     28  C   UNL     1      -2.937  10.047  17.574  0.00  0.00    +0.000 C 
ATOM     29  O   UNL     1      -1.882   9.799  18.499  0.00  0.00    +0.000 OA
ENDBRANCH  26  29
BRANCH  27  30
ATOM     30  C   UNL     1       1.446  11.460  18.588  0.00  0.00    +0.000 C 
ATOM     31  O   UNL     1       2.397  10.946  18.014  0.00  0.00    +0.000 OA
BRANCH  30  32
ATOM     32  O   UNL     1       1.328  12.779  18.892  0.00  0.00    +0.000 OA
ATOM     33  C   UNL     1       2.236  13.238  19.894  0.00  0.00    +0.000 C 
ENDBRANCH  30  32
ENDBRANCH  27  30
ENDBRANCH  20  27
ENDBRANCH  19  25
ENDBRANCH  18  19
ENDBRANCH   1  18
TORSDOF 10
ENDMDL
MODEL 2
REMARK VINA RESULT:      -8.3      4.009     10.385
REMARK  Name = 
REMARK  12 active torsions:
REMARK  status: ('A' for Active; 'I' for Inactive)
REMARK    1  A    between atoms: C_1  and  O_2
REMARK    2  A    between atoms: O_2  and  C_3
REMARK    3  A    between atoms: C_4  and  C_5
REMARK    4  A    between atoms: C_4  and  C_9
REMARK    5  A    between atoms: C_5  and  O_7
REMARK    6  A    between atoms: O_7  and  C_8
REMARK    7  A    between atoms: C_14  and  C_15
REMARK    8  A    between atoms: C_15  and  O_16
REMARK    9  A    between atoms: O_16  and  C_17
REMARK   10  A    between atoms: C_21  and  C_22
REMARK   11  A    between atoms: C_22  and  C_24
REMARK   12  A    between atoms: C_25  and  C_26
REMARK                            x       y       z     vdW  Elec       q    Type
REMARK                         _______ _______ _______ _____ _____    ______ ____
ROOT
ATOM      1  C   UNL     1       1.704   8.775  18.517  0.00  0.00    +0.000 A 
ATOM      2  C   UNL     1       1.610   8.277  19.819  0.00  0.00    +0.000 A 
ATOM      3  C   UNL     1       1.004   9.029  20.826  0.00  0.00    +0.000 A 
ATOM      4  C   UNL     1       0.450  10.271  20.523  0.00  0.00    +0.000 A 
ATOM      5  C   UNL     1       0.491  10.759  19.211  0.00  0.00    +0.000 A 
ATOM      6  C   UNL     1       1.147  10.021  18.212  0.00  0.00    +0.000 A 
ENDROOT
BRANCH   5   7
ATOM      7  C   UNL     1      -0.192  12.057  18.939  0.00  0.00    +0.000 C 
ATOM      8  O   UNL     1       0.448  13.013  18.513  0.00  0.00    +0.000 OA
BRANCH   7   9
ATOM      9  C   UNL     1      -1.640  12.160  19.275  0.00  0.00    +0.000 C 
ATOM     10  C   UNL     1      -2.569  11.649  18.447  0.00  0.00    +0.000 C 
BRANCH  10  11
ATOM     11  C   UNL     1      -4.016  11.734  18.705  0.00  0.00    +0.000 A 
ATOM     12  C   UNL     1      -4.905  11.049  17.864  0.00  0.00    +0.000 A 
ATOM     13  C   UNL     1      -6.287  11.102  18.088  0.00  0.00    +0.000 A 
ATOM     14  C   UNL     1      -6.791  11.835  19.163  0.00  0.00    +0.000 A 
ATOM     15  C   UNL     1      -5.911  12.499  20.013  0.00  0.00    +0.000 A 
ATOM     16 CL   UNL     1      -6.523  13.401  21.346  0.00  0.00    +0.000 Cl
ATOM     17  C   UNL     1      -4.534  12.443  19.796  0.00  0.00    +0.000 A 
ENDBRANCH  10  11
ENDBRANCH   7   9
ENDBRANCH   5   7
BRANCH   1  18
ATOM     18  O   UNL     1       2.288   7.919  17.623  0.00  0.00    +0.000 OA
BRANCH  18  19
ATOM     19  C   UNL     1       3.414   7.136  18.048  0.00  0.00    +0.000 C 
BRANCH  19  25
ATOM     20  C   UNL     1       4.259   4.857  17.256  0.00  0.00    +0.000 A 
ATOM     21  C   UNL     1       4.055   3.479  17.070  0.00  0.00    +0.000 A 
ATOM     22  C   UNL     1       2.871   2.867  17.476  0.00  0.00    +0.000 A 
ATOM     23  C   UNL     1       1.886   3.622  18.100  0.00  0.00    +0.000 A 
ATOM     24  C   UNL     1       2.081   4.987  18.310  0.00  0.00    +0.000 A 
ATOM     25  C   UNL     1       3.251   5.636  17.873  0.00  0.00    +0.000 A 
BRANCH  20  27
ATOM     26  C   UNL     1       6.634   5.373  17.596  0.00  0.00    +0.000 C 
ATOM     27  C   UNL     1       5.552   5.408  16.796  0.00  0.00    +0.000 C 
BRANCH  26  29
ATOM     28  C   UNL     1       7.538   5.495  19.745  0.00  0.00    +0.000 C 
ATOM     29  O   UNL     1       6.604   4.867  18.871  0.00  0.00    +0.000 OA
ENDBRANCH  26  29
BRANCH  27  30
ATOM     30  C   UNL     1       5.739   5.950  15.418  0.00  0.00    +0.000 C 
ATOM     31  O   UNL     1       5.100   6.881  14.948  0.00  0.00    +0.000 OA
BRANCH  30  32
ATOM     32  O   UNL     1       6.704   5.248  14.770  0.00  0.00    +0.000 OA
ATOM     33  C   UNL     1       6.233   4.082  14.092  0.00  0.00    +0.000 C 
ENDBRANCH  30  32
ENDBRANCH  27  30
ENDBRANCH  20  27
ENDBRANCH  19  25
ENDBRANCH  18  19
ENDBRANCH   1  18
TORSDOF 10
ENDMDL
MODEL 3
REMARK VINA RESULT:      -8.2      3.536      9.532
REMARK  Name = 
REMARK  12 active torsions:
REMARK  status: ('A' for Active; 'I' for Inactive)
REMARK    1  A    between atoms: C_1  and  O_2
REMARK    2  A    between atoms: O_2  and  C_3
REMARK    3  A    between atoms: C_4  and  C_5
REMARK    4  A    between atoms: C_4  and  C_9
REMARK    5  A    between atoms: C_5  and  O_7
REMARK    6  A    between atoms: O_7  and  C_8
REMARK    7  A    between atoms: C_14  and  C_15
REMARK    8  A    between atoms: C_15  and  O_16
REMARK    9  A    between atoms: O_16  and  C_17
REMARK   10  A    between atoms: C_21  and  C_22
REMARK   11  A    between atoms: C_22  and  C_24
REMARK   12  A    between atoms: C_25  and  C_26
REMARK                            x       y       z     vdW  Elec       q    Type
REMARK                         _______ _______ _______ _____ _____    ______ ____
ROOT
ATOM      1  C   UNL     1       2.604   7.024  18.706  0.00  0.00    +0.000 A 
ATOM      2  C   UNL     1       2.377   6.261  19.855  0.00  0.00    +0.000 A 
ATOM      3  C   UNL     1       1.689   6.800  20.942  0.00  0.00    +0.000 A 
ATOM      4  C   UNL     1       1.187   8.098  20.868  0.00  0.00    +0.000 A 
ATOM      5  C   UNL     1       1.362   8.855  19.703  0.00  0.00    +0.000 A 
ATOM      6  C   UNL     1       2.099   8.325  18.631  0.00  0.00    +0.000 A 
ENDROOT
BRANCH   5   7
ATOM      7  C   UNL     1       0.729  10.205  19.659  0.00  0.00    +0.000 C 
ATOM      8  O   UNL     1       0.937  11.012  20.559  0.00  0.00    +0.000 OA
BRANCH   7   9
ATOM      9  C   UNL     1      -0.207  10.494  18.537  0.00  0.00    +0.000 C 
ATOM     10  C   UNL     1      -1.536  10.515  18.748  0.00  0.00    +0.000 C 
BRANCH  10  11
ATOM     11  C   UNL     1      -2.519  10.773  17.682  0.00  0.00    +0.000 A 
ATOM     12  C   UNL     1      -2.242  10.351  16.374  0.00  0.00    +0.000 A 
ATOM     13  C   UNL     1      -3.159  10.573  15.340  0.00  0.00    +0.000 A 
ATOM     14  C   UNL     1      -4.369  11.213  15.608  0.00  0.00    +0.000 A 
ATOM     15  C   UNL     1      -4.659  11.616  16.908  0.00  0.00    +0.000 A 
ATOM     16 CL   UNL     1      -6.152  12.402  17.250  0.00  0.00    +0.000 Cl
ATOM     17  C   UNL     1      -3.749  11.390  17.941  0.00  0.00    +0.000 A 
ENDBRANCH  10  11
ENDBRANCH   7   9
ENDBRANCH   5   7
BRANCH   1  18
ATOM     18  O   UNL     1       3.258   6.358  17.704  0.00  0.00    +0.000 OA
BRANCH  18  19
ATOM     19  C   UNL     1       4.389   6.984  17.080  0.00  0.00    +0.000 C 
BRANCH  19  25
ATOM     20  C   UNL     1       6.600   5.713  16.907  0.00  0.00    +0.000 A 
ATOM     21  C   UNL     1       7.465   4.863  16.196  0.00  0.00    +0.000 A 
ATOM     22  C   UNL     1       7.096   4.335  14.960  0.00  0.00    +0.000 A 
ATOM     23  C   UNL     1       5.845   4.627  14.433  0.00  0.00    +0.000 A 
ATOM     24  C   UNL     1       4.967   5.453  15.135  0.00  0.00    +0.000 A 
ATOM     25  C   UNL     1       5.331   6.031  16.365  0.00  0.00    +0.000 A 
BRANCH  20  27
ATOM     26  C   UNL     1       7.691   7.411  18.302  0.00  0.00    +0.000 C 
ATOM     27  C   UNL     1       7.082   6.215  18.211  0.00  0.00    +0.000 C 
BRANCH  26  29
ATOM     28  C   UNL     1       8.203   9.566  17.563  0.00  0.00    +0.000 C 
ATOM     29  O   UNL     1       7.929   8.212  17.213  0.00  0.00    +0.000 OA
ENDBRANCH  26  29
BRANCH  27  30
ATOM     30  C   UNL     1       6.853   5.467  19.483  0.00  0.00    +0.000 C 
ATOM     31  O   UNL     1       7.735   5.148  20.268  0.00  0.00    +0.000 OA
BRANCH  30  32
ATOM     32  O   UNL     1       5.531   5.185  19.623  0.00  0.00    +0.000 OA
ATOM     33  C   UNL     1       5.188   3.821  19.375  0.00  0.00    +0.000 C 
ENDBRANCH  30  32
ENDBRANCH  27  30
ENDBRANCH  20  27
ENDBRANCH  19  25
ENDBRANCH  18  19
ENDBRANCH   1  18
TORSDOF 10
ENDMDL
MODEL 4
REMARK VINA RESULT:      -8.1      4.346     10.881
REMARK  Name = 
REMARK  12 active torsions:
REMARK  status: ('A' for Active; 'I' for Inactive)
REMARK    1  A    between atoms: C_1  and  O_2
REMARK    2  A    between atoms: O_2  and  C_3
REMARK    3  A    between atoms: C_4  and  C_5
REMARK    4  A    between atoms: C_4  and  C_9
REMARK    5  A    between atoms: C_5  and  O_7
REMARK    6  A    between atoms: O_7  and  C_8
REMARK    7  A    between atoms: C_14  and  C_15
REMARK    8  A    between atoms: C_15  and  O_16
REMARK    9  A    between atoms: O_16  and  C_17
REMARK   10  A    between atoms: C_21  and  C_22
REMARK   11  A    between atoms: C_22  and  C_24
REMARK   12  A    between atoms: C_25  and  C_26
REMARK                            x       y       z     vdW  Elec       q    Type
REMARK                         _______ _______ _______ _____ _____    ______ ____
ROOT
ATOM      1  C   UNL     1       1.943   8.117  19.528  0.00  0.00    +0.000 A 
ATOM      2  C   UNL     1       1.818   8.780  18.305  0.00  0.00    +0.000 A 
ATOM      3  C   UNL     1       1.087   9.965  18.210  0.00  0.00    +0.000 A 
ATOM      4  C   UNL     1       0.511  10.515  19.352  0.00  0.00    +0.000 A 
ATOM      5  C   UNL     1       0.673   9.888  20.594  0.00  0.00    +0.000 A 
ATOM      6  C   UNL     1       1.366   8.669  20.675  0.00  0.00    +0.000 A 
ENDROOT
BRANCH   5   7
ATOM      7  C   UNL     1       0.101  10.573  21.789  0.00  0.00    +0.000 C 
ATOM      8  O   UNL     1       0.534  10.323  22.909  0.00  0.00    +0.000 OA
BRANCH   7   9
ATOM      9  C   UNL     1      -1.049  11.496  21.574  0.00  0.00    +0.000 C 
ATOM     10  C   UNL     1      -1.888  11.786  22.586  0.00  0.00    +0.000 C 
BRANCH  10  11
ATOM     11  C   UNL     1      -3.054  12.672  22.439  0.00  0.00    +0.000 A 
ATOM     12  C   UNL     1      -3.064  13.632  21.417  0.00  0.00    +0.000 A 
ATOM     13  C   UNL     1      -4.162  14.485  21.245  0.00  0.00    +0.000 A 
ATOM     14  C   UNL     1      -5.266  14.377  22.090  0.00  0.00    +0.000 A 
ATOM     15  C   UNL     1      -5.272  13.411  23.093  0.00  0.00    +0.000 A 
ATOM     16 CL   UNL     1      -6.632  13.267  24.138  0.00  0.00    +0.000 Cl
ATOM     17  C   UNL     1      -4.181  12.557  23.262  0.00  0.00    +0.000 A 
ENDBRANCH  10  11
ENDBRANCH   7   9
ENDBRANCH   5   7
BRANCH   1  18
ATOM     18  O   UNL     1       2.717   6.988  19.484  0.00  0.00    +0.000 OA
BRANCH  18  19
ATOM     19  C   UNL     1       3.102   6.461  18.206  0.00  0.00    +0.000 C 
BRANCH  19  25
ATOM     20  C   UNL     1       3.932   4.193  17.368  0.00  0.00    +0.000 A 
ATOM     21  C   UNL     1       3.751   2.807  17.222  0.00  0.00    +0.000 A 
ATOM     22  C   UNL     1       2.630   2.170  17.751  0.00  0.00    +0.000 A 
ATOM     23  C   UNL     1       1.689   2.908  18.457  0.00  0.00    +0.000 A 
ATOM     24  C   UNL     1       1.864   4.282  18.628  0.00  0.00    +0.000 A 
ATOM     25  C   UNL     1       2.966   4.954  18.069  0.00  0.00    +0.000 A 
BRANCH  20  27
ATOM     26  C   UNL     1       6.313   4.777  17.465  0.00  0.00    +0.000 C 
ATOM     27  C   UNL     1       5.158   4.771  16.776  0.00  0.00    +0.000 C 
BRANCH  26  29
ATOM     28  C   UNL     1       6.723   5.297  19.704  0.00  0.00    +0.000 C 
ATOM     29  O   UNL     1       6.424   4.289  18.743  0.00  0.00    +0.000 OA
ENDBRANCH  26  29
BRANCH  27  30
ATOM     30  C   UNL     1       5.192   5.298  15.380  0.00  0.00    +0.000 C 
ATOM     31  O   UNL     1       5.267   6.484  15.089  0.00  0.00    +0.000 OA
BRANCH  30  32
ATOM     32  O   UNL     1       5.112   4.271  14.494  0.00  0.00    +0.000 OA
ATOM     33  C   UNL     1       6.353   3.920  13.882  0.00  0.00    +0.000 C 
ENDBRANCH  30  32
ENDBRANCH  27  30
ENDBRANCH  20  27
ENDBRANCH  19  25
ENDBRANCH  18  19
ENDBRANCH   1  18
TORSDOF 10
ENDMDL
MODEL 5
REMARK VINA RESULT:      -8.1      3.391      9.606
REMARK  Name = 
REMARK  12 active torsions:
REMARK  status: ('A' for Active; 'I' for Inactive)
REMARK    1  A    between atoms: C_1  and  O_2
REMARK    2  A    between atoms: O_2  and  C_3
REMARK    3  A    between atoms: C_4  and  C_5
REMARK    4  A    between atoms: C_4  and  C_9
REMARK    5  A    between atoms: C_5  and  O_7
REMARK    6  A    between atoms: O_7  and  C_8
REMARK    7  A    between atoms: C_14  and  C_15
REMARK    8  A    between atoms: C_15  and  O_16
REMARK    9  A    between atoms: O_16  and  C_17
REMARK   10  A    between atoms: C_21  and  C_22
REMARK   11  A    between atoms: C_22  and  C_24
REMARK   12  A    between atoms: C_25  and  C_26
REMARK                            x       y       z     vdW  Elec       q    Type
REMARK                         _______ _______ _______ _____ _____    ______ ____
ROOT
ATOM      1  C   UNL     1       2.503   7.195  18.650  0.00  0.00    +0.000 A 
ATOM      2  C   UNL     1       2.340   6.417  19.800  0.00  0.00    +0.000 A 
ATOM      3  C   UNL     1       1.744   6.952  20.941  0.00  0.00    +0.000 A 
ATOM      4  C   UNL     1       1.269   8.261  20.925  0.00  0.00    +0.000 A 
ATOM      5  C   UNL     1       1.379   9.035  19.762  0.00  0.00    +0.000 A 
ATOM      6  C   UNL     1       2.025   8.508  18.632  0.00  0.00    +0.000 A 
ENDROOT
BRANCH   5   7
ATOM      7  C   UNL     1       0.776  10.399  19.786  0.00  0.00    +0.000 C 
ATOM      8  O   UNL     1       1.014  11.162  20.716  0.00  0.00    +0.000 OA
BRANCH   7   9
ATOM      9  C   UNL     1      -0.170  10.757  18.691  0.00  0.00    +0.000 C 
ATOM     10  C   UNL     1      -1.402  10.218  18.653  0.00  0.00    +0.000 C 
BRANCH  10  11
ATOM     11  C   UNL     1      -2.379  10.511  17.591  0.00  0.00    +0.000 A 
ATOM     12  C   UNL     1      -2.190   9.964  16.314  0.00  0.00    +0.000 A 
ATOM     13  C   UNL     1      -3.105  10.216  15.284  0.00  0.00    +0.000 A 
ATOM     14  C   UNL     1      -4.226  11.011  15.527  0.00  0.00    +0.000 A 
ATOM     15  C   UNL     1      -4.430  11.540  16.799  0.00  0.00    +0.000 A 
ATOM     16 CL   UNL     1      -5.811  12.518  17.110  0.00  0.00    +0.000 Cl
ATOM     17  C   UNL     1      -3.522  11.285  17.827  0.00  0.00    +0.000 A 
ENDBRANCH  10  11
ENDBRANCH   7   9
ENDBRANCH   5   7
BRANCH   1  18
ATOM     18  O   UNL     1       3.068   6.533  17.593  0.00  0.00    +0.000 OA
BRANCH  18  19
ATOM     19  C   UNL     1       4.460   6.739  17.312  0.00  0.00    +0.000 C 
BRANCH  19  25
ATOM     20  C   UNL     1       5.553   4.489  16.782  0.00  0.00    +0.000 A 
ATOM     21  C   UNL     1       6.151   3.611  15.861  0.00  0.00    +0.000 A 
ATOM     22  C   UNL     1       6.282   3.960  14.518  0.00  0.00    +0.000 A 
ATOM     23  C   UNL     1       5.791   5.180  14.074  0.00  0.00    +0.000 A 
ATOM     24  C   UNL     1       5.176   6.054  14.970  0.00  0.00    +0.000 A 
ATOM     25  C   UNL     1       5.069   5.743  16.339  0.00  0.00    +0.000 A 
BRANCH  20  27
ATOM     26  C   UNL     1       6.477   4.212  19.038  0.00  0.00    +0.000 C 
ATOM     27  C   UNL     1       5.456   4.023  18.182  0.00  0.00    +0.000 C 
BRANCH  26  29
ATOM     28  C   UNL     1       7.774   6.151  19.129  0.00  0.00    +0.000 C 
ATOM     29  O   UNL     1       7.658   4.806  18.673  0.00  0.00    +0.000 OA
ENDBRANCH  26  29
BRANCH  27  30
ATOM     30  C   UNL     1       4.214   3.399  18.725  0.00  0.00    +0.000 C 
ATOM     31  O   UNL     1       3.891   3.412  19.905  0.00  0.00    +0.000 OA
BRANCH  30  32
ATOM     32  O   UNL     1       3.515   2.807  17.722  0.00  0.00    +0.000 OA
ATOM     33  C   UNL     1       2.132   3.157  17.679  0.00  0.00    +0.000 C 
ENDBRANCH  30  32
ENDBRANCH  27  30
ENDBRANCH  20  27
ENDBRANCH  19  25
ENDBRANCH  18  19
ENDBRANCH   1  18
TORSDOF 10
ENDMDL
MODEL 6
REMARK VINA RESULT:      -8.0      4.105     10.819
REMARK  Name = 
REMARK  12 active torsions:
REMARK  status: ('A' for Active; 'I' for Inactive)
REMARK    1  A    between atoms: C_1  and  O_2
REMARK    2  A    between atoms: O_2  and  C_3
REMARK    3  A    between atoms: C_4  and  C_5
REMARK    4  A    between atoms: C_4  and  C_9
REMARK    5  A    between atoms: C_5  and  O_7
REMARK    6  A    between atoms: O_7  and  C_8
REMARK    7  A    between atoms: C_14  and  C_15
REMARK    8  A    between atoms: C_15  and  O_16
REMARK    9  A    between atoms: O_16  and  C_17
REMARK   10  A    between atoms: C_21  and  C_22
REMARK   11  A    between atoms: C_22  and  C_24
REMARK   12  A    between atoms: C_25  and  C_26
REMARK                            x       y       z     vdW  Elec       q    Type
REMARK                         _______ _______ _______ _____ _____    ______ ____
ROOT
ATOM      1  C   UNL     1       1.723   8.442  19.026  0.00  0.00    +0.000 A 
ATOM      2  C   UNL     1       1.686   7.828  20.281  0.00  0.00    +0.000 A 
ATOM      3  C   UNL     1       1.324   8.551  21.417  0.00  0.00    +0.000 A 
ATOM      4  C   UNL     1       0.954   9.889  21.295  0.00  0.00    +0.000 A 
ATOM      5  C   UNL     1       0.935  10.503  20.037  0.00  0.00    +0.000 A 
ATOM      6  C   UNL     1       1.350   9.784  18.903  0.00  0.00    +0.000 A 
ENDROOT
BRANCH   5   7
ATOM      7  C   UNL     1       0.450  11.911  19.966  0.00  0.00    +0.000 C 
ATOM      8  O   UNL     1       0.608  12.567  18.941  0.00  0.00    +0.000 OA
BRANCH   7   9
ATOM      9  C   UNL     1      -0.152  12.499  21.196  0.00  0.00    +0.000 C 
ATOM     10  C   UNL     1      -1.475  12.402  21.420  0.00  0.00    +0.000 C 
BRANCH  10  11
ATOM     11  C   UNL     1      -2.139  12.976  22.601  0.00  0.00    +0.000 A 
ATOM     12  C   UNL     1      -1.605  14.127  23.198  0.00  0.00    +0.000 A 
ATOM     13  C   UNL     1      -2.217  14.703  24.318  0.00  0.00    +0.000 A 
ATOM     14  C   UNL     1      -3.378  14.137  24.846  0.00  0.00    +0.000 A 
ATOM     15  C   UNL     1      -3.925  13.007  24.245  0.00  0.00    +0.000 A 
ATOM     16 CL   UNL     1      -5.360  12.303  24.885  0.00  0.00    +0.000 Cl
ATOM     17  C   UNL     1      -3.319  12.434  23.126  0.00  0.00    +0.000 A 
ENDBRANCH  10  11
ENDBRANCH   7   9
ENDBRANCH   5   7
BRANCH   1  18
ATOM     18  O   UNL     1       2.059   7.606  17.996  0.00  0.00    +0.000 OA
BRANCH  18  19
ATOM     19  C   UNL     1       3.260   6.827  18.099  0.00  0.00    +0.000 C 
BRANCH  19  25
ATOM     20  C   UNL     1       4.007   4.500  17.350  0.00  0.00    +0.000 A 
ATOM     21  C   UNL     1       3.765   3.120  17.236  0.00  0.00    +0.000 A 
ATOM     22  C   UNL     1       2.598   2.552  17.744  0.00  0.00    +0.000 A 
ATOM     23  C   UNL     1       1.672   3.353  18.398  0.00  0.00    +0.000 A 
ATOM     24  C   UNL     1       1.906   4.721  18.538  0.00  0.00    +0.000 A 
ATOM     25  C   UNL     1       3.057   5.325  17.998  0.00  0.00    +0.000 A 
BRANCH  20  27
ATOM     26  C   UNL     1       6.394   5.038  17.534  0.00  0.00    +0.000 C 
ATOM     27  C   UNL     1       5.277   5.003  16.784  0.00  0.00    +0.000 C 
BRANCH  26  29
ATOM     28  C   UNL     1       7.306   5.435  19.646  0.00  0.00    +0.000 C 
ATOM     29  O   UNL     1       6.423   4.650  18.850  0.00  0.00    +0.000 OA
ENDBRANCH  26  29
BRANCH  27  30
ATOM     30  C   UNL     1       5.400   5.417  15.356  0.00  0.00    +0.000 C 
ATOM     31  O   UNL     1       5.523   6.574  14.978  0.00  0.00    +0.000 OA
BRANCH  30  32
ATOM     32  O   UNL     1       5.339   4.326  14.549  0.00  0.00    +0.000 OA
ATOM     33  C   UNL     1       6.501   4.118  13.746  0.00  0.00    +0.000 C 
ENDBRANCH  30  32
ENDBRANCH  27  30
ENDBRANCH  20  27
ENDBRANCH  19  25
ENDBRANCH  18  19
ENDBRANCH   1  18
TORSDOF 10
ENDMDL
MODEL 7
REMARK VINA RESULT:      -8.0      3.846     10.097
REMARK  Name = 
REMARK  12 active torsions:
REMARK  status: ('A' for Active; 'I' for Inactive)
REMARK    1  A    between atoms: C_1  and  O_2
REMARK    2  A    between atoms: O_2  and  C_3
REMARK    3  A    between atoms: C_4  and  C_5
REMARK    4  A    between atoms: C_4  and  C_9
REMARK    5  A    between atoms: C_5  and  O_7
REMARK    6  A    between atoms: O_7  and  C_8
REMARK    7  A    between atoms: C_14  and  C_15
REMARK    8  A    between atoms: C_15  and  O_16
REMARK    9  A    between atoms: O_16  and  C_17
REMARK   10  A    between atoms: C_21  and  C_22
REMARK   11  A    between atoms: C_22  and  C_24
REMARK   12  A    between atoms: C_25  and  C_26
REMARK                            x       y       z     vdW  Elec       q    Type
REMARK                         _______ _______ _______ _____ _____    ______ ____
ROOT
ATOM      1  C   UNL     1       2.031   7.906  19.559  0.00  0.00    +0.000 A 
ATOM      2  C   UNL     1       1.570   7.527  20.823  0.00  0.00    +0.000 A 
ATOM      3  C   UNL     1       0.592   8.276  21.477  0.00  0.00    +0.000 A 
ATOM      4  C   UNL     1       0.038   9.388  20.848  0.00  0.00    +0.000 A 
ATOM      5  C   UNL     1       0.452   9.749  19.560  0.00  0.00    +0.000 A 
ATOM      6  C   UNL     1       1.474   9.021  18.927  0.00  0.00    +0.000 A 
ENDROOT
BRANCH   5   7
ATOM      7  C   UNL     1      -0.240  10.900  18.912  0.00  0.00    +0.000 C 
ATOM      8  O   UNL     1       0.396  11.895  18.582  0.00  0.00    +0.000 OA
BRANCH   7   9
ATOM      9  C   UNL     1      -1.720  10.820  18.758  0.00  0.00    +0.000 C 
ATOM     10  C   UNL     1      -2.471  11.935  18.815  0.00  0.00    +0.000 C 
BRANCH  10  11
ATOM     11  C   UNL     1      -3.938  11.928  18.692  0.00  0.00    +0.000 A 
ATOM     12  C   UNL     1      -4.523  11.630  17.453  0.00  0.00    +0.000 A 
ATOM     13  C   UNL     1      -5.915  11.606  17.304  0.00  0.00    +0.000 A 
ATOM     14  C   UNL     1      -6.737  11.871  18.400  0.00  0.00    +0.000 A 
ATOM     15  C   UNL     1      -6.163  12.147  19.638  0.00  0.00    +0.000 A 
ATOM     16 CL   UNL     1      -7.168  12.470  20.997  0.00  0.00    +0.000 Cl
ATOM     17  C   UNL     1      -4.776  12.165  19.789  0.00  0.00    +0.000 A 
ENDBRANCH  10  11
ENDBRANCH   7   9
ENDBRANCH   5   7
BRANCH   1  18
ATOM     18  O   UNL     1       2.964   7.062  19.019  0.00  0.00    +0.000 OA
BRANCH  18  19
ATOM     19  C   UNL     1       2.648   6.366  17.805  0.00  0.00    +0.000 C 
BRANCH  19  25
ATOM     20  C   UNL     1       3.896   4.138  17.684  0.00  0.00    +0.000 A 
ATOM     21  C   UNL     1       3.892   2.734  17.742  0.00  0.00    +0.000 A 
ATOM     22  C   UNL     1       2.719   2.030  18.008  0.00  0.00    +0.000 A 
ATOM     23  C   UNL     1       1.540   2.724  18.247  0.00  0.00    +0.000 A 
ATOM     24  C   UNL     1       1.532   4.119  18.213  0.00  0.00    +0.000 A 
ATOM     25  C   UNL     1       2.694   4.851  17.907  0.00  0.00    +0.000 A 
BRANCH  20  27
ATOM     26  C   UNL     1       5.635   4.918  16.138  0.00  0.00    +0.000 C 
ATOM     27  C   UNL     1       5.194   4.790  17.403  0.00  0.00    +0.000 C 
BRANCH  26  29
ATOM     28  C   UNL     1       5.796   3.967  14.012  0.00  0.00    +0.000 C 
ATOM     29  O   UNL     1       4.945   4.437  15.054  0.00  0.00    +0.000 OA
ENDBRANCH  26  29
BRANCH  27  30
ATOM     30  C   UNL     1       6.028   5.395  18.482  0.00  0.00    +0.000 C 
ATOM     31  O   UNL     1       5.783   5.309  19.678  0.00  0.00    +0.000 OA
BRANCH  30  32
ATOM     32  O   UNL     1       7.079   6.062  17.938  0.00  0.00    +0.000 OA
ATOM     33  C   UNL     1       8.053   6.505  18.883  0.00  0.00    +0.000 C 
ENDBRANCH  30  32
ENDBRANCH  27  30
ENDBRANCH  20  27
ENDBRANCH  19  25
ENDBRANCH  18  19
ENDBRANCH   1  18
TORSDOF 10
ENDMDL
MODEL 8
REMARK VINA RESULT:      -8.0      4.121     10.820
REMARK  Name = 
REMARK  12 active torsions:
REMARK  status: ('A' for Active; 'I' for Inactive)
REMARK    1  A    between atoms: C_1  and  O_2
REMARK    2  A    between atoms: O_2  and  C_3
REMARK    3  A    between atoms: C_4  and  C_5
REMARK    4  A    between atoms: C_4  and  C_9
REMARK    5  A    between atoms: C_5  and  O_7
REMARK    6  A    between atoms: O_7  and  C_8
REMARK    7  A    between atoms: C_14  and  C_15
REMARK    8  A    between atoms: C_15  and  O_16
REMARK    9  A    between atoms: O_16  and  C_17
REMARK   10  A    between atoms: C_21  and  C_22
REMARK   11  A    between atoms: C_22  and  C_24
REMARK   12  A    between atoms: C_25  and  C_26
REMARK                            x       y       z     vdW  Elec       q    Type
REMARK                         _______ _______ _______ _____ _____    ______ ____
ROOT
ATOM      1  C   UNL     1       1.985   8.159  19.217  0.00  0.00    +0.000 A 
ATOM      2  C   UNL     1       1.924   9.077  18.165  0.00  0.00    +0.000 A 
ATOM      3  C   UNL     1       1.267  10.297  18.323  0.00  0.00    +0.000 A 
ATOM      4  C   UNL     1       0.701  10.623  19.554  0.00  0.00    +0.000 A 
ATOM      5  C   UNL     1       0.801   9.735  20.632  0.00  0.00    +0.000 A 
ATOM      6  C   UNL     1       1.419   8.487  20.453  0.00  0.00    +0.000 A 
ENDROOT
BRANCH   5   7
ATOM      7  C   UNL     1       0.247  10.180  21.943  0.00  0.00    +0.000 C 
ATOM      8  O   UNL     1       0.724   9.757  22.991  0.00  0.00    +0.000 OA
BRANCH   7   9
ATOM      9  C   UNL     1      -0.938  11.084  21.923  0.00  0.00    +0.000 C 
ATOM     10  C   UNL     1      -1.385  11.647  23.061  0.00  0.00    +0.000 C 
BRANCH  10  11
ATOM     11  C   UNL     1      -2.560  12.531  23.117  0.00  0.00    +0.000 A 
ATOM     12  C   UNL     1      -3.630  12.200  23.961  0.00  0.00    +0.000 A 
ATOM     13  C   UNL     1      -4.758  13.025  24.045  0.00  0.00    +0.000 A 
ATOM     14  C   UNL     1      -4.823  14.196  23.290  0.00  0.00    +0.000 A 
ATOM     15  C   UNL     1      -3.755  14.540  22.465  0.00  0.00    +0.000 A 
ATOM     16 CL   UNL     1      -3.823  15.986  21.533  0.00  0.00    +0.000 Cl
ATOM     17  C   UNL     1      -2.627  13.723  22.385  0.00  0.00    +0.000 A 
ENDBRANCH  10  11
ENDBRANCH   7   9
ENDBRANCH   5   7
BRANCH   1  18
ATOM     18  O   UNL     1       2.691   7.021  18.935  0.00  0.00    +0.000 OA
BRANCH  18  19
ATOM     19  C   UNL     1       2.316   6.237  17.793  0.00  0.00    +0.000 C 
BRANCH  19  25
ATOM     20  C   UNL     1       3.944   4.296  17.454  0.00  0.00    +0.000 A 
ATOM     21  C   UNL     1       4.229   2.921  17.508  0.00  0.00    +0.000 A 
ATOM     22  C   UNL     1       3.282   2.009  17.969  0.00  0.00    +0.000 A 
ATOM     23  C   UNL     1       2.045   2.465  18.408  0.00  0.00    +0.000 A 
ATOM     24  C   UNL     1       1.754   3.829  18.380  0.00  0.00    +0.000 A 
ATOM     25  C   UNL     1       2.679   4.765  17.881  0.00  0.00    +0.000 A 
BRANCH  20  27
ATOM     26  C   UNL     1       5.940   5.681  17.802  0.00  0.00    +0.000 C 
ATOM     27  C   UNL     1       5.020   5.181  16.957  0.00  0.00    +0.000 C 
BRANCH  26  29
ATOM     28  C   UNL     1       7.224   5.445  19.737  0.00  0.00    +0.000 C 
ATOM     29  O   UNL     1       5.925   5.438  19.152  0.00  0.00    +0.000 OA
ENDBRANCH  26  29
BRANCH  27  30
ATOM     30  C   UNL     1       5.181   5.495  15.507  0.00  0.00    +0.000 C 
ATOM     31  O   UNL     1       5.222   6.625  15.043  0.00  0.00    +0.000 OA
BRANCH  30  32
ATOM     32  O   UNL     1       5.258   4.344  14.789  0.00  0.00    +0.000 OA
ATOM     33  C   UNL     1       6.414   4.241  13.957  0.00  0.00    +0.000 C 
ENDBRANCH  30  32
ENDBRANCH  27  30
ENDBRANCH  20  27
ENDBRANCH  19  25
ENDBRANCH  18  19
ENDBRANCH   1  18
TORSDOF 10
ENDMDL
MODEL 9
REMARK VINA RESULT:      -8.0      3.503      9.358
REMARK  Name = 
REMARK  12 active torsions:
REMARK  status: ('A' for Active; 'I' for Inactive)
REMARK    1  A    between atoms: C_1  and  O_2
REMARK    2  A    between atoms: O_2  and  C_3
REMARK    3  A    between atoms: C_4  and  C_5
REMARK    4  A    between atoms: C_4  and  C_9
REMARK    5  A    between atoms: C_5  and  O_7
REMARK    6  A    between atoms: O_7  and  C_8
REMARK    7  A    between atoms: C_14  and  C_15
REMARK    8  A    between atoms: C_15  and  O_16
REMARK    9  A    between atoms: O_16  and  C_17
REMARK   10  A    between atoms: C_21  and  C_22
REMARK   11  A    between atoms: C_22  and  C_24
REMARK   12  A    between atoms: C_25  and  C_26
REMARK                            x       y       z     vdW  Elec       q    Type
REMARK                         _______ _______ _______ _____ _____    ______ ____
ROOT
ATOM      1  C   UNL     1       2.615   7.216  18.540  0.00  0.00    +0.000 A 
ATOM      2  C   UNL     1       2.422   6.409  19.664  0.00  0.00    +0.000 A 
ATOM      3  C   UNL     1       1.788   6.911  20.800  0.00  0.00    +0.000 A 
ATOM      4  C   UNL     1       1.304   8.218  20.801  0.00  0.00    +0.000 A 
ATOM      5  C   UNL     1       1.443   9.021  19.662  0.00  0.00    +0.000 A 
ATOM      6  C   UNL     1       2.128   8.527  18.540  0.00  0.00    +0.000 A 
ENDROOT
BRANCH   5   7
ATOM      7  C   UNL     1       0.830  10.380  19.701  0.00  0.00    +0.000 C 
ATOM      8  O   UNL     1       1.076  11.141  20.631  0.00  0.00    +0.000 OA
BRANCH   7   9
ATOM      9  C   UNL     1      -0.134  10.736  18.622  0.00  0.00    +0.000 C 
ATOM     10  C   UNL     1      -1.361  10.185  18.597  0.00  0.00    +0.000 C 
BRANCH  10  11
ATOM     11  C   UNL     1      -2.356  10.474  17.551  0.00  0.00    +0.000 A 
ATOM     12  C   UNL     1      -2.192   9.919  16.274  0.00  0.00    +0.000 A 
ATOM     13  C   UNL     1      -3.124  10.167  15.260  0.00  0.00    +0.000 A 
ATOM     14  C   UNL     1      -4.237  10.968  15.517  0.00  0.00    +0.000 A 
ATOM     15  C   UNL     1      -4.417  11.505  16.789  0.00  0.00    +0.000 A 
ATOM     16 CL   UNL     1      -5.790  12.490  17.118  0.00  0.00    +0.000 Cl
ATOM     17  C   UNL     1      -3.492  11.254  17.803  0.00  0.00    +0.000 A 
ENDBRANCH  10  11
ENDBRANCH   7   9
ENDBRANCH   5   7
BRANCH   1  18
ATOM     18  O   UNL     1       3.217   6.585  17.485  0.00  0.00    +0.000 OA
BRANCH  18  19
ATOM     19  C   UNL     1       4.331   7.220  16.842  0.00  0.00    +0.000 C 
BRANCH  19  25
ATOM     20  C   UNL     1       6.029   5.451  17.562  0.00  0.00    +0.000 A 
ATOM     21  C   UNL     1       7.283   5.112  18.099  0.00  0.00    +0.000 A 
ATOM     22  C   UNL     1       8.199   6.098  18.460  0.00  0.00    +0.000 A 
ATOM     23  C   UNL     1       7.884   7.435  18.261  0.00  0.00    +0.000 A 
ATOM     24  C   UNL     1       6.652   7.788  17.709  0.00  0.00    +0.000 A 
ATOM     25  C   UNL     1       5.694   6.813  17.375  0.00  0.00    +0.000 A 
BRANCH  20  27
ATOM     26  C   UNL     1       4.964   3.971  15.920  0.00  0.00    +0.000 C 
ATOM     27  C   UNL     1       5.132   4.330  17.205  0.00  0.00    +0.000 C 
BRANCH  26  29
ATOM     28  C   UNL     1       6.206   3.738  13.956  0.00  0.00    +0.000 C 
ATOM     29  O   UNL     1       5.572   4.622  14.876  0.00  0.00    +0.000 OA
ENDBRANCH  26  29
BRANCH  27  30
ATOM     30  C   UNL     1       4.441   3.507  18.241  0.00  0.00    +0.000 C 
ATOM     31  O   UNL     1       4.553   3.675  19.447  0.00  0.00    +0.000 OA
BRANCH  30  32
ATOM     32  O   UNL     1       3.690   2.545  17.644  0.00  0.00    +0.000 OA
ATOM     33  C   UNL     1       3.446   1.397  18.456  0.00  0.00    +0.000 C 
ENDBRANCH  30  32
ENDBRANCH  27  30
ENDBRANCH  20  27
ENDBRANCH  19  25
ENDBRANCH  18  19
ENDBRANCH   1  18
TORSDOF 10
ENDMDL
