MODEL 1
REMARK VINA RESULT:      -7.0      0.000      0.000
REMARK  Name = 
REMARK  6 active torsions:
REMARK  status: ('A' for Active; 'I' for Inactive)
REMARK    1  A    between atoms: C_1  and  C_2
REMARK    2  A    between atoms: C_7  and  C_8
REMARK    3  A    between atoms: C_8  and  S_9
REMARK    4  A    between atoms: S_9  and  N_12
REMARK    5  A    between atoms: C_14  and  C_15
REMARK    6  A    between atoms: C_15  and  O_16
REMARK                            x       y       z     vdW  Elec       q    Type
REMARK                         _______ _______ _______ _____ _____    ______ ____
ROOT
ATOM      1  S   UNL     1       5.307   4.672  18.276  0.00  0.00    +0.000 S 
ATOM      2  O   UNL     1       4.501   5.838  18.579  0.00  0.00    +0.000 OA
ATOM      3  O   UNL     1       6.473   4.336  19.069  0.00  0.00    +0.000 OA
ENDROOT
BRANCH   1   4
ATOM      4  N   UNL     1       5.842   4.853  16.717  0.00  0.00    +0.000 NA
ATOM      5  C   UNL     1       5.461   5.715  15.588  0.00  0.00    +0.000 C 
ATOM      6  C   UNL     1       6.496   4.973  14.698  0.00  0.00    +0.000 C 
ATOM      7  C   UNL     1       7.076   4.429  16.030  0.00  0.00    +0.000 C 
BRANCH   6   8
ATOM      8  C   UNL     1       5.924   3.910  13.776  0.00  0.00    +0.000 C 
BRANCH   8   9
ATOM      9  O   UNL     1       6.690   3.874  12.576  0.00  0.00    +0.000 OA
ATOM     10  H   UNL     1       6.075   3.949  11.826  0.00  0.00    +0.000 HD
ENDBRANCH   8   9
ENDBRANCH   6   8
ENDBRANCH   1   4
BRANCH   1  11
ATOM     11  C   UNL     1       4.249   3.220  18.157  0.00  0.00    +0.000 C 
BRANCH  11  18
ATOM     12  C   UNL     1       1.441   4.325  17.695  0.00  0.00    +0.000 C 
ATOM     13  C   UNL     1       1.868   3.726  19.008  0.00  0.00    +0.000 A 
ATOM     14  C   UNL     1       0.904   3.615  20.028  0.00  0.00    +0.000 A 
ATOM     15  C   UNL     1       1.225   3.057  21.261  0.00  0.00    +0.000 A 
ATOM     16  C   UNL     1       2.517   2.606  21.499  0.00  0.00    +0.000 A 
ATOM     17  C   UNL     1       3.483   2.697  20.495  0.00  0.00    +0.000 A 
ATOM     18  C   UNL     1       3.176   3.235  19.229  0.00  0.00    +0.000 A 
ENDBRANCH  11  18
ENDBRANCH   1  11
TORSDOF 5
ENDMDL
MODEL 2
REMARK VINA RESULT:      -6.8      1.237      1.484
REMARK  Name = 
REMARK  6 active torsions:
REMARK  status: ('A' for Active; 'I' for Inactive)
REMARK    1  A    between atoms: C_1  and  C_2
REMARK    2  A    between atoms: C_7  and  C_8
REMARK    3  A    between atoms: C_8  and  S_9
REMARK    4  A    between atoms: S_9  and  N_12
REMARK    5  A    between atoms: C_14  and  C_15
REMARK    6  A    between atoms: C_15  and  O_16
REMARK                            x       y       z     vdW  Elec       q    Type
REMARK                         _______ _______ _______ _____ _____    ______ ____
ROOT
ATOM      1  S   UNL     1       5.313   4.772  19.082  0.00  0.00    +0.000 S 
ATOM      2  O   UNL     1       6.429   5.566  19.558  0.00  0.00    +0.000 OA
ATOM      3  O   UNL     1       5.193   3.366  19.414  0.00  0.00    +0.000 OA
ENDROOT
BRANCH   1   4
ATOM      4  N   UNL     1       5.338   4.858  17.425  0.00  0.00    +0.000 NA
ATOM      5  C   UNL     1       4.801   4.023  16.340  0.00  0.00    +0.000 C 
ATOM      6  C   UNL     1       5.488   4.958  15.307  0.00  0.00    +0.000 C 
ATOM      7  C   UNL     1       5.642   5.954  16.487  0.00  0.00    +0.000 C 
BRANCH   6   8
ATOM      8  C   UNL     1       6.799   4.449  14.735  0.00  0.00    +0.000 C 
BRANCH   8   9
ATOM      9  O   UNL     1       6.522   3.596  13.629  0.00  0.00    +0.000 OA
ATOM     10  H   UNL     1       6.710   4.092  12.813  0.00  0.00    +0.000 HD
ENDBRANCH   8   9
ENDBRANCH   6   8
ENDBRANCH   1   4
BRANCH   1  11
ATOM     11  C   UNL     1       3.766   5.599  19.490  0.00  0.00    +0.000 C 
BRANCH  11  18
ATOM     12  C   UNL     1       1.607   4.445  17.665  0.00  0.00    +0.000 C 
ATOM     13  C   UNL     1       1.737   4.054  19.113  0.00  0.00    +0.000 A 
ATOM     14  C   UNL     1       0.867   3.064  19.609  0.00  0.00    +0.000 A 
ATOM     15  C   UNL     1       0.941   2.642  20.933  0.00  0.00    +0.000 A 
ATOM     16  C   UNL     1       1.882   3.206  21.785  0.00  0.00    +0.000 A 
ATOM     17  C   UNL     1       2.762   4.179  21.307  0.00  0.00    +0.000 A 
ATOM     18  C   UNL     1       2.723   4.605  19.964  0.00  0.00    +0.000 A 
ENDBRANCH  11  18
ENDBRANCH   1  11
TORSDOF 5
ENDMDL
MODEL 3
REMARK VINA RESULT:      -6.4      1.597      2.080
REMARK  Name = 
REMARK  6 active torsions:
REMARK  status: ('A' for Active; 'I' for Inactive)
REMARK    1  A    between atoms: C_1  and  C_2
REMARK    2  A    between atoms: C_7  and  C_8
REMARK    3  A    between atoms: C_8  and  S_9
REMARK    4  A    between atoms: S_9  and  N_12
REMARK    5  A    between atoms: C_14  and  C_15
REMARK    6  A    between atoms: C_15  and  O_16
REMARK                            x       y       z     vdW  Elec       q    Type
REMARK                         _______ _______ _______ _____ _____    ______ ____
ROOT
ATOM      1  S   UNL     1       5.407   4.663  18.949  0.00  0.00    +0.000 S 
ATOM      2  O   UNL     1       6.199   5.683  19.607  0.00  0.00    +0.000 OA
ATOM      3  O   UNL     1       5.217   3.356  19.546  0.00  0.00    +0.000 OA
ENDROOT
BRANCH   1   4
ATOM      4  N   UNL     1       6.102   4.400  17.466  0.00  0.00    +0.000 NA
ATOM      5  C   UNL     1       7.473   4.480  16.939  0.00  0.00    +0.000 C 
ATOM      6  C   UNL     1       6.926   4.152  15.522  0.00  0.00    +0.000 C 
ATOM      7  C   UNL     1       5.632   3.706  16.253  0.00  0.00    +0.000 C 
BRANCH   6   8
ATOM      8  C   UNL     1       6.751   5.343  14.597  0.00  0.00    +0.000 C 
BRANCH   8   9
ATOM      9  O   UNL     1       7.997   5.631  13.970  0.00  0.00    +0.000 OA
ATOM     10  H   UNL     1       8.707   5.362  14.579  0.00  0.00    +0.000 HD
ENDBRANCH   8   9
ENDBRANCH   6   8
ENDBRANCH   1   4
BRANCH   1  11
ATOM     11  C   UNL     1       3.797   5.339  18.509  0.00  0.00    +0.000 C 
BRANCH  11  18
ATOM     12  C   UNL     1       1.927   5.765  20.884  0.00  0.00    +0.000 C 
ATOM     13  C   UNL     1       1.801   4.585  19.958  0.00  0.00    +0.000 A 
ATOM     14  C   UNL     1       0.733   3.693  20.166  0.00  0.00    +0.000 A 
ATOM     15  C   UNL     1       0.547   2.590  19.338  0.00  0.00    +0.000 A 
ATOM     16  C   UNL     1       1.430   2.357  18.291  0.00  0.00    +0.000 A 
ATOM     17  C   UNL     1       2.488   3.239  18.062  0.00  0.00    +0.000 A 
ATOM     18  C   UNL     1       2.682   4.376  18.871  0.00  0.00    +0.000 A 
ENDBRANCH  11  18
ENDBRANCH   1  11
TORSDOF 5
ENDMDL
MODEL 4
REMARK VINA RESULT:      -6.4      1.337      1.885
REMARK  Name = 
REMARK  6 active torsions:
REMARK  status: ('A' for Active; 'I' for Inactive)
REMARK    1  A    between atoms: C_1  and  C_2
REMARK    2  A    between atoms: C_7  and  C_8
REMARK    3  A    between atoms: C_8  and  S_9
REMARK    4  A    between atoms: S_9  and  N_12
REMARK    5  A    between atoms: C_14  and  C_15
REMARK    6  A    between atoms: C_15  and  O_16
REMARK                            x       y       z     vdW  Elec       q    Type
REMARK                         _______ _______ _______ _____ _____    ______ ____
ROOT
ATOM      1  S   UNL     1       4.406   5.697  17.931  0.00  0.00    +0.000 S 
ATOM      2  O   UNL     1       4.110   7.069  17.569  0.00  0.00    +0.000 OA
ATOM      3  O   UNL     1       4.805   5.343  19.279  0.00  0.00    +0.000 OA
ENDROOT
BRANCH   1   4
ATOM      4  N   UNL     1       5.635   5.194  16.936  0.00  0.00    +0.000 NA
ATOM      5  C   UNL     1       6.980   5.698  16.621  0.00  0.00    +0.000 C 
ATOM      6  C   UNL     1       7.136   4.566  15.569  0.00  0.00    +0.000 C 
ATOM      7  C   UNL     1       5.913   3.912  16.263  0.00  0.00    +0.000 C 
BRANCH   6   8
ATOM      8  C   UNL     1       6.899   4.976  14.126  0.00  0.00    +0.000 C 
BRANCH   8   9
ATOM      9  O   UNL     1       8.082   5.586  13.617  0.00  0.00    +0.000 OA
ATOM     10  H   UNL     1       7.951   5.745  12.666  0.00  0.00    +0.000 HD
ENDBRANCH   8   9
ENDBRANCH   6   8
ENDBRANCH   1   4
BRANCH   1  11
ATOM     11  C   UNL     1       3.042   4.633  17.431  0.00  0.00    +0.000 C 
BRANCH  11  18
ATOM     12  C   UNL     1       3.490   1.712  18.197  0.00  0.00    +0.000 C 
ATOM     13  C   UNL     1       2.614   2.633  19.002  0.00  0.00    +0.000 A 
ATOM     14  C   UNL     1       2.043   2.133  20.187  0.00  0.00    +0.000 A 
ATOM     15  C   UNL     1       1.235   2.934  20.988  0.00  0.00    +0.000 A 
ATOM     16  C   UNL     1       0.978   4.247  20.615  0.00  0.00    +0.000 A 
ATOM     17  C   UNL     1       1.546   4.764  19.448  0.00  0.00    +0.000 A 
ATOM     18  C   UNL     1       2.388   3.980  18.634  0.00  0.00    +0.000 A 
ENDBRANCH  11  18
ENDBRANCH   1  11
TORSDOF 5
ENDMDL
MODEL 5
REMARK VINA RESULT:      -6.4      0.766      1.775
REMARK  Name = 
REMARK  6 active torsions:
REMARK  status: ('A' for Active; 'I' for Inactive)
REMARK    1  A    between atoms: C_1  and  C_2
REMARK    2  A    between atoms: C_7  and  C_8
REMARK    3  A    between atoms: C_8  and  S_9
REMARK    4  A    between atoms: S_9  and  N_12
REMARK    5  A    between atoms: C_14  and  C_15
REMARK    6  A    between atoms: C_15  and  O_16
REMARK                            x       y       z     vdW  Elec       q    Type
REMARK                         _______ _______ _______ _____ _____    ______ ____
ROOT
ATOM      1  S   UNL     1       4.576   4.934  17.666  0.00  0.00    +0.000 S 
ATOM      2  O   UNL     1       3.634   6.024  17.506  0.00  0.00    +0.000 OA
ATOM      3  O   UNL     1       5.572   4.949  18.720  0.00  0.00    +0.000 OA
ENDROOT
BRANCH   1   4
ATOM      4  N   UNL     1       5.412   4.810  16.239  0.00  0.00    +0.000 NA
ATOM      5  C   UNL     1       5.604   5.688  15.075  0.00  0.00    +0.000 C 
ATOM      6  C   UNL     1       6.414   4.559  14.381  0.00  0.00    +0.000 C 
ATOM      7  C   UNL     1       6.489   3.909  15.788  0.00  0.00    +0.000 C 
BRANCH   6   8
ATOM      8  C   UNL     1       5.653   3.746  13.349  0.00  0.00    +0.000 C 
BRANCH   8   9
ATOM      9  O   UNL     1       6.586   3.061  12.519  0.00  0.00    +0.000 OA
ATOM     10  H   UNL     1       6.479   3.394  11.611  0.00  0.00    +0.000 HD
ENDBRANCH   8   9
ENDBRANCH   6   8
ENDBRANCH   1   4
BRANCH   1  11
ATOM     11  C   UNL     1       3.686   3.370  17.732  0.00  0.00    +0.000 C 
BRANCH  11  18
ATOM     12  C   UNL     1       4.697   1.953  20.240  0.00  0.00    +0.000 C 
ATOM     13  C   UNL     1       3.349   2.620  20.175  0.00  0.00    +0.000 A 
ATOM     14  C   UNL     1       2.568   2.643  21.346  0.00  0.00    +0.000 A 
ATOM     15  C   UNL     1       1.319   3.256  21.363  0.00  0.00    +0.000 A 
ATOM     16  C   UNL     1       0.827   3.851  20.209  0.00  0.00    +0.000 A 
ATOM     17  C   UNL     1       1.593   3.849  19.042  0.00  0.00    +0.000 A 
ATOM     18  C   UNL     1       2.872   3.256  19.007  0.00  0.00    +0.000 A 
ENDBRANCH  11  18
ENDBRANCH   1  11
TORSDOF 5
ENDMDL
MODEL 6
REMARK VINA RESULT:      -6.3      1.356      2.301
REMARK  Name = 
REMARK  6 active torsions:
REMARK  status: ('A' for Active; 'I' for Inactive)
REMARK    1  A    between atoms: C_1  and  C_2
REMARK    2  A    between atoms: C_7  and  C_8
REMARK    3  A    between atoms: C_8  and  S_9
REMARK    4  A    between atoms: S_9  and  N_12
REMARK    5  A    between atoms: C_14  and  C_15
REMARK    6  A    between atoms: C_15  and  O_16
REMARK                            x       y       z     vdW  Elec       q    Type
REMARK                         _______ _______ _______ _____ _____    ______ ____
ROOT
ATOM      1  S   UNL     1       5.398   4.758  19.161  0.00  0.00    +0.000 S 
ATOM      2  O   UNL     1       6.471   5.600  19.650  0.00  0.00    +0.000 OA
ATOM      3  O   UNL     1       5.338   3.347  19.488  0.00  0.00    +0.000 OA
ENDROOT
BRANCH   1   4
ATOM      4  N   UNL     1       5.436   4.848  17.504  0.00  0.00    +0.000 NA
ATOM      5  C   UNL     1       5.222   3.886  16.413  0.00  0.00    +0.000 C 
ATOM      6  C   UNL     1       5.601   4.993  15.390  0.00  0.00    +0.000 C 
ATOM      7  C   UNL     1       5.397   5.985  16.566  0.00  0.00    +0.000 C 
BRANCH   6   8
ATOM      8  C   UNL     1       7.020   4.931  14.854  0.00  0.00    +0.000 C 
BRANCH   8   9
ATOM      9  O   UNL     1       6.978   4.588  13.471  0.00  0.00    +0.000 OA
ATOM     10  H   UNL     1       6.558   5.324  12.993  0.00  0.00    +0.000 HD
ENDBRANCH   8   9
ENDBRANCH   6   8
ENDBRANCH   1   4
BRANCH   1  11
ATOM     11  C   UNL     1       3.811   5.513  19.553  0.00  0.00    +0.000 C 
BRANCH  11  18
ATOM     12  C   UNL     1       2.514   3.832  21.747  0.00  0.00    +0.000 C 
ATOM     13  C   UNL     1       2.052   3.788  20.316  0.00  0.00    +0.000 A 
ATOM     14  C   UNL     1       0.934   2.990  20.007  0.00  0.00    +0.000 A 
ATOM     15  C   UNL     1       0.443   2.915  18.707  0.00  0.00    +0.000 A 
ATOM     16  C   UNL     1       1.065   3.631  17.692  0.00  0.00    +0.000 A 
ATOM     17  C   UNL     1       2.167   4.438  17.982  0.00  0.00    +0.000 A 
ATOM     18  C   UNL     1       2.668   4.550  19.295  0.00  0.00    +0.000 A 
ENDBRANCH  11  18
ENDBRANCH   1  11
TORSDOF 5
ENDMDL
MODEL 7
REMARK VINA RESULT:      -6.3      1.124      1.266
REMARK  Name = 
REMARK  6 active torsions:
REMARK  status: ('A' for Active; 'I' for Inactive)
REMARK    1  A    between atoms: C_1  and  C_2
REMARK    2  A    between atoms: C_7  and  C_8
REMARK    3  A    between atoms: C_8  and  S_9
REMARK    4  A    between atoms: S_9  and  N_12
REMARK    5  A    between atoms: C_14  and  C_15
REMARK    6  A    between atoms: C_15  and  O_16
REMARK                            x       y       z     vdW  Elec       q    Type
REMARK                         _______ _______ _______ _____ _____    ______ ____
ROOT
ATOM      1  S   UNL     1       5.280   4.973  18.155  0.00  0.00    +0.000 S 
ATOM      2  O   UNL     1       5.759   6.181  18.797  0.00  0.00    +0.000 OA
ATOM      3  O   UNL     1       5.589   3.662  18.692  0.00  0.00    +0.000 OA
ENDROOT
BRANCH   1   4
ATOM      4  N   UNL     1       5.867   4.990  16.604  0.00  0.00    +0.000 NA
ATOM      5  C   UNL     1       5.521   5.723  15.377  0.00  0.00    +0.000 C 
ATOM      6  C   UNL     1       6.589   4.898  14.607  0.00  0.00    +0.000 C 
ATOM      7  C   UNL     1       7.125   4.504  16.008  0.00  0.00    +0.000 C 
BRANCH   6   8
ATOM      8  C   UNL     1       6.053   3.738  13.786  0.00  0.00    +0.000 C 
BRANCH   8   9
ATOM      9  O   UNL     1       6.610   3.799  12.477  0.00  0.00    +0.000 OA
ATOM     10  H   UNL     1       7.284   3.101  12.406  0.00  0.00    +0.000 HD
ENDBRANCH   8   9
ENDBRANCH   6   8
ENDBRANCH   1   4
BRANCH   1  11
ATOM     11  C   UNL     1       3.501   5.089  17.898  0.00  0.00    +0.000 C 
BRANCH  11  18
ATOM     12  C   UNL     1       2.467   2.236  17.571  0.00  0.00    +0.000 C 
ATOM     13  C   UNL     1       2.282   3.022  18.840  0.00  0.00    +0.000 A 
ATOM     14  C   UNL     1       1.670   2.378  19.932  0.00  0.00    +0.000 A 
ATOM     15  C   UNL     1       1.481   3.040  21.141  0.00  0.00    +0.000 A 
ATOM     16  C   UNL     1       1.896   4.359  21.278  0.00  0.00    +0.000 A 
ATOM     17  C   UNL     1       2.516   5.009  20.210  0.00  0.00    +0.000 A 
ATOM     18  C   UNL     1       2.741   4.352  18.984  0.00  0.00    +0.000 A 
ENDBRANCH  11  18
ENDBRANCH   1  11
TORSDOF 5
ENDMDL
MODEL 8
REMARK VINA RESULT:      -6.2      1.331      1.686
REMARK  Name = 
REMARK  6 active torsions:
REMARK  status: ('A' for Active; 'I' for Inactive)
REMARK    1  A    between atoms: C_1  and  C_2
REMARK    2  A    between atoms: C_7  and  C_8
REMARK    3  A    between atoms: C_8  and  S_9
REMARK    4  A    between atoms: S_9  and  N_12
REMARK    5  A    between atoms: C_14  and  C_15
REMARK    6  A    between atoms: C_15  and  O_16
REMARK                            x       y       z     vdW  Elec       q    Type
REMARK                         _______ _______ _______ _____ _____    ______ ____
ROOT
ATOM      1  S   UNL     1       5.078   5.033  18.016  0.00  0.00    +0.000 S 
ATOM      2  O   UNL     1       5.679   6.143  18.728  0.00  0.00    +0.000 OA
ATOM      3  O   UNL     1       5.181   3.675  18.514  0.00  0.00    +0.000 OA
ENDROOT
BRANCH   1   4
ATOM      4  N   UNL     1       5.745   5.023  16.497  0.00  0.00    +0.000 NA
ATOM      5  C   UNL     1       5.477   5.750  15.247  0.00  0.00    +0.000 C 
ATOM      6  C   UNL     1       6.565   4.896  14.540  0.00  0.00    +0.000 C 
ATOM      7  C   UNL     1       7.022   4.506  15.971  0.00  0.00    +0.000 C 
BRANCH   6   8
ATOM      8  C   UNL     1       6.049   3.739  13.704  0.00  0.00    +0.000 C 
BRANCH   8   9
ATOM      9  O   UNL     1       6.657   3.789  12.417  0.00  0.00    +0.000 OA
ATOM     10  H   UNL     1       7.291   4.527  12.414  0.00  0.00    +0.000 HD
ENDBRANCH   8   9
ENDBRANCH   6   8
ENDBRANCH   1   4
BRANCH   1  11
ATOM     11  C   UNL     1       3.347   5.397  17.678  0.00  0.00    +0.000 C 
BRANCH  11  18
ATOM     12  C   UNL     1       2.197   6.143  20.406  0.00  0.00    +0.000 C 
ATOM     13  C   UNL     1       1.880   4.839  19.724  0.00  0.00    +0.000 A 
ATOM     14  C   UNL     1       0.962   3.974  20.348  0.00  0.00    +0.000 A 
ATOM     15  C   UNL     1       0.611   2.760  19.766  0.00  0.00    +0.000 A 
ATOM     16  C   UNL     1       1.176   2.387  18.553  0.00  0.00    +0.000 A 
ATOM     17  C   UNL     1       2.079   3.238  17.913  0.00  0.00    +0.000 A 
ATOM     18  C   UNL     1       2.431   4.484  18.470  0.00  0.00    +0.000 A 
ENDBRANCH  11  18
ENDBRANCH   1  11
TORSDOF 5
ENDMDL
MODEL 9
REMARK VINA RESULT:      -6.2      1.194      1.459
REMARK  Name = 
REMARK  6 active torsions:
REMARK  status: ('A' for Active; 'I' for Inactive)
REMARK    1  A    between atoms: C_1  and  C_2
REMARK    2  A    between atoms: C_7  and  C_8
REMARK    3  A    between atoms: C_8  and  S_9
REMARK    4  A    between atoms: S_9  and  N_12
REMARK    5  A    between atoms: C_14  and  C_15
REMARK    6  A    between atoms: C_15  and  O_16
REMARK                            x       y       z     vdW  Elec       q    Type
REMARK                         _______ _______ _______ _____ _____    ______ ____
ROOT
ATOM      1  S   UNL     1       5.311   4.823  18.950  0.00  0.00    +0.000 S 
ATOM      2  O   UNL     1       4.170   5.681  18.698  0.00  0.00    +0.000 OA
ATOM      3  O   UNL     1       6.362   5.217  19.867  0.00  0.00    +0.000 OA
ENDROOT
BRANCH   1   4
ATOM      4  N   UNL     1       6.047   4.563  17.486  0.00  0.00    +0.000 NA
ATOM      5  C   UNL     1       7.439   4.576  17.013  0.00  0.00    +0.000 C 
ATOM      6  C   UNL     1       6.930   4.324  15.567  0.00  0.00    +0.000 C 
ATOM      7  C   UNL     1       5.585   3.935  16.234  0.00  0.00    +0.000 C 
BRANCH   6   8
ATOM      8  C   UNL     1       6.862   5.550  14.675  0.00  0.00    +0.000 C 
BRANCH   8   9
ATOM      9  O   UNL     1       7.603   5.300  13.484  0.00  0.00    +0.000 OA
ATOM     10  H   UNL     1       8.054   4.444  13.587  0.00  0.00    +0.000 HD
ENDBRANCH   8   9
ENDBRANCH   6   8
ENDBRANCH   1   4
BRANCH   1  11
ATOM     11  C   UNL     1       4.741   3.174  19.396  0.00  0.00    +0.000 C 
BRANCH  11  18
ATOM     12  C   UNL     1       2.656   2.489  17.273  0.00  0.00    +0.000 C 
ATOM     13  C   UNL     1       2.285   2.827  18.692  0.00  0.00    +0.000 A 
ATOM     14  C   UNL     1       0.927   2.751  19.055  0.00  0.00    +0.000 A 
ATOM     15  C   UNL     1       0.514   3.034  20.353  0.00  0.00    +0.000 A 
ATOM     16  C   UNL     1       1.451   3.405  21.310  0.00  0.00    +0.000 A 
ATOM     17  C   UNL     1       2.804   3.473  20.971  0.00  0.00    +0.000 A 
ATOM     18  C   UNL     1       3.249   3.166  19.669  0.00  0.00    +0.000 A 
ENDBRANCH  11  18
ENDBRANCH   1  11
TORSDOF 5
ENDMDL
