MODEL 1
REMARK VINA RESULT:      -6.3      0.000      0.000
REMARK  Name = 
REMARK  7 active torsions:
REMARK  status: ('A' for Active; 'I' for Inactive)
REMARK    1  A    between atoms: C_1  and  C_2
REMARK    2  A    between atoms: C_2  and  C_3
REMARK    3  A    between atoms: C_2  and  C_4
REMARK    4  A    between atoms: C_2  and  C_5
REMARK    5  A    between atoms: C_9  and  C_10
REMARK    6  A    between atoms: C_10  and  C_11
REMARK    7  A    between atoms: N_13  and  O_14
REMARK                            x       y       z     vdW  Elec       q    Type
REMARK                         _______ _______ _______ _____ _____    ______ ____
ROOT
ATOM      1  C   UNL     1       0.648  13.817  21.063  0.00  0.00    +0.000 C 
ATOM      2  N   UNL     1       1.113  12.441  20.845  0.00  0.00    +0.000 N 
ATOM      3  C   UNL     1       1.357  11.785  19.674  0.00  0.00    +0.000 C 
ATOM      4  O   UNL     1       2.065  12.254  18.793  0.00  0.00    +0.000 OA
ATOM      5  C   UNL     1       0.709  10.383  19.549  0.00  0.00    +0.000 C 
ATOM      6  C   UNL     1       0.477  10.127  18.019  0.00  0.00    +0.000 C 
ATOM      7  C   UNL     1      -0.857   9.510  17.535  0.00  0.00    +0.000 C 
ATOM      8  C   UNL     1      -1.969  10.540  17.239  0.00  0.00    +0.000 C 
ATOM      9  C   UNL     1      -3.237  10.352  18.085  0.00  0.00    +0.000 C 
ATOM     10  C   UNL     1      -4.277  11.471  17.865  0.00  0.00    +0.000 C 
ATOM     11  C   UNL     1      -4.887  11.992  19.184  0.00  0.00    +0.000 C 
ATOM     12  C   UNL     1      -3.899  12.872  19.958  0.00  0.00    +0.000 C 
ATOM     13  C   UNL     1      -4.156  12.945  21.473  0.00  0.00    +0.000 C 
ATOM     14  C   UNL     1      -3.074  13.694  22.287  0.00  0.00    +0.000 C 
ATOM     15  N   UNL     1      -1.804  13.756  21.591  0.00  0.00    +0.000 N 
ATOM     16  C   UNL     1      -0.543  13.632  22.099  0.00  0.00    +0.000 C 
ATOM     17  O   UNL     1      -0.343  13.231  23.253  0.00  0.00    +0.000 OA
ATOM     18  H   UNL     1       1.219  11.883  21.695  0.00  0.00    +0.000 HD
ATOM     19  H   UNL     1      -1.882  14.296  20.749  0.00  0.00    +0.000 HD
ENDROOT
BRANCH   1  21
ATOM     20  C   UNL     1      -0.439  14.172  18.658  0.00  0.00    +0.000 C 
ATOM     21  C   UNL     1       0.382  14.772  19.827  0.00  0.00    +0.000 C 
ATOM     22  C   UNL     1       1.715  15.241  19.192  0.00  0.00    +0.000 C 
ATOM     23  C   UNL     1      -0.325  16.054  20.353  0.00  0.00    +0.000 C 
ENDBRANCH   1  21
BRANCH   5  24
ATOM     24  C   UNL     1      -0.565  10.235  20.379  0.00  0.00    +0.000 C 
BRANCH  24  25
ATOM     25  C   UNL     1      -0.459   9.374  21.624  0.00  0.00    +0.000 C 
ATOM     26  O   UNL     1      -0.332   8.153  21.601  0.00  0.00    +0.000 OA
ATOM     27  N   UNL     1      -0.441  10.124  22.777  0.00  0.00    +0.000 N 
ATOM     28  H   UNL     1      -0.287  11.125  22.769  0.00  0.00    +0.000 HD
BRANCH  27  29
ATOM     29  O   UNL     1      -0.043   9.453  23.954  0.00  0.00    +0.000 OA
ATOM     30  H   UNL     1       0.368   8.628  23.607  0.00  0.00    +0.000 HD
ENDBRANCH  27  29
ENDBRANCH  24  25
ENDBRANCH   5  24
TORSDOF 4
ENDMDL
MODEL 2
REMARK VINA RESULT:      -5.7      0.605      1.047
REMARK  Name = 
REMARK  7 active torsions:
REMARK  status: ('A' for Active; 'I' for Inactive)
REMARK    1  A    between atoms: C_1  and  C_2
REMARK    2  A    between atoms: C_2  and  C_3
REMARK    3  A    between atoms: C_2  and  C_4
REMARK    4  A    between atoms: C_2  and  C_5
REMARK    5  A    between atoms: C_9  and  C_10
REMARK    6  A    between atoms: C_10  and  C_11
REMARK    7  A    between atoms: N_13  and  O_14
REMARK                            x       y       z     vdW  Elec       q    Type
REMARK                         _______ _______ _______ _____ _____    ______ ____
ROOT
ATOM      1  C   UNL     1       0.287  14.227  21.632  0.00  0.00    +0.000 C 
ATOM      2  N   UNL     1       0.902  12.910  21.428  0.00  0.00    +0.000 N 
ATOM      3  C   UNL     1       1.325  12.321  20.271  0.00  0.00    +0.000 C 
ATOM      4  O   UNL     1       2.068  12.885  19.480  0.00  0.00    +0.000 OA
ATOM      5  C   UNL     1       0.831  10.869  20.045  0.00  0.00    +0.000 C 
ATOM      6  C   UNL     1       0.780  10.647  18.493  0.00  0.00    +0.000 C 
ATOM      7  C   UNL     1      -0.433   9.925  17.859  0.00  0.00    +0.000 C 
ATOM      8  C   UNL     1      -1.605  10.855  17.476  0.00  0.00    +0.000 C 
ATOM      9  C   UNL     1      -2.926  10.519  18.183  0.00  0.00    +0.000 C 
ATOM     10  C   UNL     1      -4.043  11.543  17.885  0.00  0.00    +0.000 C 
ATOM     11  C   UNL     1      -4.829  11.956  19.147  0.00  0.00    +0.000 C 
ATOM     12  C   UNL     1      -4.014  12.898  20.041  0.00  0.00    +0.000 C 
ATOM     13  C   UNL     1      -4.427  12.893  21.522  0.00  0.00    +0.000 C 
ATOM     14  C   UNL     1      -3.510  13.712  22.463  0.00  0.00    +0.000 C 
ATOM     15  N   UNL     1      -2.188  13.917  21.903  0.00  0.00    +0.000 N 
ATOM     16  C   UNL     1      -0.979  13.895  22.535  0.00  0.00    +0.000 C 
ATOM     17  O   UNL     1      -0.856  13.474  23.693  0.00  0.00    +0.000 OA
ATOM     18  H   UNL     1       0.977  12.335  22.269  0.00  0.00    +0.000 HD
ATOM     19  H   UNL     1      -2.234  14.477  21.071  0.00  0.00    +0.000 HD
ENDROOT
BRANCH   1  21
ATOM     20  C   UNL     1       1.326  15.762  19.720  0.00  0.00    +0.000 C 
ATOM     21  C   UNL     1       0.054  15.196  20.399  0.00  0.00    +0.000 C 
ATOM     22  C   UNL     1      -0.774  16.436  20.818  0.00  0.00    +0.000 C 
ATOM     23  C   UNL     1      -0.803  14.435  19.346  0.00  0.00    +0.000 C 
ENDBRANCH   1  21
BRANCH   5  24
ATOM     24  C   UNL     1      -0.498  10.573  20.735  0.00  0.00    +0.000 C 
BRANCH  24  25
ATOM     25  C   UNL     1      -0.452   9.586  21.887  0.00  0.00    +0.000 C 
ATOM     26  O   UNL     1      -0.462   8.367  21.742  0.00  0.00    +0.000 OA
ATOM     27  N   UNL     1      -0.316  10.211  23.105  0.00  0.00    +0.000 N 
ATOM     28  H   UNL     1      -0.052  11.185  23.187  0.00  0.00    +0.000 HD
BRANCH  27  29
ATOM     29  O   UNL     1       0.039   9.387  24.195  0.00  0.00    +0.000 OA
ATOM     30  H   UNL     1      -0.622   8.658  24.144  0.00  0.00    +0.000 HD
ENDBRANCH  27  29
ENDBRANCH  24  25
ENDBRANCH   5  24
TORSDOF 4
ENDMDL
MODEL 3
REMARK VINA RESULT:      -5.7      7.736     11.115
REMARK  Name = 
REMARK  7 active torsions:
REMARK  status: ('A' for Active; 'I' for Inactive)
REMARK    1  A    between atoms: C_1  and  C_2
REMARK    2  A    between atoms: C_2  and  C_3
REMARK    3  A    between atoms: C_2  and  C_4
REMARK    4  A    between atoms: C_2  and  C_5
REMARK    5  A    between atoms: C_9  and  C_10
REMARK    6  A    between atoms: C_10  and  C_11
REMARK    7  A    between atoms: N_13  and  O_14
REMARK                            x       y       z     vdW  Elec       q    Type
REMARK                         _______ _______ _______ _____ _____    ______ ____
ROOT
ATOM      1  C   UNL     1      10.120  13.739  17.755  0.00  0.00    +0.000 C 
ATOM      2  N   UNL     1       8.993  14.634  17.467  0.00  0.00    +0.000 N 
ATOM      3  C   UNL     1       8.850  15.964  17.740  0.00  0.00    +0.000 C 
ATOM      4  O   UNL     1       9.696  16.792  17.433  0.00  0.00    +0.000 OA
ATOM      5  C   UNL     1       7.522  16.362  18.433  0.00  0.00    +0.000 C 
ATOM      6  C   UNL     1       7.820  17.653  19.271  0.00  0.00    +0.000 C 
ATOM      7  C   UNL     1       7.260  17.784  20.708  0.00  0.00    +0.000 C 
ATOM      8  C   UNL     1       8.176  17.204  21.808  0.00  0.00    +0.000 C 
ATOM      9  C   UNL     1       7.529  16.080  22.631  0.00  0.00    +0.000 C 
ATOM     10  C   UNL     1       8.510  15.430  23.632  0.00  0.00    +0.000 C 
ATOM     11  C   UNL     1       8.426  13.889  23.638  0.00  0.00    +0.000 C 
ATOM     12  C   UNL     1       9.078  13.280  22.391  0.00  0.00    +0.000 C 
ATOM     13  C   UNL     1       8.555  11.884  22.012  0.00  0.00    +0.000 C 
ATOM     14  C   UNL     1       9.084  11.328  20.667  0.00  0.00    +0.000 C 
ATOM     15  N   UNL     1       9.558  12.377  19.785  0.00  0.00    +0.000 N 
ATOM     16  C   UNL     1       9.418  12.484  18.432  0.00  0.00    +0.000 C 
ATOM     17  O   UNL     1       8.650  11.751  17.796  0.00  0.00    +0.000 OA
ATOM     18  H   UNL     1       8.180  14.180  17.046  0.00  0.00    +0.000 HD
ATOM     19  H   UNL     1      10.356  12.843  20.178  0.00  0.00    +0.000 HD
ENDROOT
BRANCH   1  21
ATOM     20  C   UNL     1      12.333  15.214  17.606  0.00  0.00    +0.000 C 
ATOM     21  C   UNL     1      11.421  14.302  18.465  0.00  0.00    +0.000 C 
ATOM     22  C   UNL     1      12.333  13.147  18.947  0.00  0.00    +0.000 C 
ATOM     23  C   UNL     1      10.977  15.069  19.744  0.00  0.00    +0.000 C 
ENDBRANCH   1  21
BRANCH   5  24
ATOM     24  C   UNL     1       6.919  15.234  19.266  0.00  0.00    +0.000 C 
BRANCH  24  25
ATOM     25  C   UNL     1       5.458  14.914  19.006  0.00  0.00    +0.000 C 
ATOM     26  O   UNL     1       4.608  14.840  19.889  0.00  0.00    +0.000 OA
ATOM     27  N   UNL     1       5.181  14.794  17.664  0.00  0.00    +0.000 N 
ATOM     28  H   UNL     1       5.826  15.108  16.949  0.00  0.00    +0.000 HD
BRANCH  27  29
ATOM     29  O   UNL     1       3.816  14.801  17.304  0.00  0.00    +0.000 OA
ATOM     30  H   UNL     1       3.621  13.846  17.165  0.00  0.00    +0.000 HD
ENDBRANCH  27  29
ENDBRANCH  24  25
ENDBRANCH   5  24
TORSDOF 4
ENDMDL
MODEL 4
REMARK VINA RESULT:      -5.6      7.576     11.061
REMARK  Name = 
REMARK  7 active torsions:
REMARK  status: ('A' for Active; 'I' for Inactive)
REMARK    1  A    between atoms: C_1  and  C_2
REMARK    2  A    between atoms: C_2  and  C_3
REMARK    3  A    between atoms: C_2  and  C_4
REMARK    4  A    between atoms: C_2  and  C_5
REMARK    5  A    between atoms: C_9  and  C_10
REMARK    6  A    between atoms: C_10  and  C_11
REMARK    7  A    between atoms: N_13  and  O_14
REMARK                            x       y       z     vdW  Elec       q    Type
REMARK                         _______ _______ _______ _____ _____    ______ ____
ROOT
ATOM      1  C   UNL     1      10.045  14.529  17.746  0.00  0.00    +0.000 C 
ATOM      2  N   UNL     1       8.813  15.314  17.602  0.00  0.00    +0.000 N 
ATOM      3  C   UNL     1       8.513  16.553  18.090  0.00  0.00    +0.000 C 
ATOM      4  O   UNL     1       9.248  17.518  17.931  0.00  0.00    +0.000 OA
ATOM      5  C   UNL     1       7.156  16.666  18.830  0.00  0.00    +0.000 C 
ATOM      6  C   UNL     1       7.306  17.828  19.873  0.00  0.00    +0.000 C 
ATOM      7  C   UNL     1       6.753  17.650  21.307  0.00  0.00    +0.000 C 
ATOM      8  C   UNL     1       7.747  17.012  22.303  0.00  0.00    +0.000 C 
ATOM      9  C   UNL     1       7.254  15.698  22.924  0.00  0.00    +0.000 C 
ATOM     10  C   UNL     1       8.319  15.016  23.810  0.00  0.00    +0.000 C 
ATOM     11  C   UNL     1       8.423  13.496  23.560  0.00  0.00    +0.000 C 
ATOM     12  C   UNL     1       9.128  13.186  22.235  0.00  0.00    +0.000 C 
ATOM     13  C   UNL     1       8.773  11.819  21.625  0.00  0.00    +0.000 C 
ATOM     14  C   UNL     1       9.348  11.561  20.211  0.00  0.00    +0.000 C 
ATOM     15  N   UNL     1       9.679  12.791  19.518  0.00  0.00    +0.000 N 
ATOM     16  C   UNL     1       9.509  13.103  18.201  0.00  0.00    +0.000 C 
ATOM     17  O   UNL     1       8.827  12.396  17.447  0.00  0.00    +0.000 OA
ATOM     18  H   UNL     1       8.056  14.840  17.106  0.00  0.00    +0.000 HD
ATOM     19  H   UNL     1      10.420  13.280  19.988  0.00  0.00    +0.000 HD
ENDROOT
BRANCH   1  21
ATOM     20  C   UNL     1      10.963  15.738  19.934  0.00  0.00    +0.000 C 
ATOM     21  C   UNL     1      11.277  15.121  18.548  0.00  0.00    +0.000 C 
ATOM     22  C   UNL     1      11.970  16.250  17.745  0.00  0.00    +0.000 C 
ATOM     23  C   UNL     1      12.333  13.990  18.710  0.00  0.00    +0.000 C 
ENDBRANCH   1  21
BRANCH   5  24
ATOM     24  C   UNL     1       6.706  15.351  19.461  0.00  0.00    +0.000 C 
BRANCH  24  25
ATOM     25  C   UNL     1       5.290  14.903  19.143  0.00  0.00    +0.000 C 
ATOM     26  O   UNL     1       4.398  14.816  19.981  0.00  0.00    +0.000 OA
ATOM     27  N   UNL     1       5.102  14.684  17.798  0.00  0.00    +0.000 N 
ATOM     28  H   UNL     1       5.762  15.004  17.100  0.00  0.00    +0.000 HD
BRANCH  27  29
ATOM     29  O   UNL     1       3.764  14.563  17.365  0.00  0.00    +0.000 OA
ATOM     30  H   UNL     1       3.718  13.631  17.051  0.00  0.00    +0.000 HD
ENDBRANCH  27  29
ENDBRANCH  24  25
ENDBRANCH   5  24
TORSDOF 4
ENDMDL
MODEL 5
REMARK VINA RESULT:      -5.4      2.723      5.195
REMARK  Name = 
REMARK  7 active torsions:
REMARK  status: ('A' for Active; 'I' for Inactive)
REMARK    1  A    between atoms: C_1  and  C_2
REMARK    2  A    between atoms: C_2  and  C_3
REMARK    3  A    between atoms: C_2  and  C_4
REMARK    4  A    between atoms: C_2  and  C_5
REMARK    5  A    between atoms: C_9  and  C_10
REMARK    6  A    between atoms: C_10  and  C_11
REMARK    7  A    between atoms: N_13  and  O_14
REMARK                            x       y       z     vdW  Elec       q    Type
REMARK                         _______ _______ _______ _____ _____    ______ ____
ROOT
ATOM      1  C   UNL     1      -2.828  15.037  22.654  0.00  0.00    +0.000 C 
ATOM      2  N   UNL     1      -2.774  13.646  22.187  0.00  0.00    +0.000 N 
ATOM      3  C   UNL     1      -1.794  12.712  22.360  0.00  0.00    +0.000 C 
ATOM      4  O   UNL     1      -1.321  12.452  23.458  0.00  0.00    +0.000 OA
ATOM      5  C   UNL     1      -1.347  11.971  21.074  0.00  0.00    +0.000 C 
ATOM      6  C   UNL     1       0.144  11.539  21.298  0.00  0.00    +0.000 C 
ATOM      7  C   UNL     1       1.177  11.721  20.160  0.00  0.00    +0.000 C 
ATOM      8  C   UNL     1       1.878  13.097  20.144  0.00  0.00    +0.000 C 
ATOM      9  C   UNL     1       1.664  13.893  18.849  0.00  0.00    +0.000 C 
ATOM     10  C   UNL     1       2.263  15.315  18.913  0.00  0.00    +0.000 C 
ATOM     11  C   UNL     1       1.311  16.392  18.349  0.00  0.00    +0.000 C 
ATOM     12  C   UNL     1       0.154  16.686  19.310  0.00  0.00    +0.000 C 
ATOM     13  C   UNL     1      -1.107  17.257  18.639  0.00  0.00    +0.000 C 
ATOM     14  C   UNL     1      -2.336  17.405  19.569  0.00  0.00    +0.000 C 
ATOM     15  N   UNL     1      -2.253  16.545  20.733  0.00  0.00    +0.000 N 
ATOM     16  C   UNL     1      -3.247  15.838  21.346  0.00  0.00    +0.000 C 
ATOM     17  O   UNL     1      -4.358  15.687  20.822  0.00  0.00    +0.000 OA
ATOM     18  H   UNL     1      -3.564  13.356  21.607  0.00  0.00    +0.000 HD
ATOM     19  H   UNL     1      -1.481  16.807  21.319  0.00  0.00    +0.000 HD
ENDROOT
BRANCH   1  21
ATOM     20  C   UNL     1      -0.208  15.406  22.957  0.00  0.00    +0.000 C 
ATOM     21  C   UNL     1      -1.637  15.635  23.511  0.00  0.00    +0.000 C 
ATOM     22  C   UNL     1      -1.624  15.034  24.938  0.00  0.00    +0.000 C 
ATOM     23  C   UNL     1      -1.888  17.161  23.684  0.00  0.00    +0.000 C 
ENDBRANCH   1  21
BRANCH   5  24
ATOM     24  C   UNL     1      -1.545  12.799  19.806  0.00  0.00    +0.000 C 
BRANCH  24  25
ATOM     25  C   UNL     1      -2.179  12.080  18.628  0.00  0.00    +0.000 C 
ATOM     26  O   UNL     1      -3.252  11.488  18.687  0.00  0.00    +0.000 OA
ATOM     27  N   UNL     1      -1.452  12.236  17.470  0.00  0.00    +0.000 N 
ATOM     28  H   UNL     1      -0.720  12.930  17.380  0.00  0.00    +0.000 HD
BRANCH  27  29
ATOM     29  O   UNL     1      -2.102  11.872  16.271  0.00  0.00    +0.000 OA
ATOM     30  H   UNL     1      -1.507  11.180  15.901  0.00  0.00    +0.000 HD
ENDBRANCH  27  29
ENDBRANCH  24  25
ENDBRANCH   5  24
TORSDOF 4
ENDMDL
MODEL 6
REMARK VINA RESULT:      -5.2      1.064      1.385
REMARK  Name = 
REMARK  7 active torsions:
REMARK  status: ('A' for Active; 'I' for Inactive)
REMARK    1  A    between atoms: C_1  and  C_2
REMARK    2  A    between atoms: C_2  and  C_3
REMARK    3  A    between atoms: C_2  and  C_4
REMARK    4  A    between atoms: C_2  and  C_5
REMARK    5  A    between atoms: C_9  and  C_10
REMARK    6  A    between atoms: C_10  and  C_11
REMARK    7  A    between atoms: N_13  and  O_14
REMARK                            x       y       z     vdW  Elec       q    Type
REMARK                         _______ _______ _______ _____ _____    ______ ____
ROOT
ATOM      1  C   UNL     1       0.025  14.568  21.124  0.00  0.00    +0.000 C 
ATOM      2  N   UNL     1       0.705  13.278  21.293  0.00  0.00    +0.000 N 
ATOM      3  C   UNL     1       1.315  12.491  20.360  0.00  0.00    +0.000 C 
ATOM      4  O   UNL     1       2.150  12.926  19.579  0.00  0.00    +0.000 OA
ATOM      5  C   UNL     1       0.906  10.996  20.380  0.00  0.00    +0.000 C 
ATOM      6  C   UNL     1       1.096  10.457  18.920  0.00  0.00    +0.000 C 
ATOM      7  C   UNL     1       0.015   9.546  18.290  0.00  0.00    +0.000 C 
ATOM      8  C   UNL     1      -1.115  10.303  17.557  0.00  0.00    +0.000 C 
ATOM      9  C   UNL     1      -2.516  10.038  18.126  0.00  0.00    +0.000 C 
ATOM     10  C   UNL     1      -3.607  10.907  17.463  0.00  0.00    +0.000 C 
ATOM     11  C   UNL     1      -4.586  11.522  18.485  0.00  0.00    +0.000 C 
ATOM     12  C   UNL     1      -3.944  12.676  19.264  0.00  0.00    +0.000 C 
ATOM     13  C   UNL     1      -4.575  12.951  20.639  0.00  0.00    +0.000 C 
ATOM     14  C   UNL     1      -3.836  14.001  21.504  0.00  0.00    +0.000 C 
ATOM     15  N   UNL     1      -2.452  14.168  21.104  0.00  0.00    +0.000 N 
ATOM     16  C   UNL     1      -1.351  14.351  21.890  0.00  0.00    +0.000 C 
ATOM     17  O   UNL     1      -1.392  14.186  23.116  0.00  0.00    +0.000 OA
ATOM     18  H   UNL     1       0.669  12.894  22.240  0.00  0.00    +0.000 HD
ATOM     19  H   UNL     1      -2.389  14.541  20.174  0.00  0.00    +0.000 HD
ENDROOT
BRANCH   1  21
ATOM     20  C   UNL     1      -1.070  16.401  19.531  0.00  0.00    +0.000 C 
ATOM     21  C   UNL     1      -0.050  15.246  19.693  0.00  0.00    +0.000 C 
ATOM     22  C   UNL     1      -0.430  14.209  18.608  0.00  0.00    +0.000 C 
ATOM     23  C   UNL     1       1.374  15.756  19.328  0.00  0.00    +0.000 C 
ENDBRANCH   1  21
BRANCH   5  24
ATOM     24  C   UNL     1      -0.502  10.767  20.923  0.00  0.00    +0.000 C 
BRANCH  24  25
ATOM     25  C   UNL     1      -0.618  10.555  22.422  0.00  0.00    +0.000 C 
ATOM     26  O   UNL     1      -1.537  10.998  23.105  0.00  0.00    +0.000 OA
ATOM     27  N   UNL     1       0.381   9.745  22.913  0.00  0.00    +0.000 N 
ATOM     28  H   UNL     1       0.970   9.187  22.308  0.00  0.00    +0.000 HD
BRANCH  27  29
ATOM     29  O   UNL     1       0.193   9.244  24.219  0.00  0.00    +0.000 OA
ATOM     30  H   UNL     1      -0.758   8.990  24.223  0.00  0.00    +0.000 HD
ENDBRANCH  27  29
ENDBRANCH  24  25
ENDBRANCH   5  24
TORSDOF 4
ENDMDL
MODEL 7
REMARK VINA RESULT:      -5.1      1.839      2.588
REMARK  Name = 
REMARK  7 active torsions:
REMARK  status: ('A' for Active; 'I' for Inactive)
REMARK    1  A    between atoms: C_1  and  C_2
REMARK    2  A    between atoms: C_2  and  C_3
REMARK    3  A    between atoms: C_2  and  C_4
REMARK    4  A    between atoms: C_2  and  C_5
REMARK    5  A    between atoms: C_9  and  C_10
REMARK    6  A    between atoms: C_10  and  C_11
REMARK    7  A    between atoms: N_13  and  O_14
REMARK                            x       y       z     vdW  Elec       q    Type
REMARK                         _______ _______ _______ _____ _____    ______ ____
ROOT
ATOM      1  C   UNL     1       2.488  15.018  20.231  0.00  0.00    +0.000 C 
ATOM      2  N   UNL     1       2.518  13.560  20.059  0.00  0.00    +0.000 N 
ATOM      3  C   UNL     1       1.947  12.791  19.087  0.00  0.00    +0.000 C 
ATOM      4  O   UNL     1       2.099  13.020  17.895  0.00  0.00    +0.000 OA
ATOM      5  C   UNL     1       1.125  11.579  19.595  0.00  0.00    +0.000 C 
ATOM      6  C   UNL     1       0.032  11.289  18.507  0.00  0.00    +0.000 C 
ATOM      7  C   UNL     1      -1.421  10.980  18.940  0.00  0.00    +0.000 C 
ATOM      8  C   UNL     1      -2.321  12.224  19.101  0.00  0.00    +0.000 C 
ATOM      9  C   UNL     1      -2.900  12.399  20.512  0.00  0.00    +0.000 C 
ATOM     10  C   UNL     1      -3.685  13.718  20.680  0.00  0.00    +0.000 C 
ATOM     11  C   UNL     1      -3.349  14.453  21.995  0.00  0.00    +0.000 C 
ATOM     12  C   UNL     1      -1.970  15.119  21.938  0.00  0.00    +0.000 C 
ATOM     13  C   UNL     1      -1.311  15.348  23.309  0.00  0.00    +0.000 C 
ATOM     14  C   UNL     1       0.147  15.868  23.259  0.00  0.00    +0.000 C 
ATOM     15  N   UNL     1       0.791  15.579  21.993  0.00  0.00    +0.000 N 
ATOM     16  C   UNL     1       2.079  15.191  21.758  0.00  0.00    +0.000 C 
ATOM     17  O   UNL     1       2.827  14.828  22.674  0.00  0.00    +0.000 OA
ATOM     18  H   UNL     1       2.993  13.049  20.806  0.00  0.00    +0.000 HD
ATOM     19  H   UNL     1       0.341  16.067  21.240  0.00  0.00    +0.000 HD
ENDROOT
BRANCH   1  21
ATOM     20  C   UNL     1       0.301  15.477  18.782  0.00  0.00    +0.000 C 
ATOM     21  C   UNL     1       1.730  15.928  19.178  0.00  0.00    +0.000 C 
ATOM     22  C   UNL     1       2.517  16.009  17.847  0.00  0.00    +0.000 C 
ATOM     23  C   UNL     1       1.679  17.377  19.743  0.00  0.00    +0.000 C 
ENDBRANCH   1  21
BRANCH   5  24
ATOM     24  C   UNL     1       0.538  11.794  20.988  0.00  0.00    +0.000 C 
BRANCH  24  25
ATOM     25  C   UNL     1       0.502  10.578  21.896  0.00  0.00    +0.000 C 
ATOM     26  O   UNL     1       1.478   9.872  22.130  0.00  0.00    +0.000 OA
ATOM     27  N   UNL     1      -0.729  10.405  22.486  0.00  0.00    +0.000 N 
ATOM     28  H   UNL     1      -1.435  11.130  22.487  0.00  0.00    +0.000 HD
BRANCH  27  29
ATOM     29  O   UNL     1      -0.781   9.498  23.567  0.00  0.00    +0.000 OA
ATOM     30  H   UNL     1      -0.749   8.621  23.120  0.00  0.00    +0.000 HD
ENDBRANCH  27  29
ENDBRANCH  24  25
ENDBRANCH   5  24
TORSDOF 4
ENDMDL
MODEL 8
REMARK VINA RESULT:      -5.1      8.394     11.503
REMARK  Name = 
REMARK  7 active torsions:
REMARK  status: ('A' for Active; 'I' for Inactive)
REMARK    1  A    between atoms: C_1  and  C_2
REMARK    2  A    between atoms: C_2  and  C_3
REMARK    3  A    between atoms: C_2  and  C_4
REMARK    4  A    between atoms: C_2  and  C_5
REMARK    5  A    between atoms: C_9  and  C_10
REMARK    6  A    between atoms: C_10  and  C_11
REMARK    7  A    between atoms: N_13  and  O_14
REMARK                            x       y       z     vdW  Elec       q    Type
REMARK                         _______ _______ _______ _____ _____    ______ ____
ROOT
ATOM      1  C   UNL     1       7.067  16.393  20.647  0.00  0.00    +0.000 C 
ATOM      2  N   UNL     1       8.237  17.226  20.342  0.00  0.00    +0.000 N 
ATOM      3  C   UNL     1       8.778  17.549  19.131  0.00  0.00    +0.000 C 
ATOM      4  O   UNL     1       8.110  18.002  18.212  0.00  0.00    +0.000 OA
ATOM      5  C   UNL     1      10.309  17.341  19.011  0.00  0.00    +0.000 C 
ATOM      6  C   UNL     1      10.608  17.060  17.497  0.00  0.00    +0.000 C 
ATOM      7  C   UNL     1      11.594  15.933  17.104  0.00  0.00    +0.000 C 
ATOM      8  C   UNL     1      10.944  14.542  16.938  0.00  0.00    +0.000 C 
ATOM      9  C   UNL     1      11.513  13.470  17.880  0.00  0.00    +0.000 C 
ATOM     10  C   UNL     1      10.756  12.127  17.787  0.00  0.00    +0.000 C 
ATOM     11  C   UNL     1      10.456  11.511  19.170  0.00  0.00    +0.000 C 
ATOM     12  C   UNL     1       9.327  12.256  19.890  0.00  0.00    +0.000 C 
ATOM     13  C   UNL     1       9.349  12.127  21.423  0.00  0.00    +0.000 C 
ATOM     14  C   UNL     1       8.316  13.004  22.171  0.00  0.00    +0.000 C 
ATOM     15  N   UNL     1       7.869  14.130  21.374  0.00  0.00    +0.000 N 
ATOM     16  C   UNL     1       7.611  15.410  21.771  0.00  0.00    +0.000 C 
ATOM     17  O   UNL     1       7.944  15.825  22.889  0.00  0.00    +0.000 OA
ATOM     18  H   UNL     1       8.745  17.571  21.159  0.00  0.00    +0.000 HD
ATOM     19  H   UNL     1       7.369  13.818  20.561  0.00  0.00    +0.000 HD
ENDROOT
BRANCH   1  21
ATOM     20  C   UNL     1       7.025  14.943  18.414  0.00  0.00    +0.000 C 
ATOM     21  C   UNL     1       6.225  15.743  19.472  0.00  0.00    +0.000 C 
ATOM     22  C   UNL     1       5.460  16.827  18.674  0.00  0.00    +0.000 C 
ATOM     23  C   UNL     1       5.142  14.825  20.108  0.00  0.00    +0.000 C 
ENDBRANCH   1  21
BRANCH   5  24
ATOM     24  C   UNL     1      10.841  16.250  19.937  0.00  0.00    +0.000 C 
BRANCH  24  25
ATOM     25  C   UNL     1      11.307  16.703  21.309  0.00  0.00    +0.000 C 
ATOM     26  O   UNL     1      11.938  17.738  21.508  0.00  0.00    +0.000 OA
ATOM     27  N   UNL     1      10.875  15.864  22.310  0.00  0.00    +0.000 N 
ATOM     28  H   UNL     1      10.151  15.172  22.161  0.00  0.00    +0.000 HD
BRANCH  27  29
ATOM     29  O   UNL     1      10.992  16.353  23.629  0.00  0.00    +0.000 OA
ATOM     30  H   UNL     1      11.519  15.652  24.078  0.00  0.00    +0.000 HD
ENDBRANCH  27  29
ENDBRANCH  24  25
ENDBRANCH   5  24
TORSDOF 4
ENDMDL
MODEL 9
REMARK VINA RESULT:      -5.1      1.168      1.411
REMARK  Name = 
REMARK  7 active torsions:
REMARK  status: ('A' for Active; 'I' for Inactive)
REMARK    1  A    between atoms: C_1  and  C_2
REMARK    2  A    between atoms: C_2  and  C_3
REMARK    3  A    between atoms: C_2  and  C_4
REMARK    4  A    between atoms: C_2  and  C_5
REMARK    5  A    between atoms: C_9  and  C_10
REMARK    6  A    between atoms: C_10  and  C_11
REMARK    7  A    between atoms: N_13  and  O_14
REMARK                            x       y       z     vdW  Elec       q    Type
REMARK                         _______ _______ _______ _____ _____    ______ ____
ROOT
ATOM      1  C   UNL     1       0.536  15.179  21.475  0.00  0.00    +0.000 C 
ATOM      2  N   UNL     1       1.166  13.853  21.452  0.00  0.00    +0.000 N 
ATOM      3  C   UNL     1       1.553  13.095  20.385  0.00  0.00    +0.000 C 
ATOM      4  O   UNL     1       2.253  13.538  19.485  0.00  0.00    +0.000 OA
ATOM      5  C   UNL     1       1.076  11.621  20.409  0.00  0.00    +0.000 C 
ATOM      6  C   UNL     1       0.967  11.158  18.914  0.00  0.00    +0.000 C 
ATOM      7  C   UNL     1      -0.257  10.332  18.452  0.00  0.00    +0.000 C 
ATOM      8  C   UNL     1      -1.460  11.177  17.979  0.00  0.00    +0.000 C 
ATOM      9  C   UNL     1      -2.746  10.940  18.784  0.00  0.00    +0.000 C 
ATOM     10  C   UNL     1      -3.892  11.893  18.378  0.00  0.00    +0.000 C 
ATOM     11  C   UNL     1      -4.634  12.490  19.592  0.00  0.00    +0.000 C 
ATOM     12  C   UNL     1      -3.801  13.569  20.293  0.00  0.00    +0.000 C 
ATOM     13  C   UNL     1      -4.154  13.790  21.774  0.00  0.00    +0.000 C 
ATOM     14  C   UNL     1      -3.215  14.757  22.536  0.00  0.00    +0.000 C 
ATOM     15  N   UNL     1      -1.921  14.887  21.895  0.00  0.00    +0.000 N 
ATOM     16  C   UNL     1      -0.687  14.978  22.471  0.00  0.00    +0.000 C 
ATOM     17  O   UNL     1      -0.511  14.745  23.674  0.00  0.00    +0.000 OA
ATOM     18  H   UNL     1       1.284  13.418  22.369  0.00  0.00    +0.000 HD
ATOM     19  H   UNL     1      -2.009  15.309  20.989  0.00  0.00    +0.000 HD
ENDROOT
BRANCH   1  21
ATOM     20  C   UNL     1      -0.456  15.115  19.004  0.00  0.00    +0.000 C 
ATOM     21  C   UNL     1       0.236  15.940  20.117  0.00  0.00    +0.000 C 
ATOM     22  C   UNL     1       1.544  16.472  19.480  0.00  0.00    +0.000 C 
ATOM     23  C   UNL     1      -0.627  17.192  20.448  0.00  0.00    +0.000 C 
ENDBRANCH   1  21
BRANCH   5  24
ATOM     24  C   UNL     1      -0.219  11.422  21.192  0.00  0.00    +0.000 C 
BRANCH  24  25
ATOM     25  C   UNL     1      -0.211  10.316  22.232  0.00  0.00    +0.000 C 
ATOM     26  O   UNL     1      -0.080  10.513  23.437  0.00  0.00    +0.000 OA
ATOM     27  N   UNL     1      -0.448   9.078  21.680  0.00  0.00    +0.000 N 
ATOM     28  H   UNL     1      -0.806   8.965  20.739  0.00  0.00    +0.000 HD
BRANCH  27  29
ATOM     29  O   UNL     1      -0.760   8.040  22.583  0.00  0.00    +0.000 OA
ATOM     30  H   UNL     1       0.028   8.017  23.173  0.00  0.00    +0.000 HD
ENDBRANCH  27  29
ENDBRANCH  24  25
ENDBRANCH   5  24
TORSDOF 4
ENDMDL
