MODEL 1
REMARK VINA RESULT:      -6.7      0.000      0.000
REMARK  Name = 
REMARK  7 active torsions:
REMARK  status: ('A' for Active; 'I' for Inactive)
REMARK    1  A    between atoms: C_1  and  C_2
REMARK    2  A    between atoms: N_3  and  C_4
REMARK    3  A    between atoms: C_4  and  C_5
REMARK    4  A    between atoms: C_5  and  C_6
REMARK    5  A    between atoms: C_6  and  O_7
REMARK    6  A    between atoms: C_14  and  C_15
REMARK    7  A    between atoms: C_14  and  C_16
REMARK                            x       y       z     vdW  Elec       q    Type
REMARK                         _______ _______ _______ _____ _____    ______ ____
ROOT
ATOM      1  C   UNL     1       2.095   5.265  20.031  0.00  0.00    +0.000 C 
ATOM      2  C   UNL     1       3.296   4.348  19.702  0.00  0.00    +0.000 C 
ATOM      3  N   UNL     1       3.577   4.507  18.240  0.00  0.00    +0.000 NA
ATOM      4  C   UNL     1       2.560   3.760  17.478  0.00  0.00    +0.000 C 
ATOM      5  C   UNL     1       2.357   2.313  17.939  0.00  0.00    +0.000 C 
ATOM      6  O   UNL     1       2.066   2.213  19.341  0.00  0.00    +0.000 OA
ATOM      7  C   UNL     1       3.048   2.859  20.181  0.00  0.00    +0.000 C 
ATOM      8  C   UNL     1       4.331   2.006  20.236  0.00  0.00    +0.000 C 
ATOM      9  C   UNL     1       2.460   2.822  21.607  0.00  0.00    +0.000 C 
ENDROOT
BRANCH   3  10
ATOM     10  C   UNL     1       4.971   4.194  17.886  0.00  0.00    +0.000 C 
BRANCH  10  11
ATOM     11  C   UNL     1       6.023   4.918  18.739  0.00  0.00    +0.000 C 
BRANCH  11  12
ATOM     12  C   UNL     1       6.999   5.718  17.865  0.00  0.00    +0.000 C 
ATOM     13  C   UNL     1       7.940   6.653  18.683  0.00  0.00    +0.000 C 
ATOM     14  C   UNL     1       7.766   7.709  17.578  0.00  0.00    +0.000 C 
ATOM     15  C   UNL     1       6.436   7.020  17.212  0.00  0.00    +0.000 C 
BRANCH  12  16
ATOM     16  O   UNL     1       7.677   4.836  16.939  0.00  0.00    +0.000 OA
ATOM     17  H   UNL     1       8.380   4.409  17.461  0.00  0.00    +0.000 HD
ENDBRANCH  12  16
ENDBRANCH  11  12
ENDBRANCH  10  11
ENDBRANCH   3  10
TORSDOF 4
ENDMDL
MODEL 2
REMARK VINA RESULT:      -6.6      1.400      1.860
REMARK  Name = 
REMARK  7 active torsions:
REMARK  status: ('A' for Active; 'I' for Inactive)
REMARK    1  A    between atoms: C_1  and  C_2
REMARK    2  A    between atoms: N_3  and  C_4
REMARK    3  A    between atoms: C_4  and  C_5
REMARK    4  A    between atoms: C_5  and  C_6
REMARK    5  A    between atoms: C_6  and  O_7
REMARK    6  A    between atoms: C_14  and  C_15
REMARK    7  A    between atoms: C_14  and  C_16
REMARK                            x       y       z     vdW  Elec       q    Type
REMARK                         _______ _______ _______ _____ _____    ______ ____
ROOT
ATOM      1  C   UNL     1       2.014   5.347  20.115  0.00  0.00    +0.000 C 
ATOM      2  C   UNL     1       3.280   4.491  19.877  0.00  0.00    +0.000 C 
ATOM      3  N   UNL     1       3.728   4.759  18.474  0.00  0.00    +0.000 NA
ATOM      4  C   UNL     1       2.839   4.036  17.546  0.00  0.00    +0.000 C 
ATOM      5  C   UNL     1       2.636   2.556  17.884  0.00  0.00    +0.000 C 
ATOM      6  O   UNL     1       2.183   2.351  19.230  0.00  0.00    +0.000 OA
ATOM      7  C   UNL     1       3.031   2.966  20.225  0.00  0.00    +0.000 C 
ATOM      8  C   UNL     1       4.330   2.149  20.381  0.00  0.00    +0.000 C 
ATOM      9  C   UNL     1       2.278   2.814  21.563  0.00  0.00    +0.000 C 
ENDROOT
BRANCH   3  10
ATOM     10  C   UNL     1       5.165   4.511  18.273  0.00  0.00    +0.000 C 
BRANCH  10  11
ATOM     11  C   UNL     1       5.985   5.764  17.930  0.00  0.00    +0.000 C 
BRANCH  11  12
ATOM     12  C   UNL     1       6.516   5.709  16.491  0.00  0.00    +0.000 C 
ATOM     13  C   UNL     1       5.397   5.835  15.413  0.00  0.00    +0.000 C 
ATOM     14  C   UNL     1       6.145   4.772  14.589  0.00  0.00    +0.000 C 
ATOM     15  C   UNL     1       6.784   4.287  15.905  0.00  0.00    +0.000 C 
BRANCH  12  16
ATOM     16  O   UNL     1       7.618   6.633  16.331  0.00  0.00    +0.000 OA
ATOM     17  H   UNL     1       7.577   7.218  17.110  0.00  0.00    +0.000 HD
ENDBRANCH  12  16
ENDBRANCH  11  12
ENDBRANCH  10  11
ENDBRANCH   3  10
TORSDOF 4
ENDMDL
MODEL 3
REMARK VINA RESULT:      -6.5      1.638      5.736
REMARK  Name = 
REMARK  7 active torsions:
REMARK  status: ('A' for Active; 'I' for Inactive)
REMARK    1  A    between atoms: C_1  and  C_2
REMARK    2  A    between atoms: N_3  and  C_4
REMARK    3  A    between atoms: C_4  and  C_5
REMARK    4  A    between atoms: C_5  and  C_6
REMARK    5  A    between atoms: C_6  and  O_7
REMARK    6  A    between atoms: C_14  and  C_15
REMARK    7  A    between atoms: C_14  and  C_16
REMARK                            x       y       z     vdW  Elec       q    Type
REMARK                         _______ _______ _______ _____ _____    ______ ____
ROOT
ATOM      1  C   UNL     1       7.756   4.590  17.793  0.00  0.00    +0.000 C 
ATOM      2  C   UNL     1       6.273   5.025  17.756  0.00  0.00    +0.000 C 
ATOM      3  N   UNL     1       5.493   3.864  17.224  0.00  0.00    +0.000 NA
ATOM      4  C   UNL     1       5.698   3.783  15.766  0.00  0.00    +0.000 C 
ATOM      5  C   UNL     1       5.476   5.102  15.019  0.00  0.00    +0.000 C 
ATOM      6  O   UNL     1       6.262   6.179  15.549  0.00  0.00    +0.000 OA
ATOM      7  C   UNL     1       6.078   6.385  16.966  0.00  0.00    +0.000 C 
ATOM      8  C   UNL     1       4.715   7.058  17.224  0.00  0.00    +0.000 C 
ATOM      9  C   UNL     1       7.142   7.425  17.376  0.00  0.00    +0.000 C 
ENDROOT
BRANCH   3  10
ATOM     10  C   UNL     1       4.084   3.874  17.651  0.00  0.00    +0.000 C 
BRANCH  10  11
ATOM     11  C   UNL     1       3.524   2.496  18.033  0.00  0.00    +0.000 C 
BRANCH  11  12
ATOM     12  C   UNL     1       2.208   2.621  18.812  0.00  0.00    +0.000 C 
ATOM     13  C   UNL     1       1.529   4.016  18.661  0.00  0.00    +0.000 C 
ATOM     14  C   UNL     1       1.158   3.939  20.153  0.00  0.00    +0.000 C 
ATOM     15  C   UNL     1       2.332   2.956  20.333  0.00  0.00    +0.000 C 
BRANCH  12  16
ATOM     16  O   UNL     1       1.347   1.495  18.522  0.00  0.00    +0.000 OA
ATOM     17  H   UNL     1       0.997   1.211  19.386  0.00  0.00    +0.000 HD
ENDBRANCH  12  16
ENDBRANCH  11  12
ENDBRANCH  10  11
ENDBRANCH   3  10
TORSDOF 4
ENDMDL
MODEL 4
REMARK VINA RESULT:      -6.5      1.510      2.693
REMARK  Name = 
REMARK  7 active torsions:
REMARK  status: ('A' for Active; 'I' for Inactive)
REMARK    1  A    between atoms: C_1  and  C_2
REMARK    2  A    between atoms: N_3  and  C_4
REMARK    3  A    between atoms: C_4  and  C_5
REMARK    4  A    between atoms: C_5  and  C_6
REMARK    5  A    between atoms: C_6  and  O_7
REMARK    6  A    between atoms: C_14  and  C_15
REMARK    7  A    between atoms: C_14  and  C_16
REMARK                            x       y       z     vdW  Elec       q    Type
REMARK                         _______ _______ _______ _____ _____    ______ ____
ROOT
ATOM      1  C   UNL     1       2.827   1.982  17.662  0.00  0.00    +0.000 C 
ATOM      2  C   UNL     1       2.862   3.272  18.515  0.00  0.00    +0.000 C 
ATOM      3  N   UNL     1       4.244   3.380  19.081  0.00  0.00    +0.000 NA
ATOM      4  C   UNL     1       4.379   2.420  20.192  0.00  0.00    +0.000 C 
ATOM      5  C   UNL     1       3.253   2.488  21.229  0.00  0.00    +0.000 C 
ATOM      6  O   UNL     1       1.950   2.354  20.643  0.00  0.00    +0.000 OA
ATOM      7  C   UNL     1       1.694   3.303  19.584  0.00  0.00    +0.000 C 
ATOM      8  C   UNL     1       1.443   4.701  20.184  0.00  0.00    +0.000 C 
ATOM      9  C   UNL     1       0.352   2.870  18.956  0.00  0.00    +0.000 C 
ENDROOT
BRANCH   3  10
ATOM     10  C   UNL     1       4.623   4.765  19.409  0.00  0.00    +0.000 C 
BRANCH  10  11
ATOM     11  C   UNL     1       5.037   5.616  18.199  0.00  0.00    +0.000 C 
BRANCH  11  12
ATOM     12  C   UNL     1       6.137   4.927  17.379  0.00  0.00    +0.000 C 
ATOM     13  C   UNL     1       6.950   5.911  16.485  0.00  0.00    +0.000 C 
ATOM     14  C   UNL     1       6.948   4.831  15.388  0.00  0.00    +0.000 C 
ATOM     15  C   UNL     1       5.685   4.246  16.049  0.00  0.00    +0.000 C 
BRANCH  12  16
ATOM     16  O   UNL     1       6.941   4.082  18.235  0.00  0.00    +0.000 OA
ATOM     17  H   UNL     1       6.923   4.512  19.109  0.00  0.00    +0.000 HD
ENDBRANCH  12  16
ENDBRANCH  11  12
ENDBRANCH  10  11
ENDBRANCH   3  10
TORSDOF 4
ENDMDL
MODEL 5
REMARK VINA RESULT:      -6.5      1.772      2.164
REMARK  Name = 
REMARK  7 active torsions:
REMARK  status: ('A' for Active; 'I' for Inactive)
REMARK    1  A    between atoms: C_1  and  C_2
REMARK    2  A    between atoms: N_3  and  C_4
REMARK    3  A    between atoms: C_4  and  C_5
REMARK    4  A    between atoms: C_5  and  C_6
REMARK    5  A    between atoms: C_6  and  O_7
REMARK    6  A    between atoms: C_14  and  C_15
REMARK    7  A    between atoms: C_14  and  C_16
REMARK                            x       y       z     vdW  Elec       q    Type
REMARK                         _______ _______ _______ _____ _____    ______ ____
ROOT
ATOM      1  C   UNL     1       1.515   5.168  20.516  0.00  0.00    +0.000 C 
ATOM      2  C   UNL     1       2.836   4.545  20.010  0.00  0.00    +0.000 C 
ATOM      3  N   UNL     1       3.018   5.001  18.596  0.00  0.00    +0.000 NA
ATOM      4  C   UNL     1       2.108   4.231  17.728  0.00  0.00    +0.000 C 
ATOM      5  C   UNL     1       2.172   2.714  17.927  0.00  0.00    +0.000 C 
ATOM      6  O   UNL     1       1.967   2.324  19.293  0.00  0.00    +0.000 OA
ATOM      7  C   UNL     1       2.864   2.975  20.219  0.00  0.00    +0.000 C 
ATOM      8  C   UNL     1       4.274   2.361  20.101  0.00  0.00    +0.000 C 
ATOM      9  C   UNL     1       2.357   2.591  21.625  0.00  0.00    +0.000 C 
ENDROOT
BRANCH   3  10
ATOM     10  C   UNL     1       4.428   5.000  18.170  0.00  0.00    +0.000 C 
BRANCH  10  11
ATOM     11  C   UNL     1       4.657   5.471  16.726  0.00  0.00    +0.000 C 
BRANCH  11  12
ATOM     12  C   UNL     1       5.567   4.503  15.958  0.00  0.00    +0.000 C 
ATOM     13  C   UNL     1       6.976   5.092  15.647  0.00  0.00    +0.000 C 
ATOM     14  C   UNL     1       6.896   4.417  14.266  0.00  0.00    +0.000 C 
ATOM     15  C   UNL     1       5.361   4.438  14.411  0.00  0.00    +0.000 C 
BRANCH  12  16
ATOM     16  O   UNL     1       5.582   3.211  16.609  0.00  0.00    +0.000 OA
ATOM     17  H   UNL     1       5.430   2.563  15.896  0.00  0.00    +0.000 HD
ENDBRANCH  12  16
ENDBRANCH  11  12
ENDBRANCH  10  11
ENDBRANCH   3  10
TORSDOF 4
ENDMDL
MODEL 6
REMARK VINA RESULT:      -6.5      1.319      2.116
REMARK  Name = 
REMARK  7 active torsions:
REMARK  status: ('A' for Active; 'I' for Inactive)
REMARK    1  A    between atoms: C_1  and  C_2
REMARK    2  A    between atoms: N_3  and  C_4
REMARK    3  A    between atoms: C_4  and  C_5
REMARK    4  A    between atoms: C_5  and  C_6
REMARK    5  A    between atoms: C_6  and  O_7
REMARK    6  A    between atoms: C_14  and  C_15
REMARK    7  A    between atoms: C_14  and  C_16
REMARK                            x       y       z     vdW  Elec       q    Type
REMARK                         _______ _______ _______ _____ _____    ______ ____
ROOT
ATOM      1  C   UNL     1       1.410   4.353  17.546  0.00  0.00    +0.000 C 
ATOM      2  C   UNL     1       2.919   4.511  17.847  0.00  0.00    +0.000 C 
ATOM      3  N   UNL     1       3.617   3.363  17.186  0.00  0.00    +0.000 NA
ATOM      4  C   UNL     1       3.395   2.148  17.991  0.00  0.00    +0.000 C 
ATOM      5  C   UNL     1       3.698   2.310  19.483  0.00  0.00    +0.000 C 
ATOM      6  O   UNL     1       2.988   3.407  20.078  0.00  0.00    +0.000 OA
ATOM      7  C   UNL     1       3.196   4.664  19.399  0.00  0.00    +0.000 C 
ATOM      8  C   UNL     1       4.603   5.207  19.724  0.00  0.00    +0.000 C 
ATOM      9  C   UNL     1       2.207   5.654  20.048  0.00  0.00    +0.000 C 
ENDROOT
BRANCH   3  10
ATOM     10  C   UNL     1       5.026   3.651  16.874  0.00  0.00    +0.000 C 
BRANCH  10  11
ATOM     11  C   UNL     1       5.243   4.883  15.983  0.00  0.00    +0.000 C 
BRANCH  11  12
ATOM     12  C   UNL     1       6.568   5.586  16.309  0.00  0.00    +0.000 C 
ATOM     13  C   UNL     1       7.298   4.986  17.548  0.00  0.00    +0.000 C 
ATOM     14  C   UNL     1       7.676   6.421  17.955  0.00  0.00    +0.000 C 
ATOM     15  C   UNL     1       6.466   6.909  17.132  0.00  0.00    +0.000 C 
BRANCH  12  16
ATOM     16  O   UNL     1       7.383   5.690  15.118  0.00  0.00    +0.000 OA
ATOM     17  H   UNL     1       8.169   5.142  15.296  0.00  0.00    +0.000 HD
ENDBRANCH  12  16
ENDBRANCH  11  12
ENDBRANCH  10  11
ENDBRANCH   3  10
TORSDOF 4
ENDMDL
MODEL 7
REMARK VINA RESULT:      -6.5      1.459      2.396
REMARK  Name = 
REMARK  7 active torsions:
REMARK  status: ('A' for Active; 'I' for Inactive)
REMARK    1  A    between atoms: C_1  and  C_2
REMARK    2  A    between atoms: N_3  and  C_4
REMARK    3  A    between atoms: C_4  and  C_5
REMARK    4  A    between atoms: C_5  and  C_6
REMARK    5  A    between atoms: C_6  and  O_7
REMARK    6  A    between atoms: C_14  and  C_15
REMARK    7  A    between atoms: C_14  and  C_16
REMARK                            x       y       z     vdW  Elec       q    Type
REMARK                         _______ _______ _______ _____ _____    ______ ____
ROOT
ATOM      1  C   UNL     1       3.893   2.463  20.195  0.00  0.00    +0.000 C 
ATOM      2  C   UNL     1       3.472   3.187  18.894  0.00  0.00    +0.000 C 
ATOM      3  N   UNL     1       4.555   4.170  18.574  0.00  0.00    +0.000 NA
ATOM      4  C   UNL     1       4.427   5.327  19.478  0.00  0.00    +0.000 C 
ATOM      5  C   UNL     1       3.019   5.924  19.551  0.00  0.00    +0.000 C 
ATOM      6  O   UNL     1       2.019   4.950  19.885  0.00  0.00    +0.000 OA
ATOM      7  C   UNL     1       2.017   3.802  19.009  0.00  0.00    +0.000 C 
ATOM      8  C   UNL     1       1.400   4.185  17.648  0.00  0.00    +0.000 C 
ATOM      9  C   UNL     1       1.035   2.797  19.646  0.00  0.00    +0.000 C 
ENDROOT
BRANCH   3  10
ATOM     10  C   UNL     1       4.618   4.507  17.142  0.00  0.00    +0.000 C 
BRANCH  10  11
ATOM     11  C   UNL     1       5.982   4.242  16.486  0.00  0.00    +0.000 C 
BRANCH  11  12
ATOM     12  C   UNL     1       6.828   5.521  16.417  0.00  0.00    +0.000 C 
ATOM     13  C   UNL     1       7.620   5.810  17.727  0.00  0.00    +0.000 C 
ATOM     14  C   UNL     1       7.291   7.302  17.534  0.00  0.00    +0.000 C 
ATOM     15  C   UNL     1       6.079   6.864  16.690  0.00  0.00    +0.000 C 
BRANCH  12  16
ATOM     16  O   UNL     1       7.629   5.524  15.211  0.00  0.00    +0.000 OA
ATOM     17  H   UNL     1       7.863   6.458  15.062  0.00  0.00    +0.000 HD
ENDBRANCH  12  16
ENDBRANCH  11  12
ENDBRANCH  10  11
ENDBRANCH   3  10
TORSDOF 4
ENDMDL
MODEL 8
REMARK VINA RESULT:      -6.5      0.969      1.137
REMARK  Name = 
REMARK  7 active torsions:
REMARK  status: ('A' for Active; 'I' for Inactive)
REMARK    1  A    between atoms: C_1  and  C_2
REMARK    2  A    between atoms: N_3  and  C_4
REMARK    3  A    between atoms: C_4  and  C_5
REMARK    4  A    between atoms: C_5  and  C_6
REMARK    5  A    between atoms: C_6  and  O_7
REMARK    6  A    between atoms: C_14  and  C_15
REMARK    7  A    between atoms: C_14  and  C_16
REMARK                            x       y       z     vdW  Elec       q    Type
REMARK                         _______ _______ _______ _____ _____    ______ ____
ROOT
ATOM      1  C   UNL     1       2.084   5.412  17.970  0.00  0.00    +0.000 C 
ATOM      2  C   UNL     1       3.038   4.635  18.907  0.00  0.00    +0.000 C 
ATOM      3  N   UNL     1       4.231   4.248  18.088  0.00  0.00    +0.000 NA
ATOM      4  C   UNL     1       3.863   3.116  17.219  0.00  0.00    +0.000 C 
ATOM      5  C   UNL     1       3.179   1.954  17.945  0.00  0.00    +0.000 C 
ATOM      6  O   UNL     1       2.028   2.368  18.695  0.00  0.00    +0.000 OA
ATOM      7  C   UNL     1       2.302   3.434  19.631  0.00  0.00    +0.000 C 
ATOM      8  C   UNL     1       3.075   2.878  20.844  0.00  0.00    +0.000 C 
ATOM      9  C   UNL     1       0.926   3.871  20.176  0.00  0.00    +0.000 C 
ENDROOT
BRANCH   3  10
ATOM     10  C   UNL     1       5.441   4.038  18.901  0.00  0.00    +0.000 C 
BRANCH  10  11
ATOM     11  C   UNL     1       6.167   5.328  19.308  0.00  0.00    +0.000 C 
BRANCH  11  12
ATOM     12  C   UNL     1       6.997   5.894  18.147  0.00  0.00    +0.000 C 
ATOM     13  C   UNL     1       8.052   6.949  18.597  0.00  0.00    +0.000 C 
ATOM     14  C   UNL     1       7.710   7.754  17.330  0.00  0.00    +0.000 C 
ATOM     15  C   UNL     1       6.341   7.046  17.323  0.00  0.00    +0.000 C 
BRANCH  12  16
ATOM     16  O   UNL     1       7.526   4.815  17.341  0.00  0.00    +0.000 OA
ATOM     17  H   UNL     1       7.036   4.021  17.622  0.00  0.00    +0.000 HD
ENDBRANCH  12  16
ENDBRANCH  11  12
ENDBRANCH  10  11
ENDBRANCH   3  10
TORSDOF 4
ENDMDL
MODEL 9
REMARK VINA RESULT:      -6.5      0.925      1.207
REMARK  Name = 
REMARK  7 active torsions:
REMARK  status: ('A' for Active; 'I' for Inactive)
REMARK    1  A    between atoms: C_1  and  C_2
REMARK    2  A    between atoms: N_3  and  C_4
REMARK    3  A    between atoms: C_4  and  C_5
REMARK    4  A    between atoms: C_5  and  C_6
REMARK    5  A    between atoms: C_6  and  O_7
REMARK    6  A    between atoms: C_14  and  C_15
REMARK    7  A    between atoms: C_14  and  C_16
REMARK                            x       y       z     vdW  Elec       q    Type
REMARK                         _______ _______ _______ _____ _____    ______ ____
ROOT
ATOM      1  C   UNL     1       1.836   5.568  20.432  0.00  0.00    +0.000 C 
ATOM      2  C   UNL     1       2.855   4.648  19.719  0.00  0.00    +0.000 C 
ATOM      3  N   UNL     1       2.698   4.882  18.249  0.00  0.00    +0.000 NA
ATOM      4  C   UNL     1       1.477   4.198  17.788  0.00  0.00    +0.000 C 
ATOM      5  C   UNL     1       1.368   2.732  18.219  0.00  0.00    +0.000 C 
ATOM      6  O   UNL     1       1.500   2.560  19.638  0.00  0.00    +0.000 OA
ATOM      7  C   UNL     1       2.707   3.139  20.180  0.00  0.00    +0.000 C 
ATOM      8  C   UNL     1       3.920   2.260  19.812  0.00  0.00    +0.000 C 
ATOM      9  C   UNL     1       2.565   3.036  21.712  0.00  0.00    +0.000 C 
ENDROOT
BRANCH   3  10
ATOM     10  C   UNL     1       3.914   4.562  17.484  0.00  0.00    +0.000 C 
BRANCH  10  11
ATOM     11  C   UNL     1       4.881   5.742  17.301  0.00  0.00    +0.000 C 
BRANCH  11  12
ATOM     12  C   UNL     1       6.305   5.372  17.736  0.00  0.00    +0.000 C 
ATOM     13  C   UNL     1       6.504   5.388  19.282  0.00  0.00    +0.000 C 
ATOM     14  C   UNL     1       7.891   6.012  19.044  0.00  0.00    +0.000 C 
ATOM     15  C   UNL     1       7.364   6.519  17.687  0.00  0.00    +0.000 C 
BRANCH  12  16
ATOM     16  O   UNL     1       6.724   4.150  17.084  0.00  0.00    +0.000 OA
ATOM     17  H   UNL     1       7.237   3.665  17.756  0.00  0.00    +0.000 HD
ENDBRANCH  12  16
ENDBRANCH  11  12
ENDBRANCH  10  11
ENDBRANCH   3  10
TORSDOF 4
ENDMDL
