MODEL 1
REMARK VINA RESULT:      -7.3      0.000      0.000
REMARK  Name = 
REMARK  9 active torsions:
REMARK  status: ('A' for Active; 'I' for Inactive)
REMARK    1  A    between atoms: C_1  and  C_2
REMARK    2  A    between atoms: C_2  and  C_3
REMARK    3  A    between atoms: C_3  and  C_4
REMARK    4  A    between atoms: C_4  and  C_5
REMARK    5  A    between atoms: C_5  and  O_6
REMARK    6  A    between atoms: O_6  and  C_7
REMARK    7  A    between atoms: C_7  and  C_9
REMARK    8  A    between atoms: C_12  and  N_13
REMARK    9  A    between atoms: C_14  and  C_16
REMARK                            x       y       z     vdW  Elec       q    Type
REMARK                         _______ _______ _______ _____ _____    ______ ____
ROOT
ATOM      1  C   UNL     1       6.604   4.872  14.903  0.00  0.00    +0.000 A 
ATOM      2  C   UNL     1       5.227   5.102  14.852  0.00  0.00    +0.000 A 
ATOM      3  C   UNL     1       4.422   4.826  15.961  0.00  0.00    +0.000 A 
ATOM      4  C   UNL     1       4.975   4.313  17.140  0.00  0.00    +0.000 A 
ATOM      5  C   UNL     1       6.361   4.128  17.205  0.00  0.00    +0.000 A 
ATOM      6  C   UNL     1       7.169   4.396  16.094  0.00  0.00    +0.000 A 
ENDROOT
BRANCH   4   7
ATOM      7  N   UNL     1       4.208   3.965  18.269  0.00  0.00    +0.000 N 
ATOM      8  C   UNL     1       2.991   3.297  18.274  0.00  0.00    +0.000 C 
ATOM      9  O   UNL     1       2.418   2.873  17.276  0.00  0.00    +0.000 OA
ATOM     10  H   UNL     1       4.604   4.143  19.187  0.00  0.00    +0.000 HD
BRANCH   8  11
ATOM     11  C   UNL     1       2.440   3.094  19.601  0.00  0.00    +0.000 A 
ATOM     12  C   UNL     1       1.146   3.240  20.059  0.00  0.00    +0.000 A 
ATOM     13  C   UNL     1       1.159   2.922  21.436  0.00  0.00    +0.000 A 
ATOM     14  C   UNL     1       2.462   2.601  21.737  0.00  0.00    +0.000 A 
ATOM     15  O   UNL     1       3.251   2.696  20.634  0.00  0.00    +0.000 OA
ENDBRANCH   8  11
ENDBRANCH   4   7
BRANCH   1  16
ATOM     16  C   UNL     1       7.389   5.025  13.645  0.00  0.00    +0.000 C 
ATOM     17  O   UNL     1       8.424   5.664  13.558  0.00  0.00    +0.000 OA
BRANCH  16  18
ATOM     18  O   UNL     1       6.679   4.517  12.606  0.00  0.00    +0.000 OA
BRANCH  18  19
ATOM     19  C   UNL     1       6.778   3.098  12.471  0.00  0.00    +0.000 C 
BRANCH  19  20
ATOM     20  C   UNL     1       5.634   2.508  11.659  0.00  0.00    +0.000 C 
BRANCH  20  21
ATOM     21  C   UNL     1       4.476   3.508  11.627  0.00  0.00    +0.000 C 
BRANCH  21  23
ATOM     22  C   UNL     1       3.031   4.234   9.707  0.00  0.00    +0.000 C 
ATOM     23  C   UNL     1       3.371   3.097  10.659  0.00  0.00    +0.000 C 
ENDBRANCH  21  23
ENDBRANCH  20  21
ENDBRANCH  19  20
ENDBRANCH  18  19
ENDBRANCH  16  18
ENDBRANCH   1  16
TORSDOF 8
ENDMDL
MODEL 2
REMARK VINA RESULT:      -7.0      3.621      3.833
REMARK  Name = 
REMARK  9 active torsions:
REMARK  status: ('A' for Active; 'I' for Inactive)
REMARK    1  A    between atoms: C_1  and  C_2
REMARK    2  A    between atoms: C_2  and  C_3
REMARK    3  A    between atoms: C_3  and  C_4
REMARK    4  A    between atoms: C_4  and  C_5
REMARK    5  A    between atoms: C_5  and  O_6
REMARK    6  A    between atoms: O_6  and  C_7
REMARK    7  A    between atoms: C_7  and  C_9
REMARK    8  A    between atoms: C_12  and  N_13
REMARK    9  A    between atoms: C_14  and  C_16
REMARK                            x       y       z     vdW  Elec       q    Type
REMARK                         _______ _______ _______ _____ _____    ______ ____
ROOT
ATOM      1  C   UNL     1       5.824   5.248  16.178  0.00  0.00    +0.000 A 
ATOM      2  C   UNL     1       6.089   6.537  16.644  0.00  0.00    +0.000 A 
ATOM      3  C   UNL     1       5.187   7.180  17.498  0.00  0.00    +0.000 A 
ATOM      4  C   UNL     1       4.005   6.550  17.901  0.00  0.00    +0.000 A 
ATOM      5  C   UNL     1       3.764   5.239  17.470  0.00  0.00    +0.000 A 
ATOM      6  C   UNL     1       4.660   4.596  16.609  0.00  0.00    +0.000 A 
ENDROOT
BRANCH   4   7
ATOM      7  N   UNL     1       3.034   7.167  18.714  0.00  0.00    +0.000 N 
ATOM      8  C   UNL     1       2.278   8.288  18.400  0.00  0.00    +0.000 C 
ATOM      9  O   UNL     1       2.321   8.889  17.333  0.00  0.00    +0.000 OA
ATOM     10  H   UNL     1       2.794   6.718  19.592  0.00  0.00    +0.000 HD
BRANCH   8  11
ATOM     11  C   UNL     1       1.367   8.693  19.455  0.00  0.00    +0.000 A 
ATOM     12  C   UNL     1       0.441   9.717  19.488  0.00  0.00    +0.000 A 
ATOM     13  C   UNL     1      -0.176   9.672  20.758  0.00  0.00    +0.000 A 
ATOM     14  C   UNL     1       0.411   8.624  21.427  0.00  0.00    +0.000 A 
ATOM     15  O   UNL     1       1.345   8.016  20.649  0.00  0.00    +0.000 OA
ENDBRANCH   8  11
ENDBRANCH   4   7
BRANCH   1  16
ATOM     16  C   UNL     1       6.732   4.675  15.144  0.00  0.00    +0.000 C 
ATOM     17  O   UNL     1       7.764   5.205  14.771  0.00  0.00    +0.000 OA
BRANCH  16  18
ATOM     18  O   UNL     1       6.137   3.601  14.567  0.00  0.00    +0.000 OA
BRANCH  18  19
ATOM     19  C   UNL     1       5.513   3.883  13.312  0.00  0.00    +0.000 C 
BRANCH  19  20
ATOM     20  C   UNL     1       6.160   3.132  12.157  0.00  0.00    +0.000 C 
BRANCH  20  21
ATOM     21  C   UNL     1       5.065   2.581  11.242  0.00  0.00    +0.000 C 
BRANCH  21  23
ATOM     22  C   UNL     1       3.244   3.731   9.952  0.00  0.00    +0.000 C 
ATOM     23  C   UNL     1       3.766   3.375  11.336  0.00  0.00    +0.000 C 
ENDBRANCH  21  23
ENDBRANCH  20  21
ENDBRANCH  19  20
ENDBRANCH  18  19
ENDBRANCH  16  18
ENDBRANCH   1  16
TORSDOF 8
ENDMDL
MODEL 3
REMARK VINA RESULT:      -6.8      2.434      7.724
REMARK  Name = 
REMARK  9 active torsions:
REMARK  status: ('A' for Active; 'I' for Inactive)
REMARK    1  A    between atoms: C_1  and  C_2
REMARK    2  A    between atoms: C_2  and  C_3
REMARK    3  A    between atoms: C_3  and  C_4
REMARK    4  A    between atoms: C_4  and  C_5
REMARK    5  A    between atoms: C_5  and  O_6
REMARK    6  A    between atoms: O_6  and  C_7
REMARK    7  A    between atoms: C_7  and  C_9
REMARK    8  A    between atoms: C_12  and  N_13
REMARK    9  A    between atoms: C_14  and  C_16
REMARK                            x       y       z     vdW  Elec       q    Type
REMARK                         _______ _______ _______ _____ _____    ______ ____
ROOT
ATOM      1  C   UNL     1       3.036   3.469  19.676  0.00  0.00    +0.000 A 
ATOM      2  C   UNL     1       2.369   3.212  18.476  0.00  0.00    +0.000 A 
ATOM      3  C   UNL     1       3.056   3.266  17.259  0.00  0.00    +0.000 A 
ATOM      4  C   UNL     1       4.420   3.579  17.217  0.00  0.00    +0.000 A 
ATOM      5  C   UNL     1       5.096   3.790  18.425  0.00  0.00    +0.000 A 
ATOM      6  C   UNL     1       4.410   3.744  19.643  0.00  0.00    +0.000 A 
ENDROOT
BRANCH   4   7
ATOM      7  N   UNL     1       5.151   3.702  16.019  0.00  0.00    +0.000 N 
ATOM      8  C   UNL     1       5.526   4.881  15.392  0.00  0.00    +0.000 C 
ATOM      9  O   UNL     1       5.303   6.008  15.820  0.00  0.00    +0.000 OA
ATOM     10  H   UNL     1       5.517   2.854  15.596  0.00  0.00    +0.000 HD
BRANCH   8  11
ATOM     11  C   UNL     1       6.266   4.678  14.159  0.00  0.00    +0.000 A 
ATOM     12  C   UNL     1       6.091   3.744  13.159  0.00  0.00    +0.000 A 
ATOM     13  C   UNL     1       7.090   3.988  12.189  0.00  0.00    +0.000 A 
ATOM     14  C   UNL     1       7.817   5.058  12.656  0.00  0.00    +0.000 A 
ATOM     15  O   UNL     1       7.328   5.492  13.848  0.00  0.00    +0.000 OA
ENDBRANCH   8  11
ENDBRANCH   4   7
BRANCH   1  16
ATOM     16  C   UNL     1       2.226   3.561  20.923  0.00  0.00    +0.000 C 
ATOM     17  O   UNL     1       1.552   2.648  21.371  0.00  0.00    +0.000 OA
BRANCH  16  18
ATOM     18  O   UNL     1       2.208   4.846  21.356  0.00  0.00    +0.000 OA
BRANCH  18  19
ATOM     19  C   UNL     1       1.398   5.718  20.564  0.00  0.00    +0.000 C 
BRANCH  19  20
ATOM     20  C   UNL     1       2.085   7.043  20.266  0.00  0.00    +0.000 C 
BRANCH  20  21
ATOM     21  C   UNL     1       2.857   6.921  18.951  0.00  0.00    +0.000 C 
BRANCH  21  23
ATOM     22  C   UNL     1       1.675   9.063  18.391  0.00  0.00    +0.000 C 
ATOM     23  C   UNL     1       2.258   7.772  17.836  0.00  0.00    +0.000 C 
ENDBRANCH  21  23
ENDBRANCH  20  21
ENDBRANCH  19  20
ENDBRANCH  18  19
ENDBRANCH  16  18
ENDBRANCH   1  16
TORSDOF 8
ENDMDL
MODEL 4
REMARK VINA RESULT:      -6.8      5.711      7.676
REMARK  Name = 
REMARK  9 active torsions:
REMARK  status: ('A' for Active; 'I' for Inactive)
REMARK    1  A    between atoms: C_1  and  C_2
REMARK    2  A    between atoms: C_2  and  C_3
REMARK    3  A    between atoms: C_3  and  C_4
REMARK    4  A    between atoms: C_4  and  C_5
REMARK    5  A    between atoms: C_5  and  O_6
REMARK    6  A    between atoms: O_6  and  C_7
REMARK    7  A    between atoms: C_7  and  C_9
REMARK    8  A    between atoms: C_12  and  N_13
REMARK    9  A    between atoms: C_14  and  C_16
REMARK                            x       y       z     vdW  Elec       q    Type
REMARK                         _______ _______ _______ _____ _____    ______ ____
ROOT
ATOM      1  C   UNL     1       3.082   6.695  18.413  0.00  0.00    +0.000 A 
ATOM      2  C   UNL     1       2.568   6.359  19.668  0.00  0.00    +0.000 A 
ATOM      3  C   UNL     1       1.737   7.251  20.353  0.00  0.00    +0.000 A 
ATOM      4  C   UNL     1       1.405   8.493  19.801  0.00  0.00    +0.000 A 
ATOM      5  C   UNL     1       1.884   8.807  18.523  0.00  0.00    +0.000 A 
ATOM      6  C   UNL     1       2.722   7.921  17.838  0.00  0.00    +0.000 A 
ENDROOT
BRANCH   4   7
ATOM      7  N   UNL     1       0.618   9.453  20.467  0.00  0.00    +0.000 N 
ATOM      8  C   UNL     1       0.747   9.863  21.786  0.00  0.00    +0.000 C 
ATOM      9  O   UNL     1       1.607   9.467  22.565  0.00  0.00    +0.000 OA
ATOM     10  H   UNL     1      -0.069   9.965  19.923  0.00  0.00    +0.000 HD
BRANCH   8  11
ATOM     11  C   UNL     1      -0.225  10.864  22.186  0.00  0.00    +0.000 A 
ATOM     12  C   UNL     1      -0.364  12.179  21.790  0.00  0.00    +0.000 A 
ATOM     13  C   UNL     1      -1.472  12.705  22.491  0.00  0.00    +0.000 A 
ATOM     14  C   UNL     1      -1.944  11.679  23.277  0.00  0.00    +0.000 A 
ATOM     15  O   UNL     1      -1.202  10.554  23.100  0.00  0.00    +0.000 OA
ENDBRANCH   8  11
ENDBRANCH   4   7
BRANCH   1  16
ATOM     16  C   UNL     1       4.091   5.784  17.802  0.00  0.00    +0.000 C 
ATOM     17  O   UNL     1       4.641   5.990  16.733  0.00  0.00    +0.000 OA
BRANCH  16  18
ATOM     18  O   UNL     1       4.148   4.631  18.515  0.00  0.00    +0.000 OA
BRANCH  18  19
ATOM     19  C   UNL     1       3.854   3.458  17.753  0.00  0.00    +0.000 C 
BRANCH  19  20
ATOM     20  C   UNL     1       2.360   3.262  17.538  0.00  0.00    +0.000 C 
BRANCH  20  21
ATOM     21  C   UNL     1       1.815   2.338  18.629  0.00  0.00    +0.000 C 
BRANCH  21  23
ATOM     22  C   UNL     1       1.428   3.009  21.016  0.00  0.00    +0.000 C 
ATOM     23  C   UNL     1       0.882   3.059  19.597  0.00  0.00    +0.000 C 
ENDBRANCH  21  23
ENDBRANCH  20  21
ENDBRANCH  19  20
ENDBRANCH  18  19
ENDBRANCH  16  18
ENDBRANCH   1  16
TORSDOF 8
ENDMDL
MODEL 5
REMARK VINA RESULT:      -6.8      3.674      3.976
REMARK  Name = 
REMARK  9 active torsions:
REMARK  status: ('A' for Active; 'I' for Inactive)
REMARK    1  A    between atoms: C_1  and  C_2
REMARK    2  A    between atoms: C_2  and  C_3
REMARK    3  A    between atoms: C_3  and  C_4
REMARK    4  A    between atoms: C_4  and  C_5
REMARK    5  A    between atoms: C_5  and  O_6
REMARK    6  A    between atoms: O_6  and  C_7
REMARK    7  A    between atoms: C_7  and  C_9
REMARK    8  A    between atoms: C_12  and  N_13
REMARK    9  A    between atoms: C_14  and  C_16
REMARK                            x       y       z     vdW  Elec       q    Type
REMARK                         _______ _______ _______ _____ _____    ______ ____
ROOT
ATOM      1  C   UNL     1       5.610   5.364  16.068  0.00  0.00    +0.000 A 
ATOM      2  C   UNL     1       5.198   4.636  17.187  0.00  0.00    +0.000 A 
ATOM      3  C   UNL     1       4.262   5.174  18.076  0.00  0.00    +0.000 A 
ATOM      4  C   UNL     1       3.722   6.448  17.867  0.00  0.00    +0.000 A 
ATOM      5  C   UNL     1       4.101   7.156  16.720  0.00  0.00    +0.000 A 
ATOM      6  C   UNL     1       5.043   6.624  15.832  0.00  0.00    +0.000 A 
ENDROOT
BRANCH   4   7
ATOM      7  N   UNL     1       2.819   7.063  18.755  0.00  0.00    +0.000 N 
ATOM      8  C   UNL     1       2.209   8.299  18.597  0.00  0.00    +0.000 C 
ATOM      9  O   UNL     1       2.343   9.030  17.622  0.00  0.00    +0.000 OA
ATOM     10  H   UNL     1       2.510   6.531  19.563  0.00  0.00    +0.000 HD
BRANCH   8  11
ATOM     11  C   UNL     1       1.334   8.665  19.696  0.00  0.00    +0.000 A 
ATOM     12  C   UNL     1       1.206   8.113  20.955  0.00  0.00    +0.000 A 
ATOM     13  C   UNL     1       0.203   8.848  21.626  0.00  0.00    +0.000 A 
ATOM     14  C   UNL     1      -0.223   9.806  20.737  0.00  0.00    +0.000 A 
ATOM     15  O   UNL     1       0.456   9.712  19.563  0.00  0.00    +0.000 OA
ENDBRANCH   8  11
ENDBRANCH   4   7
BRANCH   1  16
ATOM     16  C   UNL     1       6.727   4.817  15.247  0.00  0.00    +0.000 C 
ATOM     17  O   UNL     1       7.764   5.416  15.017  0.00  0.00    +0.000 OA
BRANCH  16  18
ATOM     18  O   UNL     1       6.329   3.662  14.657  0.00  0.00    +0.000 OA
BRANCH  18  19
ATOM     19  C   UNL     1       5.511   3.848  13.501  0.00  0.00    +0.000 C 
BRANCH  19  20
ATOM     20  C   UNL     1       6.161   3.314  12.233  0.00  0.00    +0.000 C 
BRANCH  20  21
ATOM     21  C   UNL     1       5.088   2.665  11.356  0.00  0.00    +0.000 C 
BRANCH  21  23
ATOM     22  C   UNL     1       3.295   3.751   9.975  0.00  0.00    +0.000 C 
ATOM     23  C   UNL     1       3.766   3.425  11.385  0.00  0.00    +0.000 C 
ENDBRANCH  21  23
ENDBRANCH  20  21
ENDBRANCH  19  20
ENDBRANCH  18  19
ENDBRANCH  16  18
ENDBRANCH   1  16
TORSDOF 8
ENDMDL
MODEL 6
REMARK VINA RESULT:      -6.8      5.234      7.333
REMARK  Name = 
REMARK  9 active torsions:
REMARK  status: ('A' for Active; 'I' for Inactive)
REMARK    1  A    between atoms: C_1  and  C_2
REMARK    2  A    between atoms: C_2  and  C_3
REMARK    3  A    between atoms: C_3  and  C_4
REMARK    4  A    between atoms: C_4  and  C_5
REMARK    5  A    between atoms: C_5  and  O_6
REMARK    6  A    between atoms: O_6  and  C_7
REMARK    7  A    between atoms: C_7  and  C_9
REMARK    8  A    between atoms: C_12  and  N_13
REMARK    9  A    between atoms: C_14  and  C_16
REMARK                            x       y       z     vdW  Elec       q    Type
REMARK                         _______ _______ _______ _____ _____    ______ ____
ROOT
ATOM      1  C   UNL     1       4.142   5.689  18.748  0.00  0.00    +0.000 A 
ATOM      2  C   UNL     1       4.209   6.587  17.679  0.00  0.00    +0.000 A 
ATOM      3  C   UNL     1       3.304   7.648  17.590  0.00  0.00    +0.000 A 
ATOM      4  C   UNL     1       2.315   7.834  18.562  0.00  0.00    +0.000 A 
ATOM      5  C   UNL     1       2.280   6.960  19.657  0.00  0.00    +0.000 A 
ATOM      6  C   UNL     1       3.179   5.892  19.745  0.00  0.00    +0.000 A 
ENDROOT
BRANCH   4   7
ATOM      7  N   UNL     1       1.343   8.851  18.497  0.00  0.00    +0.000 N 
ATOM      8  C   UNL     1       0.862   9.611  19.553  0.00  0.00    +0.000 C 
ATOM      9  O   UNL     1       1.251   9.529  20.713  0.00  0.00    +0.000 OA
ATOM     10  H   UNL     1       1.002   9.124  17.580  0.00  0.00    +0.000 HD
BRANCH   8  11
ATOM     11  C   UNL     1      -0.151  10.576  19.167  0.00  0.00    +0.000 A 
ATOM     12  C   UNL     1      -1.021  10.574  18.096  0.00  0.00    +0.000 A 
ATOM     13  C   UNL     1      -1.791  11.755  18.189  0.00  0.00    +0.000 A 
ATOM     14  C   UNL     1      -1.343  12.411  19.312  0.00  0.00    +0.000 A 
ATOM     15  O   UNL     1      -0.351  11.707  19.919  0.00  0.00    +0.000 OA
ENDBRANCH   8  11
ENDBRANCH   4   7
BRANCH   1  16
ATOM     16  C   UNL     1       5.020   4.485  18.709  0.00  0.00    +0.000 C 
ATOM     17  O   UNL     1       6.070   4.383  19.320  0.00  0.00    +0.000 OA
BRANCH  16  18
ATOM     18  O   UNL     1       4.568   3.629  17.758  0.00  0.00    +0.000 OA
BRANCH  18  19
ATOM     19  C   UNL     1       3.740   2.580  18.263  0.00  0.00    +0.000 C 
BRANCH  19  20
ATOM     20  C   UNL     1       2.308   2.672  17.756  0.00  0.00    +0.000 C 
BRANCH  20  21
ATOM     21  C   UNL     1       1.361   2.135  18.832  0.00  0.00    +0.000 C 
BRANCH  21  23
ATOM     22  C   UNL     1       1.334   2.907  21.221  0.00  0.00    +0.000 C 
ATOM     23  C   UNL     1       0.894   3.219  19.798  0.00  0.00    +0.000 C 
ENDBRANCH  21  23
ENDBRANCH  20  21
ENDBRANCH  19  20
ENDBRANCH  18  19
ENDBRANCH  16  18
ENDBRANCH   1  16
TORSDOF 8
ENDMDL
MODEL 7
REMARK VINA RESULT:      -6.7      4.232      4.611
REMARK  Name = 
REMARK  9 active torsions:
REMARK  status: ('A' for Active; 'I' for Inactive)
REMARK    1  A    between atoms: C_1  and  C_2
REMARK    2  A    between atoms: C_2  and  C_3
REMARK    3  A    between atoms: C_3  and  C_4
REMARK    4  A    between atoms: C_4  and  C_5
REMARK    5  A    between atoms: C_5  and  O_6
REMARK    6  A    between atoms: O_6  and  C_7
REMARK    7  A    between atoms: C_7  and  C_9
REMARK    8  A    between atoms: C_12  and  N_13
REMARK    9  A    between atoms: C_14  and  C_16
REMARK                            x       y       z     vdW  Elec       q    Type
REMARK                         _______ _______ _______ _____ _____    ______ ____
ROOT
ATOM      1  C   UNL     1       5.437   5.259  17.053  0.00  0.00    +0.000 A 
ATOM      2  C   UNL     1       4.242   4.657  17.455  0.00  0.00    +0.000 A 
ATOM      3  C   UNL     1       3.211   5.428  18.001  0.00  0.00    +0.000 A 
ATOM      4  C   UNL     1       3.353   6.811  18.157  0.00  0.00    +0.000 A 
ATOM      5  C   UNL     1       4.533   7.418  17.710  0.00  0.00    +0.000 A 
ATOM      6  C   UNL     1       5.570   6.649  17.171  0.00  0.00    +0.000 A 
ENDROOT
BRANCH   4   7
ATOM      7  N   UNL     1       2.371   7.630  18.750  0.00  0.00    +0.000 N 
ATOM      8  C   UNL     1       1.863   8.817  18.244  0.00  0.00    +0.000 C 
ATOM      9  O   UNL     1       2.174   9.313  17.166  0.00  0.00    +0.000 OA
ATOM     10  H   UNL     1       1.922   7.296  19.597  0.00  0.00    +0.000 HD
BRANCH   8  11
ATOM     11  C   UNL     1       0.866   9.438  19.097  0.00  0.00    +0.000 A 
ATOM     12  C   UNL     1      -0.141  10.330  18.786  0.00  0.00    +0.000 A 
ATOM     13  C   UNL     1      -0.820  10.620  19.991  0.00  0.00    +0.000 A 
ATOM     14  C   UNL     1      -0.185   9.888  20.968  0.00  0.00    +0.000 A 
ATOM     15  O   UNL     1       0.836   9.162  20.441  0.00  0.00    +0.000 OA
ENDBRANCH   8  11
ENDBRANCH   4   7
BRANCH   1  16
ATOM     16  C   UNL     1       6.561   4.375  16.634  0.00  0.00    +0.000 C 
ATOM     17  O   UNL     1       7.694   4.452  17.079  0.00  0.00    +0.000 OA
BRANCH  16  18
ATOM     18  O   UNL     1       6.175   3.627  15.571  0.00  0.00    +0.000 OA
BRANCH  18  19
ATOM     19  C   UNL     1       6.557   4.170  14.305  0.00  0.00    +0.000 C 
BRANCH  19  20
ATOM     20  C   UNL     1       5.505   3.940  13.230  0.00  0.00    +0.000 C 
BRANCH  20  21
ATOM     21  C   UNL     1       6.130   3.148  12.080  0.00  0.00    +0.000 C 
BRANCH  21  23
ATOM     22  C   UNL     1       3.834   3.170  11.066  0.00  0.00    +0.000 C 
ATOM     23  C   UNL     1       5.099   2.354  11.284  0.00  0.00    +0.000 C 
ENDBRANCH  21  23
ENDBRANCH  20  21
ENDBRANCH  19  20
ENDBRANCH  18  19
ENDBRANCH  16  18
ENDBRANCH   1  16
TORSDOF 8
ENDMDL
MODEL 8
REMARK VINA RESULT:      -6.7      5.056      8.044
REMARK  Name = 
REMARK  9 active torsions:
REMARK  status: ('A' for Active; 'I' for Inactive)
REMARK    1  A    between atoms: C_1  and  C_2
REMARK    2  A    between atoms: C_2  and  C_3
REMARK    3  A    between atoms: C_3  and  C_4
REMARK    4  A    between atoms: C_4  and  C_5
REMARK    5  A    between atoms: C_5  and  O_6
REMARK    6  A    between atoms: O_6  and  C_7
REMARK    7  A    between atoms: C_7  and  C_9
REMARK    8  A    between atoms: C_12  and  N_13
REMARK    9  A    between atoms: C_14  and  C_16
REMARK                            x       y       z     vdW  Elec       q    Type
REMARK                         _______ _______ _______ _____ _____    ______ ____
ROOT
ATOM      1  C   UNL     1       6.422   5.211  17.513  0.00  0.00    +0.000 A 
ATOM      2  C   UNL     1       6.416   6.419  16.811  0.00  0.00    +0.000 A 
ATOM      3  C   UNL     1       7.190   7.496  17.251  0.00  0.00    +0.000 A 
ATOM      4  C   UNL     1       7.984   7.390  18.398  0.00  0.00    +0.000 A 
ATOM      5  C   UNL     1       8.026   6.164  19.073  0.00  0.00    +0.000 A 
ATOM      6  C   UNL     1       7.245   5.086  18.641  0.00  0.00    +0.000 A 
ENDROOT
BRANCH   4   7
ATOM      7  N   UNL     1       8.742   8.457  18.919  0.00  0.00    +0.000 N 
ATOM      8  C   UNL     1       8.706   9.781  18.506  0.00  0.00    +0.000 C 
ATOM      9  O   UNL     1       7.965  10.227  17.637  0.00  0.00    +0.000 OA
ATOM     10  H   UNL     1       9.325   8.275  19.730  0.00  0.00    +0.000 HD
BRANCH   8  11
ATOM     11  C   UNL     1       9.618  10.646  19.233  0.00  0.00    +0.000 A 
ATOM     12  C   UNL     1      10.830  11.185  18.848  0.00  0.00    +0.000 A 
ATOM     13  C   UNL     1      11.303  11.949  19.939  0.00  0.00    +0.000 A 
ATOM     14  C   UNL     1      10.353  11.830  20.926  0.00  0.00    +0.000 A 
ATOM     15  O   UNL     1       9.322  11.047  20.512  0.00  0.00    +0.000 OA
ENDBRANCH   8  11
ENDBRANCH   4   7
BRANCH   1  16
ATOM     16  C   UNL     1       5.456   4.153  17.100  0.00  0.00    +0.000 C 
ATOM     17  O   UNL     1       5.247   3.832  15.942  0.00  0.00    +0.000 OA
BRANCH  16  18
ATOM     18  O   UNL     1       4.731   3.759  18.177  0.00  0.00    +0.000 OA
BRANCH  18  19
ATOM     19  C   UNL     1       3.321   3.719  17.948  0.00  0.00    +0.000 C 
BRANCH  19  20
ATOM     20  C   UNL     1       2.742   2.322  18.120  0.00  0.00    +0.000 C 
BRANCH  20  21
ATOM     21  C   UNL     1       1.310   2.435  18.645  0.00  0.00    +0.000 C 
BRANCH  21  23
ATOM     22  C   UNL     1       1.305   2.863  21.118  0.00  0.00    +0.000 C 
ATOM     23  C   UNL     1       1.166   3.489  19.738  0.00  0.00    +0.000 C 
ENDBRANCH  21  23
ENDBRANCH  20  21
ENDBRANCH  19  20
ENDBRANCH  18  19
ENDBRANCH  16  18
ENDBRANCH   1  16
TORSDOF 8
ENDMDL
MODEL 9
REMARK VINA RESULT:      -6.7      5.382      7.381
REMARK  Name = 
REMARK  9 active torsions:
REMARK  status: ('A' for Active; 'I' for Inactive)
REMARK    1  A    between atoms: C_1  and  C_2
REMARK    2  A    between atoms: C_2  and  C_3
REMARK    3  A    between atoms: C_3  and  C_4
REMARK    4  A    between atoms: C_4  and  C_5
REMARK    5  A    between atoms: C_5  and  O_6
REMARK    6  A    between atoms: O_6  and  C_7
REMARK    7  A    between atoms: C_7  and  C_9
REMARK    8  A    between atoms: C_12  and  N_13
REMARK    9  A    between atoms: C_14  and  C_16
REMARK                            x       y       z     vdW  Elec       q    Type
REMARK                         _______ _______ _______ _____ _____    ______ ____
ROOT
ATOM      1  C   UNL     1       3.363   6.274  18.224  0.00  0.00    +0.000 A 
ATOM      2  C   UNL     1       3.182   7.502  17.582  0.00  0.00    +0.000 A 
ATOM      3  C   UNL     1       2.399   8.499  18.170  0.00  0.00    +0.000 A 
ATOM      4  C   UNL     1       1.780   8.291  19.408  0.00  0.00    +0.000 A 
ATOM      5  C   UNL     1       2.002   7.078  20.072  0.00  0.00    +0.000 A 
ATOM      6  C   UNL     1       2.779   6.074  19.483  0.00  0.00    +0.000 A 
ENDROOT
BRANCH   4   7
ATOM      7  N   UNL     1       0.937   9.237  20.023  0.00  0.00    +0.000 N 
ATOM      8  C   UNL     1       0.885   9.550  21.373  0.00  0.00    +0.000 C 
ATOM      9  O   UNL     1       1.608   9.065  22.237  0.00  0.00    +0.000 OA
ATOM     10  H   UNL     1       0.354   9.814  19.425  0.00  0.00    +0.000 HD
BRANCH   8  11
ATOM     11  C   UNL     1      -0.102  10.563  21.702  0.00  0.00    +0.000 A 
ATOM     12  C   UNL     1      -0.976  11.253  20.885  0.00  0.00    +0.000 A 
ATOM     13  C   UNL     1      -1.712  12.127  21.717  0.00  0.00    +0.000 A 
ATOM     14  C   UNL     1      -1.243  11.919  22.993  0.00  0.00    +0.000 A 
ATOM     15  O   UNL     1      -0.270  10.970  23.002  0.00  0.00    +0.000 OA
ENDBRANCH   8  11
ENDBRANCH   4   7
BRANCH   1  16
ATOM     16  C   UNL     1       4.067   5.190  17.482  0.00  0.00    +0.000 C 
ATOM     17  O   UNL     1       5.171   5.311  16.978  0.00  0.00    +0.000 OA
BRANCH  16  18
ATOM     18  O   UNL     1       3.220   4.147  17.298  0.00  0.00    +0.000 OA
BRANCH  18  19
ATOM     19  C   UNL     1       3.730   2.893  17.757  0.00  0.00    +0.000 C 
BRANCH  19  20
ATOM     20  C   UNL     1       2.780   2.192  18.716  0.00  0.00    +0.000 C 
BRANCH  20  21
ATOM     21  C   UNL     1       1.368   2.747  18.516  0.00  0.00    +0.000 C 
BRANCH  21  23
ATOM     22  C   UNL     1       1.607   2.900  21.010  0.00  0.00    +0.000 C 
ATOM     23  C   UNL     1       0.649   3.015  19.834  0.00  0.00    +0.000 C 
ENDBRANCH  21  23
ENDBRANCH  20  21
ENDBRANCH  19  20
ENDBRANCH  18  19
ENDBRANCH  16  18
ENDBRANCH   1  16
TORSDOF 8
ENDMDL
