MODEL 1
REMARK VINA RESULT:      -7.4      0.000      0.000
REMARK  Name = 
REMARK  4 active torsions:
REMARK  status: ('A' for Active; 'I' for Inactive)
REMARK    1  A    between atoms: C_2  and  C_3
REMARK    2  A    between atoms: C_3  and  S_4
REMARK    3  A    between atoms: S_4  and  C_5
REMARK    4  A    between atoms: N_11  and  N_12
REMARK                            x       y       z     vdW  Elec       q    Type
REMARK                         _______ _______ _______ _____ _____    ______ ____
ROOT
ATOM      1  O   UNL     1       7.996   4.292  18.465  0.00  0.00    +0.000 OA
ATOM      2  C   UNL     1       7.286   5.280  18.692  0.00  0.00    +0.000 C 
ATOM      3  N   UNL     1       6.011   5.231  19.229  0.00  0.00    +0.000 N 
ATOM      4  H   UNL     1       5.485   6.083  19.310  0.00  0.00    +0.000 HD
ENDROOT
BRANCH   3   5
ATOM      5  N   UNL     1       5.411   4.024  19.482  0.00  0.00    +0.000 NA
ATOM      6  C   UNL     1       4.114   3.922  19.437  0.00  0.00    +0.000 C 
ATOM      7  C   UNL     1       3.136   5.044  19.139  0.00  0.00    +0.000 C 
ATOM      8  C   UNL     1       2.188   5.309  20.306  0.00  0.00    +0.000 C 
ATOM      9  C   UNL     1       1.114   4.232  20.441  0.00  0.00    +0.000 C 
ATOM     10  C   UNL     1       1.516   3.028  21.293  0.00  0.00    +0.000 C 
ATOM     11  C   UNL     1       2.962   2.539  21.163  0.00  0.00    +0.000 C 
ATOM     12  C   UNL     1       3.507   2.557  19.739  0.00  0.00    +0.000 C 
ENDBRANCH   3   5
BRANCH   2  13
ATOM     13  C   UNL     1       7.782   6.698  18.420  0.00  0.00    +0.000 C 
BRANCH  13  14
ATOM     14  S   UNL     1       6.696   7.538  17.219  0.00  0.00    +0.000 S 
BRANCH  14  15
ATOM     15  C   UNL     1       6.356   6.192  16.114  0.00  0.00    +0.000 A 
ATOM     16  N   UNL     1       7.364   5.752  15.336  0.00  0.00    +0.000 NA
ATOM     17  C   UNL     1       7.124   4.625  14.640  0.00  0.00    +0.000 A 
ATOM     18  C   UNL     1       5.938   3.933  14.687  0.00  0.00    +0.000 A 
ATOM     19  C   UNL     1       4.969   4.477  15.496  0.00  0.00    +0.000 A 
ATOM     20  N   UNL     1       5.155   5.597  16.222  0.00  0.00    +0.000 NA
ENDBRANCH  14  15
ENDBRANCH  13  14
ENDBRANCH   2  13
TORSDOF 4
ENDMDL
MODEL 2
REMARK VINA RESULT:      -7.4      0.182      1.093
REMARK  Name = 
REMARK  4 active torsions:
REMARK  status: ('A' for Active; 'I' for Inactive)
REMARK    1  A    between atoms: C_2  and  C_3
REMARK    2  A    between atoms: C_3  and  S_4
REMARK    3  A    between atoms: S_4  and  C_5
REMARK    4  A    between atoms: N_11  and  N_12
REMARK                            x       y       z     vdW  Elec       q    Type
REMARK                         _______ _______ _______ _____ _____    ______ ____
ROOT
ATOM      1  O   UNL     1       7.985   4.242  18.409  0.00  0.00    +0.000 OA
ATOM      2  C   UNL     1       7.336   5.233  18.765  0.00  0.00    +0.000 C 
ATOM      3  N   UNL     1       6.102   5.186  19.391  0.00  0.00    +0.000 N 
ATOM      4  H   UNL     1       5.619   6.048  19.577  0.00  0.00    +0.000 HD
ENDROOT
BRANCH   3   5
ATOM      5  N   UNL     1       5.471   3.985  19.592  0.00  0.00    +0.000 NA
ATOM      6  C   UNL     1       4.176   3.909  19.492  0.00  0.00    +0.000 C 
ATOM      7  C   UNL     1       3.230   5.055  19.180  0.00  0.00    +0.000 C 
ATOM      8  C   UNL     1       2.240   5.311  20.314  0.00  0.00    +0.000 C 
ATOM      9  C   UNL     1       1.143   4.251  20.380  0.00  0.00    +0.000 C 
ATOM     10  C   UNL     1       1.489   3.022  21.221  0.00  0.00    +0.000 C 
ATOM     11  C   UNL     1       2.930   2.510  21.139  0.00  0.00    +0.000 C 
ATOM     12  C   UNL     1       3.533   2.548  19.739  0.00  0.00    +0.000 C 
ENDBRANCH   3   5
BRANCH   2  13
ATOM     13  C   UNL     1       7.870   6.649  18.569  0.00  0.00    +0.000 C 
BRANCH  13  14
ATOM     14  S   UNL     1       7.012   7.474  17.186  0.00  0.00    +0.000 S 
BRANCH  14  15
ATOM     15  C   UNL     1       6.607   6.063  16.188  0.00  0.00    +0.000 A 
ATOM     16  N   UNL     1       5.383   5.521  16.341  0.00  0.00    +0.000 NA
ATOM     17  C   UNL     1       5.046   4.567  15.453  0.00  0.00    +0.000 A 
ATOM     18  C   UNL     1       5.867   4.140  14.437  0.00  0.00    +0.000 A 
ATOM     19  C   UNL     1       7.100   4.744  14.383  0.00  0.00    +0.000 A 
ATOM     20  N   UNL     1       7.489   5.709  15.238  0.00  0.00    +0.000 NA
ENDBRANCH  14  15
ENDBRANCH  13  14
ENDBRANCH   2  13
TORSDOF 4
ENDMDL
MODEL 3
REMARK VINA RESULT:      -7.4      1.059      1.558
REMARK  Name = 
REMARK  4 active torsions:
REMARK  status: ('A' for Active; 'I' for Inactive)
REMARK    1  A    between atoms: C_2  and  C_3
REMARK    2  A    between atoms: C_3  and  S_4
REMARK    3  A    between atoms: S_4  and  C_5
REMARK    4  A    between atoms: N_11  and  N_12
REMARK                            x       y       z     vdW  Elec       q    Type
REMARK                         _______ _______ _______ _____ _____    ______ ____
ROOT
ATOM      1  O   UNL     1       7.664   5.342  20.459  0.00  0.00    +0.000 OA
ATOM      2  C   UNL     1       7.092   5.466  19.369  0.00  0.00    +0.000 C 
ATOM      3  N   UNL     1       5.884   4.876  19.038  0.00  0.00    +0.000 N 
ATOM      4  H   UNL     1       5.534   4.977  18.101  0.00  0.00    +0.000 HD
ENDROOT
BRANCH   3   5
ATOM      5  N   UNL     1       5.266   4.023  19.916  0.00  0.00    +0.000 NA
ATOM      6  C   UNL     1       4.176   3.406  19.562  0.00  0.00    +0.000 C 
ATOM      7  C   UNL     1       3.463   3.538  18.228  0.00  0.00    +0.000 C 
ATOM      8  C   UNL     1       2.047   4.087  18.383  0.00  0.00    +0.000 C 
ATOM      9  C   UNL     1       1.078   3.049  18.947  0.00  0.00    +0.000 C 
ATOM     10  C   UNL     1       1.015   2.994  20.473  0.00  0.00    +0.000 C 
ATOM     11  C   UNL     1       2.334   3.178  21.228  0.00  0.00    +0.000 C 
ATOM     12  C   UNL     1       3.530   2.481  20.587  0.00  0.00    +0.000 C 
ENDBRANCH   3   5
BRANCH   2  13
ATOM     13  C   UNL     1       7.671   6.339  18.258  0.00  0.00    +0.000 C 
BRANCH  13  14
ATOM     14  S   UNL     1       6.345   6.952  17.166  0.00  0.00    +0.000 S 
BRANCH  14  15
ATOM     15  C   UNL     1       6.358   5.686  15.922  0.00  0.00    +0.000 A 
ATOM     16  N   UNL     1       5.245   4.942  15.775  0.00  0.00    +0.000 NA
ATOM     17  C   UNL     1       5.225   4.113  14.716  0.00  0.00    +0.000 A 
ATOM     18  C   UNL     1       6.255   3.997  13.813  0.00  0.00    +0.000 A 
ATOM     19  C   UNL     1       7.351   4.786  14.065  0.00  0.00    +0.000 A 
ATOM     20  N   UNL     1       7.425   5.640  15.104  0.00  0.00    +0.000 NA
ENDBRANCH  14  15
ENDBRANCH  13  14
ENDBRANCH   2  13
TORSDOF 4
ENDMDL
MODEL 4
REMARK VINA RESULT:      -7.4      1.665      2.293
REMARK  Name = 
REMARK  4 active torsions:
REMARK  status: ('A' for Active; 'I' for Inactive)
REMARK    1  A    between atoms: C_2  and  C_3
REMARK    2  A    between atoms: C_3  and  S_4
REMARK    3  A    between atoms: S_4  and  C_5
REMARK    4  A    between atoms: N_11  and  N_12
REMARK                            x       y       z     vdW  Elec       q    Type
REMARK                         _______ _______ _______ _____ _____    ______ ____
ROOT
ATOM      1  O   UNL     1       6.188   5.693  19.360  0.00  0.00    +0.000 OA
ATOM      2  C   UNL     1       6.328   4.752  18.570  0.00  0.00    +0.000 C 
ATOM      3  N   UNL     1       5.721   3.515  18.697  0.00  0.00    +0.000 N 
ATOM      4  H   UNL     1       5.955   2.789  18.041  0.00  0.00    +0.000 HD
ENDROOT
BRANCH   3   5
ATOM      5  N   UNL     1       4.955   3.229  19.798  0.00  0.00    +0.000 NA
ATOM      6  C   UNL     1       3.771   2.708  19.645  0.00  0.00    +0.000 C 
ATOM      7  C   UNL     1       3.098   2.378  18.325  0.00  0.00    +0.000 C 
ATOM      8  C   UNL     1       1.806   3.166  18.124  0.00  0.00    +0.000 C 
ATOM      9  C   UNL     1       0.662   2.640  18.988  0.00  0.00    +0.000 C 
ATOM     10  C   UNL     1       0.585   3.248  20.389  0.00  0.00    +0.000 C 
ATOM     11  C   UNL     1       1.914   3.514  21.102  0.00  0.00    +0.000 C 
ATOM     12  C   UNL     1       2.963   2.425  20.907  0.00  0.00    +0.000 C 
ENDBRANCH   3   5
BRANCH   2  13
ATOM     13  C   UNL     1       7.191   4.885  17.317  0.00  0.00    +0.000 C 
BRANCH  13  14
ATOM     14  S   UNL     1       6.401   6.002  16.109  0.00  0.00    +0.000 S 
BRANCH  14  15
ATOM     15  C   UNL     1       6.686   5.092  14.613  0.00  0.00    +0.000 A 
ATOM     16  N   UNL     1       5.795   4.137  14.282  0.00  0.00    +0.000 NA
ATOM     17  C   UNL     1       5.944   3.588  13.062  0.00  0.00    +0.000 A 
ATOM     18  C   UNL     1       6.931   3.946  12.176  0.00  0.00    +0.000 A 
ATOM     19  C   UNL     1       7.799   4.915  12.619  0.00  0.00    +0.000 A 
ATOM     20  N   UNL     1       7.694   5.506  13.825  0.00  0.00    +0.000 NA
ENDBRANCH  14  15
ENDBRANCH  13  14
ENDBRANCH   2  13
TORSDOF 4
ENDMDL
MODEL 5
REMARK VINA RESULT:      -7.3      1.230      1.445
REMARK  Name = 
REMARK  4 active torsions:
REMARK  status: ('A' for Active; 'I' for Inactive)
REMARK    1  A    between atoms: C_2  and  C_3
REMARK    2  A    between atoms: C_3  and  S_4
REMARK    3  A    between atoms: S_4  and  C_5
REMARK    4  A    between atoms: N_11  and  N_12
REMARK                            x       y       z     vdW  Elec       q    Type
REMARK                         _______ _______ _______ _____ _____    ______ ____
ROOT
ATOM      1  O   UNL     1       7.271   5.310  20.337  0.00  0.00    +0.000 OA
ATOM      2  C   UNL     1       7.018   4.961  19.177  0.00  0.00    +0.000 C 
ATOM      3  N   UNL     1       5.967   4.138  18.810  0.00  0.00    +0.000 N 
ATOM      4  H   UNL     1       5.887   3.852  17.850  0.00  0.00    +0.000 HD
ENDROOT
BRANCH   3   5
ATOM      5  N   UNL     1       5.157   3.581  19.766  0.00  0.00    +0.000 NA
ATOM      6  C   UNL     1       4.023   3.043  19.420  0.00  0.00    +0.000 C 
ATOM      7  C   UNL     1       3.455   2.970  18.014  0.00  0.00    +0.000 C 
ATOM      8  C   UNL     1       2.127   3.712  17.890  0.00  0.00    +0.000 C 
ATOM      9  C   UNL     1       0.971   2.951  18.536  0.00  0.00    +0.000 C 
ATOM     10  C   UNL     1       0.769   3.237  20.024  0.00  0.00    +0.000 C 
ATOM     11  C   UNL     1       2.030   3.415  20.873  0.00  0.00    +0.000 C 
ATOM     12  C   UNL     1       3.162   2.451  20.531  0.00  0.00    +0.000 C 
ENDBRANCH   3   5
BRANCH   2  13
ATOM     13  C   UNL     1       7.854   5.450  17.997  0.00  0.00    +0.000 C 
BRANCH  13  14
ATOM     14  S   UNL     1       6.910   6.645  16.993  0.00  0.00    +0.000 S 
BRANCH  14  15
ATOM     15  C   UNL     1       6.509   5.628  15.596  0.00  0.00    +0.000 A 
ATOM     16  N   UNL     1       7.424   5.527  14.612  0.00  0.00    +0.000 NA
ATOM     17  C   UNL     1       7.164   4.617  13.655  0.00  0.00    +0.000 A 
ATOM     18  C   UNL     1       6.046   3.818  13.640  0.00  0.00    +0.000 A 
ATOM     19  C   UNL     1       5.167   4.014  14.678  0.00  0.00    +0.000 A 
ATOM     20  N   UNL     1       5.379   4.903  15.668  0.00  0.00    +0.000 NA
ENDBRANCH  14  15
ENDBRANCH  13  14
ENDBRANCH   2  13
TORSDOF 4
ENDMDL
MODEL 6
REMARK VINA RESULT:      -7.0      1.913      3.139
REMARK  Name = 
REMARK  4 active torsions:
REMARK  status: ('A' for Active; 'I' for Inactive)
REMARK    1  A    between atoms: C_2  and  C_3
REMARK    2  A    between atoms: C_3  and  S_4
REMARK    3  A    between atoms: S_4  and  C_5
REMARK    4  A    between atoms: N_11  and  N_12
REMARK                            x       y       z     vdW  Elec       q    Type
REMARK                         _______ _______ _______ _____ _____    ______ ____
ROOT
ATOM      1  O   UNL     1       4.060   5.396  17.037  0.00  0.00    +0.000 OA
ATOM      2  C   UNL     1       4.722   4.456  16.578  0.00  0.00    +0.000 C 
ATOM      3  N   UNL     1       5.084   3.324  17.287  0.00  0.00    +0.000 N 
ATOM      4  H   UNL     1       5.684   2.647  16.848  0.00  0.00    +0.000 HD
ENDROOT
BRANCH   3   5
ATOM      5  N   UNL     1       4.777   3.212  18.619  0.00  0.00    +0.000 NA
ATOM      6  C   UNL     1       3.622   2.732  18.980  0.00  0.00    +0.000 C 
ATOM      7  C   UNL     1       2.511   2.273  18.053  0.00  0.00    +0.000 C 
ATOM      8  C   UNL     1       1.234   3.089  18.236  0.00  0.00    +0.000 C 
ATOM      9  C   UNL     1       0.490   2.728  19.520  0.00  0.00    +0.000 C 
ATOM     10  C   UNL     1       0.933   3.507  20.758  0.00  0.00    +0.000 C 
ATOM     11  C   UNL     1       2.430   3.798  20.894  0.00  0.00    +0.000 C 
ATOM     12  C   UNL     1       3.337   2.645  20.476  0.00  0.00    +0.000 C 
ENDBRANCH   3   5
BRANCH   2  13
ATOM     13  C   UNL     1       5.189   4.444  15.125  0.00  0.00    +0.000 C 
BRANCH  13  14
ATOM     14  S   UNL     1       7.000   4.643  15.030  0.00  0.00    +0.000 S 
BRANCH  14  15
ATOM     15  C   UNL     1       7.297   5.496  16.557  0.00  0.00    +0.000 A 
ATOM     16  N   UNL     1       7.673   4.761  17.622  0.00  0.00    +0.000 NA
ATOM     17  C   UNL     1       8.056   5.452  18.711  0.00  0.00    +0.000 A 
ATOM     18  C   UNL     1       8.079   6.824  18.780  0.00  0.00    +0.000 A 
ATOM     19  C   UNL     1       7.659   7.478  17.647  0.00  0.00    +0.000 A 
ATOM     20  N   UNL     1       7.272   6.840  16.525  0.00  0.00    +0.000 NA
ENDBRANCH  14  15
ENDBRANCH  13  14
ENDBRANCH   2  13
TORSDOF 4
ENDMDL
MODEL 7
REMARK VINA RESULT:      -6.8      1.539      1.845
REMARK  Name = 
REMARK  4 active torsions:
REMARK  status: ('A' for Active; 'I' for Inactive)
REMARK    1  A    between atoms: C_2  and  C_3
REMARK    2  A    between atoms: C_3  and  S_4
REMARK    3  A    between atoms: S_4  and  C_5
REMARK    4  A    between atoms: N_11  and  N_12
REMARK                            x       y       z     vdW  Elec       q    Type
REMARK                         _______ _______ _______ _____ _____    ______ ____
ROOT
ATOM      1  O   UNL     1       5.715   3.690  19.068  0.00  0.00    +0.000 OA
ATOM      2  C   UNL     1       5.805   4.919  18.963  0.00  0.00    +0.000 C 
ATOM      3  N   UNL     1       4.817   5.744  18.452  0.00  0.00    +0.000 N 
ATOM      4  H   UNL     1       5.012   6.724  18.340  0.00  0.00    +0.000 HD
ENDROOT
BRANCH   3   5
ATOM      5  N   UNL     1       3.662   5.208  17.943  0.00  0.00    +0.000 NA
ATOM      6  C   UNL     1       2.675   4.919  18.741  0.00  0.00    +0.000 C 
ATOM      7  C   UNL     1       2.657   5.099  20.248  0.00  0.00    +0.000 C 
ATOM      8  C   UNL     1       2.475   3.774  20.985  0.00  0.00    +0.000 C 
ATOM      9  C   UNL     1       1.043   3.251  20.899  0.00  0.00    +0.000 C 
ATOM     10  C   UNL     1       0.749   2.386  19.673  0.00  0.00    +0.000 C 
ATOM     11  C   UNL     1       1.403   2.809  18.355  0.00  0.00    +0.000 C 
ATOM     12  C   UNL     1       1.423   4.315  18.115  0.00  0.00    +0.000 C 
ENDBRANCH   3   5
BRANCH   2  13
ATOM     13  C   UNL     1       7.047   5.671  19.435  0.00  0.00    +0.000 C 
BRANCH  13  14
ATOM     14  S   UNL     1       7.645   6.803  18.135  0.00  0.00    +0.000 S 
BRANCH  14  15
ATOM     15  C   UNL     1       7.058   5.954  16.692  0.00  0.00    +0.000 A 
ATOM     16  N   UNL     1       7.498   4.698  16.483  0.00  0.00    +0.000 NA
ATOM     17  C   UNL     1       6.905   4.024  15.480  0.00  0.00    +0.000 A 
ATOM     18  C   UNL     1       5.908   4.545  14.691  0.00  0.00    +0.000 A 
ATOM     19  C   UNL     1       5.547   5.840  14.975  0.00  0.00    +0.000 A 
ATOM     20  N   UNL     1       6.099   6.560  15.970  0.00  0.00    +0.000 NA
ENDBRANCH  14  15
ENDBRANCH  13  14
ENDBRANCH   2  13
TORSDOF 4
ENDMDL
MODEL 8
REMARK VINA RESULT:      -6.8      1.924      2.360
REMARK  Name = 
REMARK  4 active torsions:
REMARK  status: ('A' for Active; 'I' for Inactive)
REMARK    1  A    between atoms: C_2  and  C_3
REMARK    2  A    between atoms: C_3  and  S_4
REMARK    3  A    between atoms: S_4  and  C_5
REMARK    4  A    between atoms: N_11  and  N_12
REMARK                            x       y       z     vdW  Elec       q    Type
REMARK                         _______ _______ _______ _____ _____    ______ ____
ROOT
ATOM      1  O   UNL     1       4.109   6.358  18.601  0.00  0.00    +0.000 OA
ATOM      2  C   UNL     1       4.931   5.752  17.904  0.00  0.00    +0.000 C 
ATOM      3  N   UNL     1       5.390   4.471  18.156  0.00  0.00    +0.000 N 
ATOM      4  H   UNL     1       6.114   4.089  17.572  0.00  0.00    +0.000 HD
ENDROOT
BRANCH   3   5
ATOM      5  N   UNL     1       4.994   3.803  19.287  0.00  0.00    +0.000 NA
ATOM      6  C   UNL     1       3.883   3.124  19.283  0.00  0.00    +0.000 C 
ATOM      7  C   UNL     1       2.917   2.990  18.119  0.00  0.00    +0.000 C 
ATOM      8  C   UNL     1       1.536   3.553  18.449  0.00  0.00    +0.000 C 
ATOM      9  C   UNL     1       0.743   2.641  19.382  0.00  0.00    +0.000 C 
ATOM     10  C   UNL     1       0.983   2.884  20.872  0.00  0.00    +0.000 C 
ATOM     11  C   UNL     1       2.416   3.218  21.297  0.00  0.00    +0.000 C 
ATOM     12  C   UNL     1       3.491   2.414  20.574  0.00  0.00    +0.000 C 
ENDBRANCH   3   5
BRANCH   2  13
ATOM     13  C   UNL     1       5.514   6.372  16.636  0.00  0.00    +0.000 C 
BRANCH  13  14
ATOM     14  S   UNL     1       7.242   5.840  16.396  0.00  0.00    +0.000 S 
BRANCH  14  15
ATOM     15  C   UNL     1       7.098   5.010  14.835  0.00  0.00    +0.000 A 
ATOM     16  N   UNL     1       6.146   4.063  14.715  0.00  0.00    +0.000 NA
ATOM     17  C   UNL     1       5.949   3.578  13.476  0.00  0.00    +0.000 A 
ATOM     18  C   UNL     1       6.652   3.991  12.370  0.00  0.00    +0.000 A 
ATOM     19  C   UNL     1       7.613   4.945  12.604  0.00  0.00    +0.000 A 
ATOM     20  N   UNL     1       7.849   5.474  13.820  0.00  0.00    +0.000 NA
ENDBRANCH  14  15
ENDBRANCH  13  14
ENDBRANCH   2  13
TORSDOF 4
ENDMDL
MODEL 9
REMARK VINA RESULT:      -6.8      2.005      2.696
REMARK  Name = 
REMARK  4 active torsions:
REMARK  status: ('A' for Active; 'I' for Inactive)
REMARK    1  A    between atoms: C_2  and  C_3
REMARK    2  A    between atoms: C_3  and  S_4
REMARK    3  A    between atoms: S_4  and  C_5
REMARK    4  A    between atoms: N_11  and  N_12
REMARK                            x       y       z     vdW  Elec       q    Type
REMARK                         _______ _______ _______ _____ _____    ______ ____
ROOT
ATOM      1  O   UNL     1       3.634   6.462  17.291  0.00  0.00    +0.000 OA
ATOM      2  C   UNL     1       4.767   6.200  17.715  0.00  0.00    +0.000 C 
ATOM      3  N   UNL     1       5.037   5.609  18.937  0.00  0.00    +0.000 N 
ATOM      4  H   UNL     1       5.995   5.501  19.223  0.00  0.00    +0.000 HD
ENDROOT
BRANCH   3   5
ATOM      5  N   UNL     1       4.020   5.337  19.815  0.00  0.00    +0.000 NA
ATOM      6  C   UNL     1       3.461   4.161  19.816  0.00  0.00    +0.000 C 
ATOM      7  C   UNL     1       3.810   3.001  18.902  0.00  0.00    +0.000 C 
ATOM      8  C   UNL     1       2.631   2.581  18.027  0.00  0.00    +0.000 C 
ATOM      9  C   UNL     1       1.567   1.815  18.810  0.00  0.00    +0.000 C 
ATOM     10  C   UNL     1       0.508   2.692  19.479  0.00  0.00    +0.000 C 
ATOM     11  C   UNL     1       0.986   4.012  20.088  0.00  0.00    +0.000 C 
ATOM     12  C   UNL     1       2.328   3.925  20.809  0.00  0.00    +0.000 C 
ENDBRANCH   3   5
BRANCH   2  13
ATOM     13  C   UNL     1       6.015   6.486  16.883  0.00  0.00    +0.000 C 
BRANCH  13  14
ATOM     14  S   UNL     1       7.112   5.028  16.850  0.00  0.00    +0.000 S 
BRANCH  14  15
ATOM     15  C   UNL     1       7.088   4.662  15.115  0.00  0.00    +0.000 A 
ATOM     16  N   UNL     1       6.194   3.754  14.679  0.00  0.00    +0.000 NA
ATOM     17  C   UNL     1       6.084   3.627  13.344  0.00  0.00    +0.000 A 
ATOM     18  C   UNL     1       6.820   4.356  12.441  0.00  0.00    +0.000 A 
ATOM     19  C   UNL     1       7.717   5.241  12.989  0.00  0.00    +0.000 A 
ATOM     20  N   UNL     1       7.865   5.417  14.317  0.00  0.00    +0.000 NA
ENDBRANCH  14  15
ENDBRANCH  13  14
ENDBRANCH   2  13
TORSDOF 4
ENDMDL
