MODEL 1
REMARK VINA RESULT:      -7.5      0.000      0.000
REMARK  Name = 
REMARK  10 active torsions:
REMARK  status: ('A' for Active; 'I' for Inactive)
REMARK    1  A    between atoms: C_1  and  C_2
REMARK    2  A    between atoms: C_2  and  C_10
REMARK    3  A    between atoms: N_3  and  N_4
REMARK    4  A    between atoms: C_12  and  C_13
REMARK    5  A    between atoms: C_16  and  C_17
REMARK    6  A    between atoms: C_18  and  C_19
REMARK    7  A    between atoms: C_19  and  C_20
REMARK    8  A    between atoms: C_19  and  C_21
REMARK    9  A    between atoms: C_19  and  N_22
REMARK   10  A    between atoms: C_26  and  C_27
REMARK                            x       y       z     vdW  Elec       q    Type
REMARK                         _______ _______ _______ _____ _____    ______ ____
ROOT
ATOM      1  C   UNL     1      -1.308  11.481  20.520  0.00  0.00    +0.000 A 
ATOM      2  S   UNL     1      -0.548  10.863  19.101  0.00  0.00    +0.000 S 
ATOM      3  C   UNL     1       0.449   9.811  20.032  0.00  0.00    +0.000 A 
ATOM      4  N   UNL     1       0.222   9.882  21.329  0.00  0.00    +0.000 NA
ATOM      5  C   UNL     1      -0.761  10.828  21.624  0.00  0.00    +0.000 A 
ATOM      6  C   UNL     1      -1.123  11.030  23.054  0.00  0.00    +0.000 C 
ENDROOT
BRANCH   3   7
ATOM      7  C   UNL     1       1.399   8.872  19.379  0.00  0.00    +0.000 A 
ATOM      8  C   UNL     1       1.878   7.708  20.006  0.00  0.00    +0.000 A 
ATOM      9  C   UNL     1       2.857   6.895  19.400  0.00  0.00    +0.000 A 
ATOM     10  C   UNL     1       3.375   7.218  18.145  0.00  0.00    +0.000 A 
ATOM     11  C   UNL     1       2.852   8.326  17.474  0.00  0.00    +0.000 A 
ATOM     12  C   UNL     1       1.874   9.139  18.083  0.00  0.00    +0.000 A 
BRANCH  10  13
ATOM     13  C   UNL     1       4.460   6.453  17.578  0.00  0.00    +0.000 C 
ATOM     14  C   UNL     1       5.409   5.759  17.018  0.00  0.00    +0.000 C 
BRANCH  14  15
ATOM     15  C   UNL     1       6.516   4.947  16.364  0.00  0.00    +0.000 C 
ATOM     16  C   UNL     1       7.491   4.457  17.437  0.00  0.00    +0.000 C 
ATOM     17  C   UNL     1       5.903   3.758  15.617  0.00  0.00    +0.000 C 
BRANCH  15  18
ATOM     18  N   UNL     1       7.228   5.800  15.415  0.00  0.00    +0.000 NA
ATOM     19  H   UNL     1       8.204   5.510  15.375  0.00  0.00    +0.000 HD
ATOM     20  H   UNL     1       7.234   6.756  15.769  0.00  0.00    +0.000 HD
ENDBRANCH  15  18
ENDBRANCH  14  15
ENDBRANCH  10  13
ENDBRANCH   3   7
BRANCH   1  22
ATOM     21  C   UNL     1      -2.076  13.859  21.093  0.00  0.00    +0.000 C 
ATOM     22  C   UNL     1      -2.356  12.504  20.455  0.00  0.00    +0.000 C 
ATOM     23  N   UNL     1      -3.487  12.197  19.875  0.00  0.00    +0.000 NA
BRANCH  23  24
ATOM     24  N   UNL     1      -4.448  13.165  19.720  0.00  0.00    +0.000 N 
ATOM     25  C   UNL     1      -5.690  13.124  20.283  0.00  0.00    +0.000 C 
ATOM     26  N   UNL     1      -6.716  13.779  19.817  0.00  0.00    +0.000 NA
ATOM     27  C   UNL     1      -7.825  13.444  20.761  0.00  0.00    +0.000 C 
ATOM     28  C   UNL     1      -7.255  12.469  21.799  0.00  0.00    +0.000 C 
ATOM     29  N   UNL     1      -5.884  12.341  21.376  0.00  0.00    +0.000 N 
ATOM     30  H   UNL     1      -4.512  13.648  18.827  0.00  0.00    +0.000 HD
ATOM     31  H   UNL     1      -5.140  12.360  22.061  0.00  0.00    +0.000 HD
ENDBRANCH  23  24
ENDBRANCH   1  22
TORSDOF 6
ENDMDL
MODEL 2
REMARK VINA RESULT:      -7.4      0.804      1.032
REMARK  Name = 
REMARK  10 active torsions:
REMARK  status: ('A' for Active; 'I' for Inactive)
REMARK    1  A    between atoms: C_1  and  C_2
REMARK    2  A    between atoms: C_2  and  C_10
REMARK    3  A    between atoms: N_3  and  N_4
REMARK    4  A    between atoms: C_12  and  C_13
REMARK    5  A    between atoms: C_16  and  C_17
REMARK    6  A    between atoms: C_18  and  C_19
REMARK    7  A    between atoms: C_19  and  C_20
REMARK    8  A    between atoms: C_19  and  C_21
REMARK    9  A    between atoms: C_19  and  N_22
REMARK   10  A    between atoms: C_26  and  C_27
REMARK                            x       y       z     vdW  Elec       q    Type
REMARK                         _______ _______ _______ _____ _____    ______ ____
ROOT
ATOM      1  C   UNL     1      -1.169  11.779  20.560  0.00  0.00    +0.000 A 
ATOM      2  S   UNL     1      -0.365  11.181  19.158  0.00  0.00    +0.000 S 
ATOM      3  C   UNL     1       0.406   9.937  20.069  0.00  0.00    +0.000 A 
ATOM      4  N   UNL     1       0.072   9.936  21.344  0.00  0.00    +0.000 NA
ATOM      5  C   UNL     1      -0.810  10.977  21.643  0.00  0.00    +0.000 A 
ATOM      6  C   UNL     1      -1.273  11.112  23.051  0.00  0.00    +0.000 C 
ENDROOT
BRANCH   3   7
ATOM      7  C   UNL     1       1.288   8.936  19.413  0.00  0.00    +0.000 A 
ATOM      8  C   UNL     1       1.752   7.780  20.066  0.00  0.00    +0.000 A 
ATOM      9  C   UNL     1       2.670   6.906  19.451  0.00  0.00    +0.000 A 
ATOM     10  C   UNL     1       3.142   7.158  18.162  0.00  0.00    +0.000 A 
ATOM     11  C   UNL     1       2.630   8.259  17.470  0.00  0.00    +0.000 A 
ATOM     12  C   UNL     1       1.713   9.133  18.087  0.00  0.00    +0.000 A 
BRANCH  10  13
ATOM     13  C   UNL     1       4.170   6.329  17.579  0.00  0.00    +0.000 C 
ATOM     14  C   UNL     1       5.089   5.543  17.096  0.00  0.00    +0.000 C 
BRANCH  14  15
ATOM     15  C   UNL     1       6.163   4.626  16.532  0.00  0.00    +0.000 C 
ATOM     16  C   UNL     1       6.544   5.092  15.124  0.00  0.00    +0.000 C 
ATOM     17  C   UNL     1       7.388   4.650  17.451  0.00  0.00    +0.000 C 
BRANCH  15  18
ATOM     18  N   UNL     1       5.634   3.266  16.466  0.00  0.00    +0.000 NA
ATOM     19  H   UNL     1       6.315   2.667  16.001  0.00  0.00    +0.000 HD
ATOM     20  H   UNL     1       4.805   3.261  15.872  0.00  0.00    +0.000 HD
ENDBRANCH  15  18
ENDBRANCH  14  15
ENDBRANCH  10  13
ENDBRANCH   3   7
BRANCH   1  22
ATOM     21  C   UNL     1      -1.496  14.310  20.803  0.00  0.00    +0.000 C 
ATOM     22  C   UNL     1      -2.073  12.932  20.503  0.00  0.00    +0.000 C 
ATOM     23  N   UNL     1      -3.331  12.720  20.220  0.00  0.00    +0.000 NA
BRANCH  23  24
ATOM     24  N   UNL     1      -4.177  13.791  20.069  0.00  0.00    +0.000 N 
ATOM     25  C   UNL     1      -5.505  13.782  20.381  0.00  0.00    +0.000 C 
ATOM     26  N   UNL     1      -6.374  14.602  19.861  0.00  0.00    +0.000 NA
ATOM     27  C   UNL     1      -7.666  14.229  20.512  0.00  0.00    +0.000 C 
ATOM     28  C   UNL     1      -7.377  13.045  21.444  0.00  0.00    +0.000 C 
ATOM     29  N   UNL     1      -5.962  12.854  21.262  0.00  0.00    +0.000 N 
ATOM     30  H   UNL     1      -4.032  14.417  19.281  0.00  0.00    +0.000 HD
ATOM     31  H   UNL     1      -5.366  12.686  22.062  0.00  0.00    +0.000 HD
ENDBRANCH  23  24
ENDBRANCH   1  22
TORSDOF 6
ENDMDL
MODEL 3
REMARK VINA RESULT:      -7.3      2.043      2.576
REMARK  Name = 
REMARK  10 active torsions:
REMARK  status: ('A' for Active; 'I' for Inactive)
REMARK    1  A    between atoms: C_1  and  C_2
REMARK    2  A    between atoms: C_2  and  C_10
REMARK    3  A    between atoms: N_3  and  N_4
REMARK    4  A    between atoms: C_12  and  C_13
REMARK    5  A    between atoms: C_16  and  C_17
REMARK    6  A    between atoms: C_18  and  C_19
REMARK    7  A    between atoms: C_19  and  C_20
REMARK    8  A    between atoms: C_19  and  C_21
REMARK    9  A    between atoms: C_19  and  N_22
REMARK   10  A    between atoms: C_26  and  C_27
REMARK                            x       y       z     vdW  Elec       q    Type
REMARK                         _______ _______ _______ _____ _____    ______ ____
ROOT
ATOM      1  C   UNL     1      -1.961  12.191  20.247  0.00  0.00    +0.000 A 
ATOM      2  S   UNL     1      -0.453  11.506  20.722  0.00  0.00    +0.000 S 
ATOM      3  C   UNL     1      -0.466  10.421  19.384  0.00  0.00    +0.000 A 
ATOM      4  N   UNL     1      -1.516  10.566  18.600  0.00  0.00    +0.000 NA
ATOM      5  C   UNL     1      -2.378  11.556  19.077  0.00  0.00    +0.000 A 
ATOM      6  C   UNL     1      -3.618  11.831  18.301  0.00  0.00    +0.000 C 
ENDROOT
BRANCH   3   7
ATOM      7  C   UNL     1       0.665   9.489  19.137  0.00  0.00    +0.000 A 
ATOM      8  C   UNL     1       1.343   9.416  17.906  0.00  0.00    +0.000 A 
ATOM      9  C   UNL     1       2.342   8.450  17.672  0.00  0.00    +0.000 A 
ATOM     10  C   UNL     1       2.697   7.536  18.665  0.00  0.00    +0.000 A 
ATOM     11  C   UNL     1       2.089   7.646  19.919  0.00  0.00    +0.000 A 
ATOM     12  C   UNL     1       1.089   8.612  20.151  0.00  0.00    +0.000 A 
BRANCH  10  13
ATOM     13  C   UNL     1       3.633   6.473  18.386  0.00  0.00    +0.000 C 
ATOM     14  C   UNL     1       4.516   5.554  18.118  0.00  0.00    +0.000 C 
BRANCH  14  15
ATOM     15  C   UNL     1       5.546   4.480  17.805  0.00  0.00    +0.000 C 
ATOM     16  C   UNL     1       5.251   3.876  16.429  0.00  0.00    +0.000 C 
ATOM     17  C   UNL     1       6.948   5.098  17.827  0.00  0.00    +0.000 C 
BRANCH  15  18
ATOM     18  N   UNL     1       5.462   3.435  18.822  0.00  0.00    +0.000 NA
ATOM     19  H   UNL     1       4.664   3.624  19.427  0.00  0.00    +0.000 HD
ATOM     20  H   UNL     1       6.286   3.486  19.420  0.00  0.00    +0.000 HD
ENDBRANCH  15  18
ENDBRANCH  14  15
ENDBRANCH  10  13
ENDBRANCH   3   7
BRANCH   1  22
ATOM     21  C   UNL     1      -2.008  14.671  20.895  0.00  0.00    +0.000 C 
ATOM     22  C   UNL     1      -2.597  13.271  21.009  0.00  0.00    +0.000 C 
ATOM     23  N   UNL     1      -3.623  12.976  21.764  0.00  0.00    +0.000 NA
BRANCH  23  24
ATOM     24  N   UNL     1      -4.292  13.983  22.413  0.00  0.00    +0.000 N 
ATOM     25  C   UNL     1      -5.502  13.842  23.028  0.00  0.00    +0.000 C 
ATOM     26  N   UNL     1      -6.316  14.834  23.256  0.00  0.00    +0.000 NA
ATOM     27  C   UNL     1      -7.476  14.204  23.954  0.00  0.00    +0.000 C 
ATOM     28  C   UNL     1      -7.189  12.700  24.040  0.00  0.00    +0.000 C 
ATOM     29  N   UNL     1      -5.900  12.600  23.406  0.00  0.00    +0.000 N 
ATOM     30  H   UNL     1      -4.223  14.929  22.045  0.00  0.00    +0.000 HD
ATOM     31  H   UNL     1      -5.179  12.019  23.813  0.00  0.00    +0.000 HD
ENDBRANCH  23  24
ENDBRANCH   1  22
TORSDOF 6
ENDMDL
MODEL 4
REMARK VINA RESULT:      -7.2      1.719      2.182
REMARK  Name = 
REMARK  10 active torsions:
REMARK  status: ('A' for Active; 'I' for Inactive)
REMARK    1  A    between atoms: C_1  and  C_2
REMARK    2  A    between atoms: C_2  and  C_10
REMARK    3  A    between atoms: N_3  and  N_4
REMARK    4  A    between atoms: C_12  and  C_13
REMARK    5  A    between atoms: C_16  and  C_17
REMARK    6  A    between atoms: C_18  and  C_19
REMARK    7  A    between atoms: C_19  and  C_20
REMARK    8  A    between atoms: C_19  and  C_21
REMARK    9  A    between atoms: C_19  and  N_22
REMARK   10  A    between atoms: C_26  and  C_27
REMARK                            x       y       z     vdW  Elec       q    Type
REMARK                         _______ _______ _______ _____ _____    ______ ____
ROOT
ATOM      1  C   UNL     1      -1.428  12.075  21.620  0.00  0.00    +0.000 A 
ATOM      2  S   UNL     1      -0.815  10.464  21.638  0.00  0.00    +0.000 S 
ATOM      3  C   UNL     1       0.011  10.708  20.145  0.00  0.00    +0.000 A 
ATOM      4  N   UNL     1      -0.129  11.926  19.660  0.00  0.00    +0.000 NA
ATOM      5  C   UNL     1      -0.947  12.710  20.475  0.00  0.00    +0.000 A 
ATOM      6  C   UNL     1      -1.207  14.114  20.053  0.00  0.00    +0.000 C 
ENDROOT
BRANCH   3   7
ATOM      7  C   UNL     1       0.855   9.639  19.549  0.00  0.00    +0.000 A 
ATOM      8  C   UNL     1       1.317   8.530  20.282  0.00  0.00    +0.000 A 
ATOM      9  C   UNL     1       2.200   7.590  19.714  0.00  0.00    +0.000 A 
ATOM     10  C   UNL     1       2.639   7.727  18.396  0.00  0.00    +0.000 A 
ATOM     11  C   UNL     1       2.127   8.779  17.631  0.00  0.00    +0.000 A 
ATOM     12  C   UNL     1       1.244   9.719  18.201  0.00  0.00    +0.000 A 
BRANCH  10  13
ATOM     13  C   UNL     1       3.634   6.833  17.855  0.00  0.00    +0.000 C 
ATOM     14  C   UNL     1       4.573   6.062  17.386  0.00  0.00    +0.000 C 
BRANCH  14  15
ATOM     15  C   UNL     1       5.669   5.162  16.837  0.00  0.00    +0.000 C 
ATOM     16  C   UNL     1       6.717   4.913  17.925  0.00  0.00    +0.000 C 
ATOM     17  C   UNL     1       5.056   3.838  16.372  0.00  0.00    +0.000 C 
BRANCH  15  18
ATOM     18  N   UNL     1       6.301   5.829  15.700  0.00  0.00    +0.000 NA
ATOM     19  H   UNL     1       7.216   5.411  15.537  0.00  0.00    +0.000 HD
ATOM     20  H   UNL     1       6.476   6.803  15.943  0.00  0.00    +0.000 HD
ENDBRANCH  15  18
ENDBRANCH  14  15
ENDBRANCH  10  13
ENDBRANCH   3   7
BRANCH   1  22
ATOM     21  C   UNL     1      -1.690  13.607  23.659  0.00  0.00    +0.000 C 
ATOM     22  C   UNL     1      -2.285  12.591  22.692  0.00  0.00    +0.000 C 
ATOM     23  N   UNL     1      -3.508  12.137  22.780  0.00  0.00    +0.000 NA
BRANCH  23  24
ATOM     24  N   UNL     1      -4.358  12.672  23.716  0.00  0.00    +0.000 N 
ATOM     25  C   UNL     1      -5.694  12.873  23.528  0.00  0.00    +0.000 C 
ATOM     26  N   UNL     1      -6.396  13.739  24.203  0.00  0.00    +0.000 NA
ATOM     27  C   UNL     1      -7.783  13.584  23.669  0.00  0.00    +0.000 C 
ATOM     28  C   UNL     1      -7.724  12.522  22.563  0.00  0.00    +0.000 C 
ATOM     29  N   UNL     1      -6.332  12.154  22.569  0.00  0.00    +0.000 N 
ATOM     30  H   UNL     1      -4.004  13.397  24.336  0.00  0.00    +0.000 HD
ATOM     31  H   UNL     1      -6.067  11.180  22.508  0.00  0.00    +0.000 HD
ENDBRANCH  23  24
ENDBRANCH   1  22
TORSDOF 6
ENDMDL
MODEL 5
REMARK VINA RESULT:      -7.2      2.843     11.668
REMARK  Name = 
REMARK  10 active torsions:
REMARK  status: ('A' for Active; 'I' for Inactive)
REMARK    1  A    between atoms: C_1  and  C_2
REMARK    2  A    between atoms: C_2  and  C_10
REMARK    3  A    between atoms: N_3  and  N_4
REMARK    4  A    between atoms: C_12  and  C_13
REMARK    5  A    between atoms: C_16  and  C_17
REMARK    6  A    between atoms: C_18  and  C_19
REMARK    7  A    between atoms: C_19  and  C_20
REMARK    8  A    between atoms: C_19  and  C_21
REMARK    9  A    between atoms: C_19  and  N_22
REMARK   10  A    between atoms: C_26  and  C_27
REMARK                            x       y       z     vdW  Elec       q    Type
REMARK                         _______ _______ _______ _____ _____    ______ ____
ROOT
ATOM      1  C   UNL     1       4.485   5.329  17.052  0.00  0.00    +0.000 A 
ATOM      2  S   UNL     1       4.185   6.994  17.380  0.00  0.00    +0.000 S 
ATOM      3  C   UNL     1       2.901   6.601  18.461  0.00  0.00    +0.000 A 
ATOM      4  N   UNL     1       2.713   5.304  18.604  0.00  0.00    +0.000 NA
ATOM      5  C   UNL     1       3.592   4.569  17.807  0.00  0.00    +0.000 A 
ATOM      6  C   UNL     1       3.494   3.084  17.853  0.00  0.00    +0.000 C 
ENDROOT
BRANCH   3   7
ATOM      7  C   UNL     1       2.167   7.661  19.202  0.00  0.00    +0.000 A 
ATOM      8  C   UNL     1       1.807   7.539  20.556  0.00  0.00    +0.000 A 
ATOM      9  C   UNL     1       1.021   8.517  21.199  0.00  0.00    +0.000 A 
ATOM     10  C   UNL     1       0.581   9.647  20.508  0.00  0.00    +0.000 A 
ATOM     11  C   UNL     1       0.995   9.820  19.185  0.00  0.00    +0.000 A 
ATOM     12  C   UNL     1       1.781   8.841  18.543  0.00  0.00    +0.000 A 
BRANCH  10  13
ATOM     13  C   UNL     1      -0.321  10.585  21.131  0.00  0.00    +0.000 C 
ATOM     14  C   UNL     1      -1.094  11.442  21.734  0.00  0.00    +0.000 C 
BRANCH  14  15
ATOM     15  C   UNL     1      -1.998  12.443  22.437  0.00  0.00    +0.000 C 
ATOM     16  C   UNL     1      -1.140  13.477  23.171  0.00  0.00    +0.000 C 
ATOM     17  C   UNL     1      -2.897  13.131  21.405  0.00  0.00    +0.000 C 
BRANCH  15  18
ATOM     18  N   UNL     1      -2.830  11.728  23.403  0.00  0.00    +0.000 NA
ATOM     19  H   UNL     1      -2.926  10.759  23.106  0.00  0.00    +0.000 HD
ATOM     20  H   UNL     1      -3.770  12.122  23.386  0.00  0.00    +0.000 HD
ENDBRANCH  15  18
ENDBRANCH  14  15
ENDBRANCH  10  13
ENDBRANCH   3   7
BRANCH   1  22
ATOM     21  C   UNL     1       6.884   4.485  16.726  0.00  0.00    +0.000 C 
ATOM     22  C   UNL     1       5.543   4.898  16.132  0.00  0.00    +0.000 C 
ATOM     23  N   UNL     1       5.292   4.911  14.849  0.00  0.00    +0.000 NA
BRANCH  23  24
ATOM     24  N   UNL     1       6.232   4.426  13.975  0.00  0.00    +0.000 N 
ATOM     25  C   UNL     1       5.959   3.622  12.907  0.00  0.00    +0.000 C 
ATOM     26  N   UNL     1       6.836   2.833  12.354  0.00  0.00    +0.000 NA
ATOM     27  C   UNL     1       6.091   2.184  11.233  0.00  0.00    +0.000 C 
ATOM     28  C   UNL     1       4.652   2.713  11.281  0.00  0.00    +0.000 C 
ATOM     29  N   UNL     1       4.698   3.618  12.401  0.00  0.00    +0.000 N 
ATOM     30  H   UNL     1       7.152   4.186  14.335  0.00  0.00    +0.000 HD
ATOM     31  H   UNL     1       4.253   4.524  12.338  0.00  0.00    +0.000 HD
ENDBRANCH  23  24
ENDBRANCH   1  22
TORSDOF 6
ENDMDL
MODEL 6
REMARK VINA RESULT:      -7.2      2.151      2.625
REMARK  Name = 
REMARK  10 active torsions:
REMARK  status: ('A' for Active; 'I' for Inactive)
REMARK    1  A    between atoms: C_1  and  C_2
REMARK    2  A    between atoms: C_2  and  C_10
REMARK    3  A    between atoms: N_3  and  N_4
REMARK    4  A    between atoms: C_12  and  C_13
REMARK    5  A    between atoms: C_16  and  C_17
REMARK    6  A    between atoms: C_18  and  C_19
REMARK    7  A    between atoms: C_19  and  C_20
REMARK    8  A    between atoms: C_19  and  C_21
REMARK    9  A    between atoms: C_19  and  N_22
REMARK   10  A    between atoms: C_26  and  C_27
REMARK                            x       y       z     vdW  Elec       q    Type
REMARK                         _______ _______ _______ _____ _____    ______ ____
ROOT
ATOM      1  C   UNL     1      -1.156  12.735  21.475  0.00  0.00    +0.000 A 
ATOM      2  S   UNL     1      -0.833  11.051  21.651  0.00  0.00    +0.000 S 
ATOM      3  C   UNL     1       0.163  11.045  20.244  0.00  0.00    +0.000 A 
ATOM      4  N   UNL     1       0.281  12.230  19.679  0.00  0.00    +0.000 NA
ATOM      5  C   UNL     1      -0.466  13.196  20.355  0.00  0.00    +0.000 A 
ATOM      6  C   UNL     1      -0.440  14.588  19.828  0.00  0.00    +0.000 C 
ENDROOT
BRANCH   3   7
ATOM      7  C   UNL     1       0.865   9.810  19.804  0.00  0.00    +0.000 A 
ATOM      8  C   UNL     1       1.061   8.700  20.645  0.00  0.00    +0.000 A 
ATOM      9  C   UNL     1       1.821   7.588  20.230  0.00  0.00    +0.000 A 
ATOM     10  C   UNL     1       2.399   7.552  18.960  0.00  0.00    +0.000 A 
ATOM     11  C   UNL     1       2.148   8.612  18.085  0.00  0.00    +0.000 A 
ATOM     12  C   UNL     1       1.388   9.724  18.501  0.00  0.00    +0.000 A 
BRANCH  10  13
ATOM     13  C   UNL     1       3.274   6.469  18.580  0.00  0.00    +0.000 C 
ATOM     14  C   UNL     1       4.037   5.459  18.276  0.00  0.00    +0.000 C 
BRANCH  14  15
ATOM     15  C   UNL     1       4.930   4.279  17.922  0.00  0.00    +0.000 C 
ATOM     16  C   UNL     1       4.136   3.273  17.084  0.00  0.00    +0.000 C 
ATOM     17  C   UNL     1       6.149   4.779  17.141  0.00  0.00    +0.000 C 
BRANCH  15  18
ATOM     18  N   UNL     1       5.376   3.638  19.157  0.00  0.00    +0.000 NA
ATOM     19  H   UNL     1       4.782   2.831  19.345  0.00  0.00    +0.000 HD
ATOM     20  H   UNL     1       5.230   4.281  19.935  0.00  0.00    +0.000 HD
ENDBRANCH  15  18
ENDBRANCH  14  15
ENDBRANCH  10  13
ENDBRANCH   3   7
BRANCH   1  22
ATOM     21  C   UNL     1      -1.339  14.254  23.532  0.00  0.00    +0.000 C 
ATOM     22  C   UNL     1      -2.012  13.462  22.418  0.00  0.00    +0.000 C 
ATOM     23  N   UNL     1      -3.309  13.378  22.271  0.00  0.00    +0.000 NA
BRANCH  23  24
ATOM     24  N   UNL     1      -4.128  14.123  23.082  0.00  0.00    +0.000 N 
ATOM     25  C   UNL     1      -5.401  13.777  23.428  0.00  0.00    +0.000 C 
ATOM     26  N   UNL     1      -6.302  14.636  23.815  0.00  0.00    +0.000 NA
ATOM     27  C   UNL     1      -7.508  13.800  24.099  0.00  0.00    +0.000 C 
ATOM     28  C   UNL     1      -7.138  12.348  23.769  0.00  0.00    +0.000 C 
ATOM     29  N   UNL     1      -5.768  12.472  23.344  0.00  0.00    +0.000 N 
ATOM     30  H   UNL     1      -4.068  15.137  23.033  0.00  0.00    +0.000 HD
ATOM     31  H   UNL     1      -5.077  11.806  23.663  0.00  0.00    +0.000 HD
ENDBRANCH  23  24
ENDBRANCH   1  22
TORSDOF 6
ENDMDL
MODEL 7
REMARK VINA RESULT:      -7.1      1.452      1.843
REMARK  Name = 
REMARK  10 active torsions:
REMARK  status: ('A' for Active; 'I' for Inactive)
REMARK    1  A    between atoms: C_1  and  C_2
REMARK    2  A    between atoms: C_2  and  C_10
REMARK    3  A    between atoms: N_3  and  N_4
REMARK    4  A    between atoms: C_12  and  C_13
REMARK    5  A    between atoms: C_16  and  C_17
REMARK    6  A    between atoms: C_18  and  C_19
REMARK    7  A    between atoms: C_19  and  C_20
REMARK    8  A    between atoms: C_19  and  C_21
REMARK    9  A    between atoms: C_19  and  N_22
REMARK   10  A    between atoms: C_26  and  C_27
REMARK                            x       y       z     vdW  Elec       q    Type
REMARK                         _______ _______ _______ _____ _____    ______ ____
ROOT
ATOM      1  C   UNL     1      -1.829  12.086  20.725  0.00  0.00    +0.000 A 
ATOM      2  S   UNL     1      -1.189  11.285  19.340  0.00  0.00    +0.000 S 
ATOM      3  C   UNL     1      -0.102  10.366  20.311  0.00  0.00    +0.000 A 
ATOM      4  N   UNL     1      -0.216  10.609  21.601  0.00  0.00    +0.000 NA
ATOM      5  C   UNL     1      -1.180  11.587  21.854  0.00  0.00    +0.000 A 
ATOM      6  C   UNL     1      -1.419  11.978  23.271  0.00  0.00    +0.000 C 
ENDROOT
BRANCH   3   7
ATOM      7  C   UNL     1       0.798   9.348  19.707  0.00  0.00    +0.000 A 
ATOM      8  C   UNL     1       1.305   8.251  20.427  0.00  0.00    +0.000 A 
ATOM      9  C   UNL     1       2.238   7.363  19.854  0.00  0.00    +0.000 A 
ATOM     10  C   UNL     1       2.681   7.541  18.543  0.00  0.00    +0.000 A 
ATOM     11  C   UNL     1       2.127   8.579  17.789  0.00  0.00    +0.000 A 
ATOM     12  C   UNL     1       1.195   9.468  18.364  0.00  0.00    +0.000 A 
BRANCH  10  13
ATOM     13  C   UNL     1       3.722   6.704  17.998  0.00  0.00    +0.000 C 
ATOM     14  C   UNL     1       4.645   5.906  17.541  0.00  0.00    +0.000 C 
BRANCH  14  15
ATOM     15  C   UNL     1       5.722   4.974  17.007  0.00  0.00    +0.000 C 
ATOM     16  C   UNL     1       5.162   4.166  15.834  0.00  0.00    +0.000 C 
ATOM     17  C   UNL     1       6.932   5.799  16.558  0.00  0.00    +0.000 C 
BRANCH  15  18
ATOM     18  N   UNL     1       6.127   4.063  18.075  0.00  0.00    +0.000 NA
ATOM     19  H   UNL     1       6.065   3.104  17.735  0.00  0.00    +0.000 HD
ATOM     20  H   UNL     1       5.459   4.133  18.842  0.00  0.00    +0.000 HD
ENDBRANCH  15  18
ENDBRANCH  14  15
ENDBRANCH  10  13
ENDBRANCH   3   7
BRANCH   1  22
ATOM     21  C   UNL     1      -2.491  14.562  20.649  0.00  0.00    +0.000 C 
ATOM     22  C   UNL     1      -2.891  13.092  20.617  0.00  0.00    +0.000 C 
ATOM     23  N   UNL     1      -4.128  12.679  20.523  0.00  0.00    +0.000 NA
BRANCH  23  24
ATOM     24  N   UNL     1      -5.130  13.597  20.329  0.00  0.00    +0.000 N 
ATOM     25  C   UNL     1      -5.777  13.802  19.145  0.00  0.00    +0.000 C 
ATOM     26  N   UNL     1      -6.391  14.910  18.840  0.00  0.00    +0.000 NA
ATOM     27  C   UNL     1      -6.953  14.656  17.479  0.00  0.00    +0.000 C 
ATOM     28  C   UNL     1      -6.517  13.244  17.068  0.00  0.00    +0.000 C 
ATOM     29  N   UNL     1      -5.766  12.810  18.216  0.00  0.00    +0.000 N 
ATOM     30  H   UNL     1      -5.084  14.480  20.831  0.00  0.00    +0.000 HD
ATOM     31  H   UNL     1      -5.892  11.875  18.580  0.00  0.00    +0.000 HD
ENDBRANCH  23  24
ENDBRANCH   1  22
TORSDOF 6
ENDMDL
MODEL 8
REMARK VINA RESULT:      -7.1      2.068      2.736
REMARK  Name = 
REMARK  10 active torsions:
REMARK  status: ('A' for Active; 'I' for Inactive)
REMARK    1  A    between atoms: C_1  and  C_2
REMARK    2  A    between atoms: C_2  and  C_10
REMARK    3  A    between atoms: N_3  and  N_4
REMARK    4  A    between atoms: C_12  and  C_13
REMARK    5  A    between atoms: C_16  and  C_17
REMARK    6  A    between atoms: C_18  and  C_19
REMARK    7  A    between atoms: C_19  and  C_20
REMARK    8  A    between atoms: C_19  and  C_21
REMARK    9  A    between atoms: C_19  and  N_22
REMARK   10  A    between atoms: C_26  and  C_27
REMARK                            x       y       z     vdW  Elec       q    Type
REMARK                         _______ _______ _______ _____ _____    ______ ____
ROOT
ATOM      1  C   UNL     1      -1.506  12.403  21.482  0.00  0.00    +0.000 A 
ATOM      2  S   UNL     1      -0.901  10.808  21.727  0.00  0.00    +0.000 S 
ATOM      3  C   UNL     1       0.013  10.877  20.268  0.00  0.00    +0.000 A 
ATOM      4  N   UNL     1      -0.093  12.029  19.635  0.00  0.00    +0.000 NA
ATOM      5  C   UNL     1      -0.955  12.901  20.301  0.00  0.00    +0.000 A 
ATOM      6  C   UNL     1      -1.185  14.244  19.702  0.00  0.00    +0.000 C 
ENDROOT
BRANCH   3   7
ATOM      7  C   UNL     1       0.888   9.748  19.853  0.00  0.00    +0.000 A 
ATOM      8  C   UNL     1       1.440   9.642  18.564  0.00  0.00    +0.000 A 
ATOM      9  C   UNL     1       2.179   8.507  18.172  0.00  0.00    +0.000 A 
ATOM     10  C   UNL     1       2.394   7.453  19.061  0.00  0.00    +0.000 A 
ATOM     11  C   UNL     1       1.919   7.579  20.369  0.00  0.00    +0.000 A 
ATOM     12  C   UNL     1       1.179   8.714  20.759  0.00  0.00    +0.000 A 
BRANCH  10  13
ATOM     13  C   UNL     1       3.046   6.243  18.623  0.00  0.00    +0.000 C 
ATOM     14  C   UNL     1       3.593   5.143  18.190  0.00  0.00    +0.000 C 
BRANCH  14  15
ATOM     15  C   UNL     1       4.231   3.858  17.684  0.00  0.00    +0.000 C 
ATOM     16  C   UNL     1       3.148   2.794  17.487  0.00  0.00    +0.000 C 
ATOM     17  C   UNL     1       4.955   4.134  16.363  0.00  0.00    +0.000 C 
BRANCH  15  18
ATOM     18  N   UNL     1       5.196   3.389  18.676  0.00  0.00    +0.000 NA
ATOM     19  H   UNL     1       5.624   4.195  19.129  0.00  0.00    +0.000 HD
ATOM     20  H   UNL     1       5.953   2.902  18.198  0.00  0.00    +0.000 HD
ENDBRANCH  15  18
ENDBRANCH  14  15
ENDBRANCH  10  13
ENDBRANCH   3   7
BRANCH   1  22
ATOM     21  C   UNL     1      -2.032  14.393  23.012  0.00  0.00    +0.000 C 
ATOM     22  C   UNL     1      -2.424  13.039  22.433  0.00  0.00    +0.000 C 
ATOM     23  N   UNL     1      -3.521  12.404  22.755  0.00  0.00    +0.000 NA
BRANCH  23  24
ATOM     24  N   UNL     1      -4.439  13.019  23.570  0.00  0.00    +0.000 N 
ATOM     25  C   UNL     1      -5.779  13.084  23.320  0.00  0.00    +0.000 C 
ATOM     26  N   UNL     1      -6.564  13.992  23.826  0.00  0.00    +0.000 NA
ATOM     27  C   UNL     1      -7.916  13.647  23.292  0.00  0.00    +0.000 C 
ATOM     28  C   UNL     1      -7.743  12.426  22.380  0.00  0.00    +0.000 C 
ATOM     29  N   UNL     1      -6.330  12.171  22.478  0.00  0.00    +0.000 N 
ATOM     30  H   UNL     1      -4.160  13.860  24.068  0.00  0.00    +0.000 HD
ATOM     31  H   UNL     1      -5.993  11.223  22.586  0.00  0.00    +0.000 HD
ENDBRANCH  23  24
ENDBRANCH   1  22
TORSDOF 6
ENDMDL
MODEL 9
REMARK VINA RESULT:      -6.9      1.934      2.102
REMARK  Name = 
REMARK  10 active torsions:
REMARK  status: ('A' for Active; 'I' for Inactive)
REMARK    1  A    between atoms: C_1  and  C_2
REMARK    2  A    between atoms: C_2  and  C_10
REMARK    3  A    between atoms: N_3  and  N_4
REMARK    4  A    between atoms: C_12  and  C_13
REMARK    5  A    between atoms: C_16  and  C_17
REMARK    6  A    between atoms: C_18  and  C_19
REMARK    7  A    between atoms: C_19  and  C_20
REMARK    8  A    between atoms: C_19  and  C_21
REMARK    9  A    between atoms: C_19  and  N_22
REMARK   10  A    between atoms: C_26  and  C_27
REMARK                            x       y       z     vdW  Elec       q    Type
REMARK                         _______ _______ _______ _____ _____    ______ ____
ROOT
ATOM      1  C   UNL     1      -1.797  12.040  20.451  0.00  0.00    +0.000 A 
ATOM      2  S   UNL     1      -1.252  11.071  19.134  0.00  0.00    +0.000 S 
ATOM      3  C   UNL     1      -0.022  10.354  20.105  0.00  0.00    +0.000 A 
ATOM      4  N   UNL     1      -0.022  10.781  21.352  0.00  0.00    +0.000 NA
ATOM      5  C   UNL     1      -1.012  11.741  21.564  0.00  0.00    +0.000 A 
ATOM      6  C   UNL     1      -1.132  12.327  22.928  0.00  0.00    +0.000 C 
ENDROOT
BRANCH   3   7
ATOM      7  C   UNL     1       0.872   9.298  19.560  0.00  0.00    +0.000 A 
ATOM      8  C   UNL     1       1.334   8.215  20.330  0.00  0.00    +0.000 A 
ATOM      9  C   UNL     1       2.262   7.289  19.813  0.00  0.00    +0.000 A 
ATOM     10  C   UNL     1       2.747   7.415  18.510  0.00  0.00    +0.000 A 
ATOM     11  C   UNL     1       2.238   8.440  17.708  0.00  0.00    +0.000 A 
ATOM     12  C   UNL     1       1.310   9.366  18.226  0.00  0.00    +0.000 A 
BRANCH  10  13
ATOM     13  C   UNL     1       3.785   6.539  18.023  0.00  0.00    +0.000 C 
ATOM     14  C   UNL     1       4.759   5.792  17.587  0.00  0.00    +0.000 C 
BRANCH  14  15
ATOM     15  C   UNL     1       5.896   4.919  17.078  0.00  0.00    +0.000 C 
ATOM     16  C   UNL     1       5.383   4.023  15.947  0.00  0.00    +0.000 C 
ATOM     17  C   UNL     1       7.037   5.810  16.578  0.00  0.00    +0.000 C 
BRANCH  15  18
ATOM     18  N   UNL     1       6.378   4.086  18.177  0.00  0.00    +0.000 NA
ATOM     19  H   UNL     1       7.363   3.873  18.025  0.00  0.00    +0.000 HD
ATOM     20  H   UNL     1       5.891   3.190  18.152  0.00  0.00    +0.000 HD
ENDBRANCH  15  18
ENDBRANCH  14  15
ENDBRANCH  10  13
ENDBRANCH   3   7
BRANCH   1  22
ATOM     21  C   UNL     1      -4.234  12.434  19.757  0.00  0.00    +0.000 C 
ATOM     22  C   UNL     1      -2.922  12.971  20.314  0.00  0.00    +0.000 C 
ATOM     23  N   UNL     1      -2.738  14.220  20.656  0.00  0.00    +0.000 NA
BRANCH  23  24
ATOM     24  N   UNL     1      -3.799  15.089  20.626  0.00  0.00    +0.000 N 
ATOM     25  C   UNL     1      -4.574  15.407  21.702  0.00  0.00    +0.000 C 
ATOM     26  N   UNL     1      -5.791  15.863  21.607  0.00  0.00    +0.000 NA
ATOM     27  C   UNL     1      -6.215  16.079  23.023  0.00  0.00    +0.000 C 
ATOM     28  C   UNL     1      -5.051  15.633  23.916  0.00  0.00    +0.000 C 
ATOM     29  N   UNL     1      -4.068  15.218  22.949  0.00  0.00    +0.000 N 
ATOM     30  H   UNL     1      -4.376  15.122  19.789  0.00  0.00    +0.000 HD
ATOM     31  H   UNL     1      -3.099  15.482  23.067  0.00  0.00    +0.000 HD
ENDBRANCH  23  24
ENDBRANCH   1  22
TORSDOF 6
ENDMDL
