MODEL 1
REMARK VINA RESULT:      -6.5      0.000      0.000
REMARK  Name = 
REMARK  3 active torsions:
REMARK  status: ('A' for Active; 'I' for Inactive)
REMARK    1  A    between atoms: C_1  and  O_2
REMARK    2  A    between atoms: O_2  and  C_3
REMARK    3  A    between atoms: N_21  and  C_22
REMARK                            x       y       z     vdW  Elec       q    Type
REMARK                         _______ _______ _______ _____ _____    ______ ____
ROOT
ATOM      1  C   UNL     1       3.077  16.111  19.450  0.00  0.00    +0.000 C 
ATOM      2  C   UNL     1       3.692  14.727  19.668  0.00  0.00    +0.000 C 
ATOM      3  C   UNL     1       2.772  13.766  20.454  0.00  0.00    +0.000 C 
ATOM      4  C   UNL     1       1.360  13.627  19.843  0.00  0.00    +0.000 C 
ATOM      5  C   UNL     1       0.836  15.034  19.255  0.00  0.00    +0.000 C 
ATOM      6  C   UNL     1       1.839  15.948  18.580  0.00  0.00    +0.000 C 
ATOM      7  C   UNL     1       1.437  12.825  18.488  0.00  0.00    +0.000 C 
ATOM      8  C   UNL     1       1.268  11.418  18.901  0.00  0.00    +0.000 A 
ATOM      9  C   UNL     1       1.785  10.346  18.163  0.00  0.00    +0.000 A 
ATOM     10  C   UNL     1       1.756   9.083  18.723  0.00  0.00    +0.000 A 
ATOM     11  C   UNL     1       1.209   8.927  19.998  0.00  0.00    +0.000 A 
ATOM     12 BR   UNL     1       1.325   7.216  20.808  0.00  0.00    +0.000 Br
ATOM     13  C   UNL     1       0.643  10.018  20.704  0.00  0.00    +0.000 A 
ATOM     14  C   UNL     1       0.621  11.295  20.133  0.00  0.00    +0.000 A 
ATOM     15  C   UNL     1       0.312  12.681  20.765  0.00  0.00    +0.000 C 
ATOM     16  N   UNL     1      -0.807  13.519  20.366  0.00  0.00    +0.000 N 
ATOM     17  C   UNL     1      -1.042  14.332  21.519  0.00  0.00    +0.000 C 
ATOM     18  S   UNL     1      -0.203  15.596  22.302  0.00  0.00    +0.000 S 
ATOM     19  N   UNL     1      -1.623  13.466  22.330  0.00  0.00    +0.000 N 
ATOM     20  C   UNL     1      -0.687  12.463  22.243  0.00  0.00    +0.000 C 
ATOM     21  O   UNL     1      -0.565  11.550  23.065  0.00  0.00    +0.000 OA
ATOM     22  H   UNL     1      -1.614  12.976  20.090  0.00  0.00    +0.000 HD
ENDROOT
BRANCH  19  23
ATOM     23  C   UNL     1      -2.873  13.980  22.936  0.00  0.00    +0.000 C 
ATOM     24  C   UNL     1      -4.054  13.989  21.964  0.00  0.00    +0.000 C 
ATOM     25  C   UNL     1      -4.935  12.781  22.166  0.00  0.00    +0.000 C 
ATOM     26  O   UNL     1      -5.289  12.658  23.541  0.00  0.00    +0.000 OA
ATOM     27  C   UNL     1      -4.155  12.410  24.376  0.00  0.00    +0.000 C 
ATOM     28  C   UNL     1      -3.215  13.589  24.354  0.00  0.00    +0.000 C 
ENDBRANCH  19  23
BRANCH   1  30
ATOM     29  C   UNL     1       2.420  18.125  20.572  0.00  0.00    +0.000 C 
ATOM     30  O   UNL     1       2.678  16.734  20.672  0.00  0.00    +0.000 OA
ENDBRANCH   1  30
TORSDOF 2
ENDMDL
MODEL 2
REMARK VINA RESULT:      -6.4      1.866      5.981
REMARK  Name = 
REMARK  3 active torsions:
REMARK  status: ('A' for Active; 'I' for Inactive)
REMARK    1  A    between atoms: C_1  and  O_2
REMARK    2  A    between atoms: O_2  and  C_3
REMARK    3  A    between atoms: N_21  and  C_22
REMARK                            x       y       z     vdW  Elec       q    Type
REMARK                         _______ _______ _______ _____ _____    ______ ____
ROOT
ATOM      1  C   UNL     1      -3.992  13.856  23.026  0.00  0.00    +0.000 C 
ATOM      2  C   UNL     1      -3.868  12.580  22.190  0.00  0.00    +0.000 C 
ATOM      3  C   UNL     1      -2.693  12.617  21.188  0.00  0.00    +0.000 C 
ATOM      4  C   UNL     1      -1.335  12.955  21.842  0.00  0.00    +0.000 C 
ATOM      5  C   UNL     1      -1.505  14.051  23.013  0.00  0.00    +0.000 C 
ATOM      6  C   UNL     1      -2.741  13.982  23.885  0.00  0.00    +0.000 C 
ATOM      7  C   UNL     1      -0.851  11.744  22.728  0.00  0.00    +0.000 C 
ATOM      8  C   UNL     1      -0.062  10.916  21.795  0.00  0.00    +0.000 A 
ATOM      9  C   UNL     1       0.104   9.536  21.962  0.00  0.00    +0.000 A 
ATOM     10  C   UNL     1       0.684   8.811  20.940  0.00  0.00    +0.000 A 
ATOM     11  C   UNL     1       1.086   9.484  19.784  0.00  0.00    +0.000 A 
ATOM     12 BR   UNL     1       1.732   8.445  18.334  0.00  0.00    +0.000 Br
ATOM     13  C   UNL     1       0.957  10.889  19.659  0.00  0.00    +0.000 A 
ATOM     14  C   UNL     1       0.415  11.647  20.703  0.00  0.00    +0.000 A 
ATOM     15  C   UNL     1      -0.072  13.122  20.737  0.00  0.00    +0.000 C 
ATOM     16  N   UNL     1       0.528  14.152  21.569  0.00  0.00    +0.000 N 
ATOM     17  C   UNL     1       0.199  15.366  20.887  0.00  0.00    +0.000 C 
ATOM     18  S   UNL     1      -1.237  16.245  20.605  0.00  0.00    +0.000 S 
ATOM     19  N   UNL     1       1.032  15.320  19.863  0.00  0.00    +0.000 N 
ATOM     20  C   UNL     1       0.726  14.053  19.423  0.00  0.00    +0.000 C 
ATOM     21  O   UNL     1       0.974  13.630  18.290  0.00  0.00    +0.000 OA
ATOM     22  H   UNL     1       1.524  14.018  21.686  0.00  0.00    +0.000 HD
ENDROOT
BRANCH  19  23
ATOM     23  C   UNL     1       1.788  16.577  19.668  0.00  0.00    +0.000 C 
ATOM     24  C   UNL     1       3.126  16.596  20.409  0.00  0.00    +0.000 C 
ATOM     25  C   UNL     1       4.266  16.247  19.485  0.00  0.00    +0.000 C 
ATOM     26  O   UNL     1       4.216  17.059  18.315  0.00  0.00    +0.000 OA
ATOM     27  C   UNL     1       3.043  16.818  17.534  0.00  0.00    +0.000 C 
ATOM     28  C   UNL     1       1.806  17.217  18.300  0.00  0.00    +0.000 C 
ENDBRANCH  19  23
BRANCH   1  30
ATOM     29  C   UNL     1      -4.715  16.135  22.862  0.00  0.00    +0.000 C 
ATOM     30  O   UNL     1      -4.095  15.032  22.222  0.00  0.00    +0.000 OA
ENDBRANCH   1  30
TORSDOF 2
ENDMDL
MODEL 3
REMARK VINA RESULT:      -6.3      2.062      6.056
REMARK  Name = 
REMARK  3 active torsions:
REMARK  status: ('A' for Active; 'I' for Inactive)
REMARK    1  A    between atoms: C_1  and  O_2
REMARK    2  A    between atoms: O_2  and  C_3
REMARK    3  A    between atoms: N_21  and  C_22
REMARK                            x       y       z     vdW  Elec       q    Type
REMARK                         _______ _______ _______ _____ _____    ______ ____
ROOT
ATOM      1  C   UNL     1      -4.494  14.539  21.987  0.00  0.00    +0.000 C 
ATOM      2  C   UNL     1      -4.305  13.080  21.566  0.00  0.00    +0.000 C 
ATOM      3  C   UNL     1      -2.931  12.803  20.915  0.00  0.00    +0.000 C 
ATOM      4  C   UNL     1      -1.736  13.264  21.779  0.00  0.00    +0.000 C 
ATOM      5  C   UNL     1      -2.066  14.643  22.547  0.00  0.00    +0.000 C 
ATOM      6  C   UNL     1      -3.471  14.856  23.069  0.00  0.00    +0.000 C 
ATOM      7  C   UNL     1      -1.594  12.328  23.040  0.00  0.00    +0.000 C 
ATOM      8  C   UNL     1      -0.695  11.251  22.581  0.00  0.00    +0.000 A 
ATOM      9  C   UNL     1      -0.708   9.965  23.134  0.00  0.00    +0.000 A 
ATOM     10  C   UNL     1       0.019   8.969  22.512  0.00  0.00    +0.000 A 
ATOM     11  C   UNL     1       0.743   9.286  21.360  0.00  0.00    +0.000 A 
ATOM     12 BR   UNL     1       1.604   7.870  20.438  0.00  0.00    +0.000 Br
ATOM     13  C   UNL     1       0.786  10.607  20.849  0.00  0.00    +0.000 A 
ATOM     14  C   UNL     1       0.093  11.639  21.493  0.00  0.00    +0.000 A 
ATOM     15  C   UNL     1      -0.241  13.081  21.022  0.00  0.00    +0.000 C 
ATOM     16  N   UNL     1       0.248  14.280  21.684  0.00  0.00    +0.000 N 
ATOM     17  C   UNL     1       0.207  15.271  20.652  0.00  0.00    +0.000 C 
ATOM     18  S   UNL     1      -1.030  16.084  19.802  0.00  0.00    +0.000 S 
ATOM     19  N   UNL     1       1.247  14.919  19.917  0.00  0.00    +0.000 N 
ATOM     20  C   UNL     1       0.929  13.591  19.757  0.00  0.00    +0.000 C 
ATOM     21  O   UNL     1       1.390  12.866  18.870  0.00  0.00    +0.000 OA
ATOM     22  H   UNL     1       1.171  14.152  22.077  0.00  0.00    +0.000 HD
ENDROOT
BRANCH  19  23
ATOM     23  C   UNL     1       2.148  16.051  19.600  0.00  0.00    +0.000 C 
ATOM     24  C   UNL     1       3.410  16.075  20.465  0.00  0.00    +0.000 C 
ATOM     25  C   UNL     1       4.583  15.470  19.735  0.00  0.00    +0.000 C 
ATOM     26  O   UNL     1       4.723  16.069  18.450  0.00  0.00    +0.000 OA
ATOM     27  C   UNL     1       3.605  15.805  17.600  0.00  0.00    +0.000 C 
ATOM     28  C   UNL     1       2.355  16.440  18.156  0.00  0.00    +0.000 C 
ENDBRANCH  19  23
BRANCH   1  30
ATOM     29  C   UNL     1      -4.905  16.719  21.079  0.00  0.00    +0.000 C 
ATOM     30  O   UNL     1      -4.290  15.453  20.907  0.00  0.00    +0.000 OA
ENDBRANCH   1  30
TORSDOF 2
ENDMDL
MODEL 4
REMARK VINA RESULT:      -6.1      7.404      9.589
REMARK  Name = 
REMARK  3 active torsions:
REMARK  status: ('A' for Active; 'I' for Inactive)
REMARK    1  A    between atoms: C_1  and  O_2
REMARK    2  A    between atoms: O_2  and  C_3
REMARK    3  A    between atoms: N_21  and  C_22
REMARK                            x       y       z     vdW  Elec       q    Type
REMARK                         _______ _______ _______ _____ _____    ______ ____
ROOT
ATOM      1  C   UNL     1      11.234  12.220  18.527  0.00  0.00    +0.000 C 
ATOM      2  C   UNL     1      11.623  12.227  20.007  0.00  0.00    +0.000 C 
ATOM      3  C   UNL     1      10.862  13.286  20.835  0.00  0.00    +0.000 C 
ATOM      4  C   UNL     1       9.327  13.194  20.692  0.00  0.00    +0.000 C 
ATOM      5  C   UNL     1       8.901  12.808  19.185  0.00  0.00    +0.000 C 
ATOM      6  C   UNL     1       9.767  11.825  18.425  0.00  0.00    +0.000 C 
ATOM      7  C   UNL     1       8.797  11.900  21.420  0.00  0.00    +0.000 C 
ATOM      8  C   UNL     1       8.524  12.356  22.797  0.00  0.00    +0.000 A 
ATOM      9  C   UNL     1       8.558  11.496  23.901  0.00  0.00    +0.000 A 
ATOM     10  C   UNL     1       8.489  12.042  25.168  0.00  0.00    +0.000 A 
ATOM     11  C   UNL     1       8.384  13.429  25.296  0.00  0.00    +0.000 A 
ATOM     12 BR   UNL     1       8.451  14.164  27.043  0.00  0.00    +0.000 Br
ATOM     13  C   UNL     1       8.297  14.276  24.164  0.00  0.00    +0.000 A 
ATOM     14  C   UNL     1       8.317  13.737  22.872  0.00  0.00    +0.000 A 
ATOM     15  C   UNL     1       8.496  14.425  21.491  0.00  0.00    +0.000 C 
ATOM     16  N   UNL     1       7.481  14.424  20.450  0.00  0.00    +0.000 N 
ATOM     17  C   UNL     1       7.799  15.582  19.673  0.00  0.00    +0.000 C 
ATOM     18  S   UNL     1       9.067  16.022  18.618  0.00  0.00    +0.000 S 
ATOM     19  N   UNL     1       7.376  16.549  20.467  0.00  0.00    +0.000 N 
ATOM     20  C   UNL     1       8.030  16.156  21.612  0.00  0.00    +0.000 C 
ATOM     21  O   UNL     1       8.253  16.895  22.576  0.00  0.00    +0.000 OA
ATOM     22  H   UNL     1       6.543  14.443  20.829  0.00  0.00    +0.000 HD
ENDROOT
BRANCH  19  23
ATOM     23  C   UNL     1       6.518  17.540  19.778  0.00  0.00    +0.000 C 
ATOM     24  C   UNL     1       5.677  16.930  18.656  0.00  0.00    +0.000 C 
ATOM     25  C   UNL     1       4.271  16.645  19.122  0.00  0.00    +0.000 C 
ATOM     26  O   UNL     1       3.711  17.807  19.730  0.00  0.00    +0.000 OA
ATOM     27  C   UNL     1       4.406  18.188  20.919  0.00  0.00    +0.000 C 
ATOM     28  C   UNL     1       5.821  18.600  20.596  0.00  0.00    +0.000 C 
ENDBRANCH  19  23
BRANCH   1  30
ATOM     29  C   UNL     1      11.724  13.459  16.534  0.00  0.00    +0.000 C 
ATOM     30  O   UNL     1      11.389  13.500  17.912  0.00  0.00    +0.000 OA
ENDBRANCH   1  30
TORSDOF 2
ENDMDL
MODEL 5
REMARK VINA RESULT:      -6.1      3.317      6.539
REMARK  Name = 
REMARK  3 active torsions:
REMARK  status: ('A' for Active; 'I' for Inactive)
REMARK    1  A    between atoms: C_1  and  O_2
REMARK    2  A    between atoms: O_2  and  C_3
REMARK    3  A    between atoms: N_21  and  C_22
REMARK                            x       y       z     vdW  Elec       q    Type
REMARK                         _______ _______ _______ _____ _____    ______ ____
ROOT
ATOM      1  C   UNL     1      -2.630  16.650  24.428  0.00  0.00    +0.000 C 
ATOM      2  C   UNL     1      -3.772  16.647  23.409  0.00  0.00    +0.000 C 
ATOM      3  C   UNL     1      -3.560  15.640  22.256  0.00  0.00    +0.000 C 
ATOM      4  C   UNL     1      -3.278  14.200  22.740  0.00  0.00    +0.000 C 
ATOM      5  C   UNL     1      -2.362  14.197  24.067  0.00  0.00    +0.000 C 
ATOM      6  C   UNL     1      -2.589  15.284  25.097  0.00  0.00    +0.000 C 
ATOM      7  C   UNL     1      -4.586  13.577  23.361  0.00  0.00    +0.000 C 
ATOM      8  C   UNL     1      -5.252  12.935  22.211  0.00  0.00    +0.000 A 
ATOM      9  C   UNL     1      -6.637  12.734  22.152  0.00  0.00    +0.000 A 
ATOM     10  C   UNL     1      -7.195  12.313  20.961  0.00  0.00    +0.000 A 
ATOM     11  C   UNL     1      -6.355  12.099  19.865  0.00  0.00    +0.000 A 
ATOM     12 BR   UNL     1      -7.161  11.675  18.202  0.00  0.00    +0.000 Br
ATOM     13  C   UNL     1      -4.950  12.256  19.963  0.00  0.00    +0.000 A 
ATOM     14  C   UNL     1      -4.362  12.636  21.175  0.00  0.00    +0.000 A 
ATOM     15  C   UNL     1      -2.921  13.123  21.492  0.00  0.00    +0.000 C 
ATOM     16  N   UNL     1      -2.001  12.410  22.362  0.00  0.00    +0.000 N 
ATOM     17  C   UNL     1      -0.714  12.849  21.919  0.00  0.00    +0.000 C 
ATOM     18  S   UNL     1       0.154  14.318  21.985  0.00  0.00    +0.000 S 
ATOM     19  N   UNL     1      -0.592  12.183  20.784  0.00  0.00    +0.000 N 
ATOM     20  C   UNL     1      -1.793  12.543  20.220  0.00  0.00    +0.000 C 
ATOM     21  O   UNL     1      -2.046  12.470  19.014  0.00  0.00    +0.000 OA
ATOM     22  H   UNL     1      -2.120  11.407  22.308  0.00  0.00    +0.000 HD
ENDROOT
BRANCH  19  23
ATOM     23  C   UNL     1       0.703  11.475  20.659  0.00  0.00    +0.000 C 
ATOM     24  C   UNL     1       0.810  10.252  21.570  0.00  0.00    +0.000 C 
ATOM     25  C   UNL     1       0.508   8.981  20.816  0.00  0.00    +0.000 C 
ATOM     26  O   UNL     1       1.294   8.917  19.629  0.00  0.00    +0.000 OA
ATOM     27  C   UNL     1       0.973   9.960  18.706  0.00  0.00    +0.000 C 
ATOM     28  C   UNL     1       1.316  11.307  19.289  0.00  0.00    +0.000 C 
ENDBRANCH  19  23
BRANCH   1  30
ATOM     29  C   UNL     1      -0.335  17.273  24.729  0.00  0.00    +0.000 C 
ATOM     30  O   UNL     1      -1.356  16.884  23.825  0.00  0.00    +0.000 OA
ENDBRANCH   1  30
TORSDOF 2
ENDMDL
MODEL 6
REMARK VINA RESULT:      -6.0      2.143      6.045
REMARK  Name = 
REMARK  3 active torsions:
REMARK  status: ('A' for Active; 'I' for Inactive)
REMARK    1  A    between atoms: C_1  and  O_2
REMARK    2  A    between atoms: O_2  and  C_3
REMARK    3  A    between atoms: N_21  and  C_22
REMARK                            x       y       z     vdW  Elec       q    Type
REMARK                         _______ _______ _______ _____ _____    ______ ____
ROOT
ATOM      1  C   UNL     1      -4.715  13.908  23.038  0.00  0.00    +0.000 C 
ATOM      2  C   UNL     1      -4.470  12.631  22.230  0.00  0.00    +0.000 C 
ATOM      3  C   UNL     1      -3.333  12.771  21.193  0.00  0.00    +0.000 C 
ATOM      4  C   UNL     1      -2.005  13.278  21.799  0.00  0.00    +0.000 C 
ATOM      5  C   UNL     1      -2.268  14.380  22.946  0.00  0.00    +0.000 C 
ATOM      6  C   UNL     1      -3.465  14.198  23.856  0.00  0.00    +0.000 C 
ATOM      7  C   UNL     1      -1.365  12.155  22.701  0.00  0.00    +0.000 C 
ATOM      8  C   UNL     1      -0.512  11.394  21.766  0.00  0.00    +0.000 A 
ATOM      9  C   UNL     1      -0.187  10.047  21.963  0.00  0.00    +0.000 A 
ATOM     10  C   UNL     1       0.445   9.362  20.943  0.00  0.00    +0.000 A 
ATOM     11  C   UNL     1       0.737  10.043  19.759  0.00  0.00    +0.000 A 
ATOM     12 BR   UNL     1       1.458   9.043  18.318  0.00  0.00    +0.000 Br
ATOM     13  C   UNL     1       0.447  11.421  19.602  0.00  0.00    +0.000 A 
ATOM     14  C   UNL     1      -0.150  12.143  20.643  0.00  0.00    +0.000 A 
ATOM     15  C   UNL     1      -0.799  13.554  20.654  0.00  0.00    +0.000 C 
ATOM     16  N   UNL     1      -0.297  14.668  21.441  0.00  0.00    +0.000 N 
ATOM     17  C   UNL     1      -0.780  15.817  20.739  0.00  0.00    +0.000 C 
ATOM     18  S   UNL     1      -2.312  16.522  20.478  0.00  0.00    +0.000 S 
ATOM     19  N   UNL     1       0.026  15.836  19.693  0.00  0.00    +0.000 N 
ATOM     20  C   UNL     1      -0.146  14.531  19.294  0.00  0.00    +0.000 C 
ATOM     21  O   UNL     1       0.118  14.106  18.165  0.00  0.00    +0.000 OA
ATOM     22  H   UNL     1       0.710  14.650  21.533  0.00  0.00    +0.000 HD
ENDROOT
BRANCH  19  23
ATOM     23  C   UNL     1       0.630  17.165  19.444  0.00  0.00    +0.000 C 
ATOM     24  C   UNL     1       2.144  17.108  19.231  0.00  0.00    +0.000 C 
ATOM     25  C   UNL     1       2.490  17.129  17.763  0.00  0.00    +0.000 C 
ATOM     26  O   UNL     1       1.833  18.219  17.121  0.00  0.00    +0.000 OA
ATOM     27  C   UNL     1       0.411  18.089  17.146  0.00  0.00    +0.000 C 
ATOM     28  C   UNL     1      -0.102  18.149  18.563  0.00  0.00    +0.000 C 
ENDBRANCH  19  23
BRANCH   1  30
ATOM     29  C   UNL     1      -5.561  16.145  22.876  0.00  0.00    +0.000 C 
ATOM     30  O   UNL     1      -4.971  15.042  22.207  0.00  0.00    +0.000 OA
ENDBRANCH   1  30
TORSDOF 2
ENDMDL
MODEL 7
REMARK VINA RESULT:      -6.0      2.125      6.033
REMARK  Name = 
REMARK  3 active torsions:
REMARK  status: ('A' for Active; 'I' for Inactive)
REMARK    1  A    between atoms: C_1  and  O_2
REMARK    2  A    between atoms: O_2  and  C_3
REMARK    3  A    between atoms: N_21  and  C_22
REMARK                            x       y       z     vdW  Elec       q    Type
REMARK                         _______ _______ _______ _____ _____    ______ ____
ROOT
ATOM      1  C   UNL     1      -3.524  13.994  21.618  0.00  0.00    +0.000 C 
ATOM      2  C   UNL     1      -3.432  12.565  21.077  0.00  0.00    +0.000 C 
ATOM      3  C   UNL     1      -2.094  12.265  20.366  0.00  0.00    +0.000 C 
ATOM      4  C   UNL     1      -0.852  12.586  21.227  0.00  0.00    +0.000 C 
ATOM      5  C   UNL     1      -1.081  13.916  22.110  0.00  0.00    +0.000 C 
ATOM      6  C   UNL     1      -2.457  14.164  22.690  0.00  0.00    +0.000 C 
ATOM      7  C   UNL     1      -0.733  11.545  22.404  0.00  0.00    +0.000 C 
ATOM      8  C   UNL     1       0.089  10.460  21.834  0.00  0.00    +0.000 A 
ATOM      9  C   UNL     1       0.014   9.136  22.283  0.00  0.00    +0.000 A 
ATOM     10  C   UNL     1       0.666   8.154  21.563  0.00  0.00    +0.000 A 
ATOM     11  C   UNL     1       1.377   8.522  20.418  0.00  0.00    +0.000 A 
ATOM     12 BR   UNL     1       2.129   7.139  19.361  0.00  0.00    +0.000 Br
ATOM     13  C   UNL     1       1.484   9.875  20.013  0.00  0.00    +0.000 A 
ATOM     14  C   UNL     1       0.870  10.889  20.757  0.00  0.00    +0.000 A 
ATOM     15  C   UNL     1       0.610  12.382  20.412  0.00  0.00    +0.000 C 
ATOM     16  N   UNL     1       1.185  13.493  21.151  0.00  0.00    +0.000 N 
ATOM     17  C   UNL     1       1.176  14.565  20.203  0.00  0.00    +0.000 C 
ATOM     18  S   UNL     1      -0.033  15.513  19.459  0.00  0.00    +0.000 S 
ATOM     19  N   UNL     1       2.174  14.216  19.411  0.00  0.00    +0.000 N 
ATOM     20  C   UNL     1       1.774  12.925  19.156  0.00  0.00    +0.000 C 
ATOM     21  O   UNL     1       2.170  12.249  18.202  0.00  0.00    +0.000 OA
ATOM     22  H   UNL     1       2.109  13.282  21.505  0.00  0.00    +0.000 HD
ENDROOT
BRANCH  19  23
ATOM     23  C   UNL     1       3.132  15.316  19.158  0.00  0.00    +0.000 C 
ATOM     24  C   UNL     1       3.976  15.673  20.383  0.00  0.00    +0.000 C 
ATOM     25  C   UNL     1       5.335  15.024  20.316  0.00  0.00    +0.000 C 
ATOM     26  O   UNL     1       5.950  15.300  19.061  0.00  0.00    +0.000 OA
ATOM     27  C   UNL     1       5.233  14.729  17.965  0.00  0.00    +0.000 C 
ATOM     28  C   UNL     1       3.868  15.358  17.840  0.00  0.00    +0.000 C 
ENDBRANCH  19  23
BRANCH   1  30
ATOM     29  C   UNL     1      -3.772  16.276  20.928  0.00  0.00    +0.000 C 
ATOM     30  O   UNL     1      -3.295  14.979  20.608  0.00  0.00    +0.000 OA
ENDBRANCH   1  30
TORSDOF 2
ENDMDL
MODEL 8
REMARK VINA RESULT:      -5.9      3.097      6.374
REMARK  Name = 
REMARK  3 active torsions:
REMARK  status: ('A' for Active; 'I' for Inactive)
REMARK    1  A    between atoms: C_1  and  O_2
REMARK    2  A    between atoms: O_2  and  C_3
REMARK    3  A    between atoms: N_21  and  C_22
REMARK                            x       y       z     vdW  Elec       q    Type
REMARK                         _______ _______ _______ _____ _____    ______ ____
ROOT
ATOM      1  C   UNL     1      -1.550  17.284  24.306  0.00  0.00    +0.000 C 
ATOM      2  C   UNL     1      -2.881  17.197  23.556  0.00  0.00    +0.000 C 
ATOM      3  C   UNL     1      -2.926  16.054  22.519  0.00  0.00    +0.000 C 
ATOM      4  C   UNL     1      -2.559  14.673  23.107  0.00  0.00    +0.000 C 
ATOM      5  C   UNL     1      -1.383  14.797  24.204  0.00  0.00    +0.000 C 
ATOM      6  C   UNL     1      -1.378  16.006  25.116  0.00  0.00    +0.000 C 
ATOM      7  C   UNL     1      -3.711  14.173  24.059  0.00  0.00    +0.000 C 
ATOM      8  C   UNL     1      -4.610  13.421  23.162  0.00  0.00    +0.000 A 
ATOM      9  C   UNL     1      -5.977  13.262  23.419  0.00  0.00    +0.000 A 
ATOM     10  C   UNL     1      -6.778  12.720  22.432  0.00  0.00    +0.000 A 
ATOM     11  C   UNL     1      -6.190  12.349  21.220  0.00  0.00    +0.000 A 
ATOM     12 BR   UNL     1      -7.332  11.757  19.827  0.00  0.00    +0.000 Br
ATOM     13  C   UNL     1      -4.795  12.469  21.003  0.00  0.00    +0.000 A 
ATOM     14  C   UNL     1      -3.961  12.971  22.009  0.00  0.00    +0.000 A 
ATOM     15  C   UNL     1      -2.482  13.444  21.955  0.00  0.00    +0.000 C 
ATOM     16  N   UNL     1      -1.404  12.808  22.696  0.00  0.00    +0.000 N 
ATOM     17  C   UNL     1      -0.236  13.148  21.943  0.00  0.00    +0.000 C 
ATOM     18  S   UNL     1       0.637  14.584  21.644  0.00  0.00    +0.000 S 
ATOM     19  N   UNL     1      -0.362  12.347  20.899  0.00  0.00    +0.000 N 
ATOM     20  C   UNL     1      -1.653  12.678  20.557  0.00  0.00    +0.000 C 
ATOM     21  O   UNL     1      -2.155  12.469  19.449  0.00  0.00    +0.000 OA
ATOM     22  H   UNL     1      -1.540  11.811  22.792  0.00  0.00    +0.000 HD
ENDROOT
BRANCH  19  23
ATOM     23  C   UNL     1       0.871  11.586  20.595  0.00  0.00    +0.000 C 
ATOM     24  C   UNL     1       0.985  10.283  21.388  0.00  0.00    +0.000 C 
ATOM     25  C   UNL     1       0.541   9.102  20.562  0.00  0.00    +0.000 C 
ATOM     26  O   UNL     1       1.213   9.101  19.306  0.00  0.00    +0.000 OA
ATOM     27  C   UNL     1       0.875  10.236  18.506  0.00  0.00    +0.000 C 
ATOM     28  C   UNL     1       1.350  11.508  19.164  0.00  0.00    +0.000 C 
ENDBRANCH  19  23
BRANCH   1  30
ATOM     29  C   UNL     1      -0.358  18.628  22.720  0.00  0.00    +0.000 C 
ATOM     30  O   UNL     1      -0.430  17.401  23.426  0.00  0.00    +0.000 OA
ENDBRANCH   1  30
TORSDOF 2
ENDMDL
MODEL 9
REMARK VINA RESULT:      -5.8      1.422      1.554
REMARK  Name = 
REMARK  3 active torsions:
REMARK  status: ('A' for Active; 'I' for Inactive)
REMARK    1  A    between atoms: C_1  and  O_2
REMARK    2  A    between atoms: O_2  and  C_3
REMARK    3  A    between atoms: N_21  and  C_22
REMARK                            x       y       z     vdW  Elec       q    Type
REMARK                         _______ _______ _______ _____ _____    ______ ____
ROOT
ATOM      1  C   UNL     1       1.384  16.941  19.555  0.00  0.00    +0.000 C 
ATOM      2  C   UNL     1       2.154  15.680  19.952  0.00  0.00    +0.000 C 
ATOM      3  C   UNL     1       1.277  14.624  20.660  0.00  0.00    +0.000 C 
ATOM      4  C   UNL     1       0.009  14.241  19.864  0.00  0.00    +0.000 C 
ATOM      5  C   UNL     1      -0.619  15.522  19.112  0.00  0.00    +0.000 C 
ATOM      6  C   UNL     1       0.330  16.549  18.529  0.00  0.00    +0.000 C 
ATOM      7  C   UNL     1       0.410  13.401  18.591  0.00  0.00    +0.000 C 
ATOM      8  C   UNL     1       0.388  12.005  19.069  0.00  0.00    +0.000 A 
ATOM      9  C   UNL     1       1.162  10.993  18.487  0.00  0.00    +0.000 A 
ATOM     10  C   UNL     1       1.234   9.768  19.120  0.00  0.00    +0.000 A 
ATOM     11  C   UNL     1       0.528   9.586  20.312  0.00  0.00    +0.000 A 
ATOM     12 BR   UNL     1       0.769   7.951  21.243  0.00  0.00    +0.000 Br
ATOM     13  C   UNL     1      -0.293  10.606  20.853  0.00  0.00    +0.000 A 
ATOM     14  C   UNL     1      -0.415  11.838  20.200  0.00  0.00    +0.000 A 
ATOM     15  C   UNL     1      -1.016  13.186  20.686  0.00  0.00    +0.000 C 
ATOM     16  N   UNL     1      -2.172  13.822  20.075  0.00  0.00    +0.000 N 
ATOM     17  C   UNL     1      -2.697  14.640  21.125  0.00  0.00    +0.000 C 
ATOM     18  S   UNL     1      -2.181  16.052  21.933  0.00  0.00    +0.000 S 
ATOM     19  N   UNL     1      -3.262  13.731  21.901  0.00  0.00    +0.000 N 
ATOM     20  C   UNL     1      -2.186  12.882  22.016  0.00  0.00    +0.000 C 
ATOM     21  O   UNL     1      -2.058  12.037  22.907  0.00  0.00    +0.000 OA
ATOM     22  H   UNL     1      -2.839  13.148  19.723  0.00  0.00    +0.000 HD
ENDROOT
BRANCH  19  23
ATOM     23  C   UNL     1      -4.651  14.071  22.284  0.00  0.00    +0.000 C 
ATOM     24  C   UNL     1      -5.691  13.581  21.276  0.00  0.00    +0.000 C 
ATOM     25  C   UNL     1      -6.318  12.285  21.727  0.00  0.00    +0.000 C 
ATOM     26  O   UNL     1      -6.790  12.409  23.066  0.00  0.00    +0.000 OA
ATOM     27  C   UNL     1      -5.731  12.631  23.999  0.00  0.00    +0.000 C 
ATOM     28  C   UNL     1      -5.060  13.955  23.733  0.00  0.00    +0.000 C 
ENDBRANCH  19  23
BRANCH   1  30
ATOM     29  C   UNL     1       1.442  18.592  21.292  0.00  0.00    +0.000 C 
ATOM     30  O   UNL     1       0.716  17.549  20.662  0.00  0.00    +0.000 OA
ENDBRANCH   1  30
TORSDOF 2
ENDMDL
