MODEL 1
REMARK VINA RESULT:      -6.9      0.000      0.000
REMARK  Name = 
REMARK  4 active torsions:
REMARK  status: ('A' for Active; 'I' for Inactive)
REMARK    1  A    between atoms: N_1  and  C_2
REMARK    2  A    between atoms: N_10  and  C_11
REMARK    3  A    between atoms: C_14  and  O_15
REMARK    4  A    between atoms: C_16  and  O_17
REMARK                            x       y       z     vdW  Elec       q    Type
REMARK                         _______ _______ _______ _____ _____    ______ ____
ROOT
ATOM      1  C   UNL     1       6.752   6.574  16.799  0.00  0.00    +0.000 A 
ATOM      2  N   UNL     1       7.485   5.627  16.180  0.00  0.00    +0.000 NA
ATOM      3  C   UNL     1       6.936   4.410  15.981  0.00  0.00    +0.000 A 
ATOM      4  N   UNL     1       5.706   3.989  16.324  0.00  0.00    +0.000 NA
ATOM      5  C   UNL     1       5.005   4.968  16.925  0.00  0.00    +0.000 A 
ATOM      6  C   UNL     1       5.443   6.255  17.178  0.00  0.00    +0.000 A 
ATOM      7  C   UNL     1       4.347   6.884  17.796  0.00  0.00    +0.000 A 
ATOM      8  N   UNL     1       3.294   6.069  17.946  0.00  0.00    +0.000 NA
ATOM      9  N   UNL     1       3.729   4.895  17.426  0.00  0.00    +0.000 N 
ENDROOT
BRANCH   9  10
ATOM     10  C   UNL     1       2.885   3.714  17.468  0.00  0.00    +0.000 C 
ATOM     11  C   UNL     1       1.394   4.037  17.688  0.00  0.00    +0.000 C 
ATOM     12  C   UNL     1       1.043   3.604  19.114  0.00  0.00    +0.000 C 
ATOM     13  C   UNL     1       2.358   3.222  19.780  0.00  0.00    +0.000 C 
ATOM     14  C   UNL     1       3.255   2.772  18.621  0.00  0.00    +0.000 C 
BRANCH  13  15
ATOM     15  O   UNL     1       2.146   2.177  20.723  0.00  0.00    +0.000 OA
ATOM     16  H   UNL     1       2.109   2.595  21.605  0.00  0.00    +0.000 HD
ENDBRANCH  13  15
BRANCH  14  17
ATOM     17  O   UNL     1       2.955   1.401  18.295  0.00  0.00    +0.000 OA
ATOM     18  H   UNL     1       3.658   1.055  17.717  0.00  0.00    +0.000 HD
ENDBRANCH  14  17
ENDBRANCH   9  10
BRANCH   1  19
ATOM     19  N   UNL     1       7.353   7.796  17.029  0.00  0.00    +0.000 N 
ATOM     20  H   UNL     1       8.302   7.834  16.679  0.00  0.00    +0.000 HD
ATOM     21  H   UNL     1       6.790   8.628  16.944  0.00  0.00    +0.000 HD
ENDBRANCH   1  19
TORSDOF 4
ENDMDL
MODEL 2
REMARK VINA RESULT:      -6.9      1.886      2.499
REMARK  Name = 
REMARK  4 active torsions:
REMARK  status: ('A' for Active; 'I' for Inactive)
REMARK    1  A    between atoms: N_1  and  C_2
REMARK    2  A    between atoms: N_10  and  C_11
REMARK    3  A    between atoms: C_14  and  O_15
REMARK    4  A    between atoms: C_16  and  O_17
REMARK                            x       y       z     vdW  Elec       q    Type
REMARK                         _______ _______ _______ _____ _____    ______ ____
ROOT
ATOM      1  C   UNL     1       6.993   5.690  17.223  0.00  0.00    +0.000 A 
ATOM      2  N   UNL     1       7.630   6.039  18.359  0.00  0.00    +0.000 NA
ATOM      3  C   UNL     1       7.201   5.518  19.528  0.00  0.00    +0.000 A 
ATOM      4  N   UNL     1       6.185   4.660  19.731  0.00  0.00    +0.000 NA
ATOM      5  C   UNL     1       5.588   4.328  18.571  0.00  0.00    +0.000 A 
ATOM      6  C   UNL     1       5.935   4.779  17.310  0.00  0.00    +0.000 A 
ATOM      7  C   UNL     1       5.032   4.132  16.446  0.00  0.00    +0.000 A 
ATOM      8  N   UNL     1       4.164   3.344  17.093  0.00  0.00    +0.000 NA
ATOM      9  N   UNL     1       4.509   3.498  18.395  0.00  0.00    +0.000 N 
ENDROOT
BRANCH   9  10
ATOM     10  C   UNL     1       3.741   2.847  19.442  0.00  0.00    +0.000 C 
ATOM     11  C   UNL     1       2.781   1.765  18.911  0.00  0.00    +0.000 C 
ATOM     12  C   UNL     1       1.360   2.318  19.041  0.00  0.00    +0.000 C 
ATOM     13  C   UNL     1       1.505   3.777  19.453  0.00  0.00    +0.000 C 
ATOM     14  C   UNL     1       2.842   3.829  20.203  0.00  0.00    +0.000 C 
BRANCH  13  15
ATOM     15  O   UNL     1       0.416   4.165  20.283  0.00  0.00    +0.000 OA
ATOM     16  H   UNL     1      -0.199   3.407  20.314  0.00  0.00    +0.000 HD
ENDBRANCH  13  15
BRANCH  14  17
ATOM     17  O   UNL     1       2.636   3.406  21.565  0.00  0.00    +0.000 OA
ATOM     18  H   UNL     1       2.590   2.433  21.588  0.00  0.00    +0.000 HD
ENDBRANCH  14  17
ENDBRANCH   9  10
BRANCH   1  19
ATOM     19  N   UNL     1       7.424   6.272  16.046  0.00  0.00    +0.000 N 
ATOM     20  H   UNL     1       8.280   6.799  16.166  0.00  0.00    +0.000 HD
ATOM     21  H   UNL     1       7.308   5.754  15.189  0.00  0.00    +0.000 HD
ENDBRANCH   1  19
TORSDOF 4
ENDMDL
MODEL 3
REMARK VINA RESULT:      -6.8      1.642      2.029
REMARK  Name = 
REMARK  4 active torsions:
REMARK  status: ('A' for Active; 'I' for Inactive)
REMARK    1  A    between atoms: N_1  and  C_2
REMARK    2  A    between atoms: N_10  and  C_11
REMARK    3  A    between atoms: C_14  and  O_15
REMARK    4  A    between atoms: C_16  and  O_17
REMARK                            x       y       z     vdW  Elec       q    Type
REMARK                         _______ _______ _______ _____ _____    ______ ____
ROOT
ATOM      1  C   UNL     1       7.321   7.026  17.808  0.00  0.00    +0.000 A 
ATOM      2  N   UNL     1       8.088   6.618  18.838  0.00  0.00    +0.000 NA
ATOM      3  C   UNL     1       7.697   5.540  19.550  0.00  0.00    +0.000 A 
ATOM      4  N   UNL     1       6.603   4.779  19.369  0.00  0.00    +0.000 NA
ATOM      5  C   UNL     1       5.875   5.212  18.323  0.00  0.00    +0.000 A 
ATOM      6  C   UNL     1       6.169   6.290  17.509  0.00  0.00    +0.000 A 
ATOM      7  C   UNL     1       5.124   6.313  16.566  0.00  0.00    +0.000 A 
ATOM      8  N   UNL     1       4.222   5.343  16.764  0.00  0.00    +0.000 NA
ATOM      9  N   UNL     1       4.691   4.696  17.859  0.00  0.00    +0.000 N 
ENDROOT
BRANCH   9  10
ATOM     10  C   UNL     1       3.938   3.600  18.446  0.00  0.00    +0.000 C 
ATOM     11  C   UNL     1       2.777   3.114  17.557  0.00  0.00    +0.000 C 
ATOM     12  C   UNL     1       1.476   3.572  18.221  0.00  0.00    +0.000 C 
ATOM     13  C   UNL     1       1.882   4.484  19.371  0.00  0.00    +0.000 C 
ATOM     14  C   UNL     1       3.277   3.992  19.773  0.00  0.00    +0.000 C 
BRANCH  13  15
ATOM     15  O   UNL     1       0.950   4.370  20.441  0.00  0.00    +0.000 OA
ATOM     16  H   UNL     1       0.897   3.422  20.670  0.00  0.00    +0.000 HD
ENDBRANCH  13  15
BRANCH  14  17
ATOM     17  O   UNL     1       3.143   2.854  20.648  0.00  0.00    +0.000 OA
ATOM     18  H   UNL     1       3.179   2.041  20.113  0.00  0.00    +0.000 HD
ENDBRANCH  14  17
ENDBRANCH   9  10
BRANCH   1  19
ATOM     19  N   UNL     1       7.721   8.157  17.124  0.00  0.00    +0.000 N 
ATOM     20  H   UNL     1       8.558   8.571  17.515  0.00  0.00    +0.000 HD
ATOM     21  H   UNL     1       7.618   8.169  16.121  0.00  0.00    +0.000 HD
ENDBRANCH   1  19
TORSDOF 4
ENDMDL
MODEL 4
REMARK VINA RESULT:      -6.7      2.954      5.529
REMARK  Name = 
REMARK  4 active torsions:
REMARK  status: ('A' for Active; 'I' for Inactive)
REMARK    1  A    between atoms: N_1  and  C_2
REMARK    2  A    between atoms: N_10  and  C_11
REMARK    3  A    between atoms: C_14  and  O_15
REMARK    4  A    between atoms: C_16  and  O_17
REMARK                            x       y       z     vdW  Elec       q    Type
REMARK                         _______ _______ _______ _____ _____    ______ ____
ROOT
ATOM      1  C   UNL     1       1.203   3.958  19.767  0.00  0.00    +0.000 A 
ATOM      2  N   UNL     1       1.212   5.008  20.613  0.00  0.00    +0.000 NA
ATOM      3  C   UNL     1       2.082   6.014  20.388  0.00  0.00    +0.000 A 
ATOM      4  N   UNL     1       2.980   6.127  19.394  0.00  0.00    +0.000 NA
ATOM      5  C   UNL     1       2.928   5.067  18.567  0.00  0.00    +0.000 A 
ATOM      6  C   UNL     1       2.080   3.980  18.677  0.00  0.00    +0.000 A 
ATOM      7  C   UNL     1       2.402   3.170  17.572  0.00  0.00    +0.000 A 
ATOM      8  N   UNL     1       3.386   3.681  16.820  0.00  0.00    +0.000 NA
ATOM      9  N   UNL     1       3.708   4.830  17.461  0.00  0.00    +0.000 N 
ENDROOT
BRANCH   9  10
ATOM     10  C   UNL     1       4.806   5.655  16.988  0.00  0.00    +0.000 C 
ATOM     11  C   UNL     1       5.208   5.356  15.531  0.00  0.00    +0.000 C 
ATOM     12  C   UNL     1       6.559   4.636  15.574  0.00  0.00    +0.000 C 
ATOM     13  C   UNL     1       6.840   4.342  17.042  0.00  0.00    +0.000 C 
ATOM     14  C   UNL     1       6.088   5.443  17.800  0.00  0.00    +0.000 C 
BRANCH  13  15
ATOM     15  O   UNL     1       8.240   4.385  17.293  0.00  0.00    +0.000 OA
ATOM     16  H   UNL     1       8.392   3.899  18.127  0.00  0.00    +0.000 HD
ENDBRANCH  13  15
BRANCH  14  17
ATOM     17  O   UNL     1       6.897   6.635  17.825  0.00  0.00    +0.000 OA
ATOM     18  H   UNL     1       7.212   6.820  16.923  0.00  0.00    +0.000 HD
ENDBRANCH  14  17
ENDBRANCH   9  10
BRANCH   1  19
ATOM     19  N   UNL     1       0.333   2.921  20.046  0.00  0.00    +0.000 N 
ATOM     20  H   UNL     1      -0.575   3.249  20.349  0.00  0.00    +0.000 HD
ATOM     21  H   UNL     1       0.364   2.103  19.457  0.00  0.00    +0.000 HD
ENDBRANCH   1  19
TORSDOF 4
ENDMDL
MODEL 5
REMARK VINA RESULT:      -6.7      3.310      5.563
REMARK  Name = 
REMARK  4 active torsions:
REMARK  status: ('A' for Active; 'I' for Inactive)
REMARK    1  A    between atoms: N_1  and  C_2
REMARK    2  A    between atoms: N_10  and  C_11
REMARK    3  A    between atoms: C_14  and  O_15
REMARK    4  A    between atoms: C_16  and  O_17
REMARK                            x       y       z     vdW  Elec       q    Type
REMARK                         _______ _______ _______ _____ _____    ______ ____
ROOT
ATOM      1  C   UNL     1       2.085   3.544  19.903  0.00  0.00    +0.000 A 
ATOM      2  N   UNL     1       2.694   2.570  20.608  0.00  0.00    +0.000 NA
ATOM      3  C   UNL     1       4.016   2.369  20.428  0.00  0.00    +0.000 A 
ATOM      4  N   UNL     1       4.852   3.033  19.610  0.00  0.00    +0.000 NA
ATOM      5  C   UNL     1       4.207   4.004  18.938  0.00  0.00    +0.000 A 
ATOM      6  C   UNL     1       2.865   4.321  19.038  0.00  0.00    +0.000 A 
ATOM      7  C   UNL     1       2.693   5.406  18.159  0.00  0.00    +0.000 A 
ATOM      8  N   UNL     1       3.824   5.751  17.530  0.00  0.00    +0.000 NA
ATOM      9  N   UNL     1       4.732   4.865  18.005  0.00  0.00    +0.000 N 
ENDROOT
BRANCH   9  10
ATOM     10  C   UNL     1       6.094   4.864  17.500  0.00  0.00    +0.000 C 
ATOM     11  C   UNL     1       7.157   4.892  18.615  0.00  0.00    +0.000 C 
ATOM     12  C   UNL     1       7.791   6.286  18.601  0.00  0.00    +0.000 C 
ATOM     13  C   UNL     1       6.968   7.118  17.627  0.00  0.00    +0.000 C 
ATOM     14  C   UNL     1       6.398   6.094  16.638  0.00  0.00    +0.000 C 
BRANCH  13  15
ATOM     15  O   UNL     1       7.796   8.078  16.979  0.00  0.00    +0.000 OA
ATOM     16  H   UNL     1       8.716   7.762  17.067  0.00  0.00    +0.000 HD
ENDBRANCH  13  15
BRANCH  14  17
ATOM     17  O   UNL     1       7.392   5.801  15.636  0.00  0.00    +0.000 OA
ATOM     18  H   UNL     1       6.962   5.344  14.891  0.00  0.00    +0.000 HD
ENDBRANCH  14  17
ENDBRANCH   9  10
BRANCH   1  19
ATOM     19  N   UNL     1       0.723   3.699  20.074  0.00  0.00    +0.000 N 
ATOM     20  H   UNL     1       0.305   2.924  20.572  0.00  0.00    +0.000 HD
ATOM     21  H   UNL     1       0.370   4.624  20.265  0.00  0.00    +0.000 HD
ENDBRANCH   1  19
TORSDOF 4
ENDMDL
MODEL 6
REMARK VINA RESULT:      -6.7      3.033      5.483
REMARK  Name = 
REMARK  4 active torsions:
REMARK  status: ('A' for Active; 'I' for Inactive)
REMARK    1  A    between atoms: N_1  and  C_2
REMARK    2  A    between atoms: N_10  and  C_11
REMARK    3  A    between atoms: C_14  and  O_15
REMARK    4  A    between atoms: C_16  and  O_17
REMARK                            x       y       z     vdW  Elec       q    Type
REMARK                         _______ _______ _______ _____ _____    ______ ____
ROOT
ATOM      1  C   UNL     1       2.160   3.606  19.935  0.00  0.00    +0.000 A 
ATOM      2  N   UNL     1       2.616   2.409  20.357  0.00  0.00    +0.000 NA
ATOM      3  C   UNL     1       3.939   2.156  20.275  0.00  0.00    +0.000 A 
ATOM      4  N   UNL     1       4.912   2.963  19.816  0.00  0.00    +0.000 NA
ATOM      5  C   UNL     1       4.415   4.149  19.420  0.00  0.00    +0.000 A 
ATOM      6  C   UNL     1       3.089   4.539  19.461  0.00  0.00    +0.000 A 
ATOM      7  C   UNL     1       3.094   5.855  18.963  0.00  0.00    +0.000 A 
ATOM      8  N   UNL     1       4.316   6.275  18.612  0.00  0.00    +0.000 NA
ATOM      9  N   UNL     1       5.105   5.206  18.880  0.00  0.00    +0.000 N 
ENDROOT
BRANCH   9  10
ATOM     10  C   UNL     1       6.523   5.238  18.562  0.00  0.00    +0.000 C 
ATOM     11  C   UNL     1       7.082   6.667  18.420  0.00  0.00    +0.000 C 
ATOM     12  C   UNL     1       7.356   6.900  16.932  0.00  0.00    +0.000 C 
ATOM     13  C   UNL     1       6.775   5.699  16.198  0.00  0.00    +0.000 C 
ATOM     14  C   UNL     1       6.836   4.560  17.223  0.00  0.00    +0.000 C 
BRANCH  13  15
ATOM     15  O   UNL     1       7.547   5.411  15.038  0.00  0.00    +0.000 OA
ATOM     16  H   UNL     1       8.442   5.767  15.199  0.00  0.00    +0.000 HD
ENDBRANCH  13  15
BRANCH  14  17
ATOM     17  O   UNL     1       8.161   3.993  17.220  0.00  0.00    +0.000 OA
ATOM     18  H   UNL     1       8.287   3.495  16.393  0.00  0.00    +0.000 HD
ENDBRANCH  14  17
ENDBRANCH   9  10
BRANCH   1  19
ATOM     19  N   UNL     1       0.796   3.823  19.989  0.00  0.00    +0.000 N 
ATOM     20  H   UNL     1       0.515   4.649  19.476  0.00  0.00    +0.000 HD
ATOM     21  H   UNL     1       0.185   3.021  19.958  0.00  0.00    +0.000 HD
ENDBRANCH   1  19
TORSDOF 4
ENDMDL
MODEL 7
REMARK VINA RESULT:      -6.7      3.097      5.646
REMARK  Name = 
REMARK  4 active torsions:
REMARK  status: ('A' for Active; 'I' for Inactive)
REMARK    1  A    between atoms: N_1  and  C_2
REMARK    2  A    between atoms: N_10  and  C_11
REMARK    3  A    between atoms: C_14  and  O_15
REMARK    4  A    between atoms: C_16  and  O_17
REMARK                            x       y       z     vdW  Elec       q    Type
REMARK                         _______ _______ _______ _____ _____    ______ ____
ROOT
ATOM      1  C   UNL     1       2.190   2.902  20.479  0.00  0.00    +0.000 A 
ATOM      2  N   UNL     1       1.009   2.892  19.828  0.00  0.00    +0.000 NA
ATOM      3  C   UNL     1       0.975   3.295  18.541  0.00  0.00    +0.000 A 
ATOM      4  N   UNL     1       1.997   3.722  17.778  0.00  0.00    +0.000 NA
ATOM      5  C   UNL     1       3.156   3.703  18.461  0.00  0.00    +0.000 A 
ATOM      6  C   UNL     1       3.330   3.303  19.773  0.00  0.00    +0.000 A 
ATOM      7  C   UNL     1       4.711   3.449  20.005  0.00  0.00    +0.000 A 
ATOM      8  N   UNL     1       5.372   3.919  18.939  0.00  0.00    +0.000 NA
ATOM      9  N   UNL     1       4.396   4.088  18.013  0.00  0.00    +0.000 N 
ENDROOT
BRANCH   9  10
ATOM     10  C   UNL     1       4.704   4.663  16.715  0.00  0.00    +0.000 C 
ATOM     11  C   UNL     1       5.670   3.799  15.880  0.00  0.00    +0.000 C 
ATOM     12  C   UNL     1       7.018   4.526  15.853  0.00  0.00    +0.000 C 
ATOM     13  C   UNL     1       6.893   5.692  16.825  0.00  0.00    +0.000 C 
ATOM     14  C   UNL     1       5.397   6.026  16.829  0.00  0.00    +0.000 C 
BRANCH  13  15
ATOM     15  O   UNL     1       7.680   6.791  16.378  0.00  0.00    +0.000 OA
ATOM     16  H   UNL     1       8.290   7.016  17.107  0.00  0.00    +0.000 HD
ENDBRANCH  13  15
BRANCH  14  17
ATOM     17  O   UNL     1       5.096   6.864  15.696  0.00  0.00    +0.000 OA
ATOM     18  H   UNL     1       5.401   6.418  14.886  0.00  0.00    +0.000 HD
ENDBRANCH  14  17
ENDBRANCH   9  10
BRANCH   1  19
ATOM     19  N   UNL     1       2.189   2.527  21.808  0.00  0.00    +0.000 N 
ATOM     20  H   UNL     1       1.784   3.232  22.409  0.00  0.00    +0.000 HD
ATOM     21  H   UNL     1       2.006   1.560  22.030  0.00  0.00    +0.000 HD
ENDBRANCH   1  19
TORSDOF 4
ENDMDL
MODEL 8
REMARK VINA RESULT:      -6.6      2.948      5.635
REMARK  Name = 
REMARK  4 active torsions:
REMARK  status: ('A' for Active; 'I' for Inactive)
REMARK    1  A    between atoms: N_1  and  C_2
REMARK    2  A    between atoms: N_10  and  C_11
REMARK    3  A    between atoms: C_14  and  O_15
REMARK    4  A    between atoms: C_16  and  O_17
REMARK                            x       y       z     vdW  Elec       q    Type
REMARK                         _______ _______ _______ _____ _____    ______ ____
ROOT
ATOM      1  C   UNL     1       1.210   2.779  19.206  0.00  0.00    +0.000 A 
ATOM      2  N   UNL     1       1.103   3.052  20.523  0.00  0.00    +0.000 NA
ATOM      3  C   UNL     1       1.992   3.899  21.082  0.00  0.00    +0.000 A 
ATOM      4  N   UNL     1       3.014   4.540  20.489  0.00  0.00    +0.000 NA
ATOM      5  C   UNL     1       3.075   4.251  19.176  0.00  0.00    +0.000 A 
ATOM      6  C   UNL     1       2.223   3.414  18.479  0.00  0.00    +0.000 A 
ATOM      7  C   UNL     1       2.690   3.462  17.152  0.00  0.00    +0.000 A 
ATOM      8  N   UNL     1       3.764   4.250  17.006  0.00  0.00    +0.000 NA
ATOM      9  N   UNL     1       3.994   4.704  18.262  0.00  0.00    +0.000 N 
ENDROOT
BRANCH   9  10
ATOM     10  C   UNL     1       5.143   5.549  18.540  0.00  0.00    +0.000 C 
ATOM     11  C   UNL     1       5.607   6.367  17.319  0.00  0.00    +0.000 C 
ATOM     12  C   UNL     1       6.928   5.756  16.843  0.00  0.00    +0.000 C 
ATOM     13  C   UNL     1       7.124   4.480  17.649  0.00  0.00    +0.000 C 
ATOM     14  C   UNL     1       6.375   4.740  18.961  0.00  0.00    +0.000 C 
BRANCH  13  15
ATOM     15  O   UNL     1       8.511   4.244  17.868  0.00  0.00    +0.000 OA
ATOM     16  H   UNL     1       8.889   3.969  17.010  0.00  0.00    +0.000 HD
ENDBRANCH  13  15
BRANCH  14  17
ATOM     17  O   UNL     1       7.222   5.498  19.847  0.00  0.00    +0.000 OA
ATOM     18  H   UNL     1       7.068   5.199  20.761  0.00  0.00    +0.000 HD
ENDBRANCH  14  17
ENDBRANCH   9  10
BRANCH   1  19
ATOM     19  N   UNL     1       0.314   1.875  18.668  0.00  0.00    +0.000 N 
ATOM     20  H   UNL     1       0.763   1.195  18.068  0.00  0.00    +0.000 HD
ATOM     21  H   UNL     1      -0.448   1.558  19.247  0.00  0.00    +0.000 HD
ENDBRANCH   1  19
TORSDOF 4
ENDMDL
MODEL 9
REMARK VINA RESULT:      -6.6      2.871      5.168
REMARK  Name = 
REMARK  4 active torsions:
REMARK  status: ('A' for Active; 'I' for Inactive)
REMARK    1  A    between atoms: N_1  and  C_2
REMARK    2  A    between atoms: N_10  and  C_11
REMARK    3  A    between atoms: C_14  and  O_15
REMARK    4  A    between atoms: C_16  and  O_17
REMARK                            x       y       z     vdW  Elec       q    Type
REMARK                         _______ _______ _______ _____ _____    ______ ____
ROOT
ATOM      1  C   UNL     1       2.084   3.321  20.173  0.00  0.00    +0.000 A 
ATOM      2  N   UNL     1       2.914   2.395  20.695  0.00  0.00    +0.000 NA
ATOM      3  C   UNL     1       4.217   2.422  20.345  0.00  0.00    +0.000 A 
ATOM      4  N   UNL     1       4.835   3.279  19.513  0.00  0.00    +0.000 NA
ATOM      5  C   UNL     1       3.974   4.193  19.027  0.00  0.00    +0.000 A 
ATOM      6  C   UNL     1       2.625   4.284  19.313  0.00  0.00    +0.000 A 
ATOM      7  C   UNL     1       2.185   5.403  18.581  0.00  0.00    +0.000 A 
ATOM      8  N   UNL     1       3.163   5.976  17.868  0.00  0.00    +0.000 NA
ATOM      9  N   UNL     1       4.244   5.205  18.139  0.00  0.00    +0.000 N 
ENDROOT
BRANCH   9  10
ATOM     10  C   UNL     1       5.515   5.463  17.485  0.00  0.00    +0.000 C 
ATOM     11  C   UNL     1       5.412   6.480  16.332  0.00  0.00    +0.000 C 
ATOM     12  C   UNL     1       5.581   5.701  15.025  0.00  0.00    +0.000 C 
ATOM     13  C   UNL     1       5.580   4.226  15.404  0.00  0.00    +0.000 C 
ATOM     14  C   UNL     1       6.108   4.203  16.843  0.00  0.00    +0.000 C 
BRANCH  13  15
ATOM     15  O   UNL     1       6.418   3.490  14.519  0.00  0.00    +0.000 OA
ATOM     16  H   UNL     1       6.879   4.144  13.958  0.00  0.00    +0.000 HD
ENDBRANCH  13  15
BRANCH  14  17
ATOM     17  O   UNL     1       7.548   4.254  16.818  0.00  0.00    +0.000 OA
ATOM     18  H   UNL     1       7.828   4.881  16.128  0.00  0.00    +0.000 HD
ENDBRANCH  14  17
ENDBRANCH   9  10
BRANCH   1  19
ATOM     19  N   UNL     1       0.748   3.244  20.514  0.00  0.00    +0.000 N 
ATOM     20  H   UNL     1       0.607   2.893  21.452  0.00  0.00    +0.000 HD
ATOM     21  H   UNL     1       0.131   3.973  20.189  0.00  0.00    +0.000 HD
ENDBRANCH   1  19
TORSDOF 4
ENDMDL
