MODEL 1
REMARK VINA RESULT:      -8.3      0.000      0.000
REMARK  Name = 
REMARK  9 active torsions:
REMARK  status: ('A' for Active; 'I' for Inactive)
REMARK    1  A    between atoms: C_1  and  C_2
REMARK    2  A    between atoms: C_2  and  O_3
REMARK    3  A    between atoms: O_3  and  C_4
REMARK    4  A    between atoms: C_7  and  N_8
REMARK    5  A    between atoms: C_9  and  C_11
REMARK    6  A    between atoms: C_11  and  N_12
REMARK    7  A    between atoms: C_28  and  O_29
REMARK    8  A    between atoms: O_29  and  C_30
REMARK    9  A    between atoms: C_30  and  C_31
REMARK                            x       y       z     vdW  Elec       q    Type
REMARK                         _______ _______ _______ _____ _____    ______ ____
ROOT
ATOM      1  N   UNL     1       2.580   6.547  19.992  0.00  0.00    +0.000 N 
ATOM      2  C   UNL     1       2.057   7.805  19.703  0.00  0.00    +0.000 C 
ATOM      3  O   UNL     1       2.179   8.402  18.633  0.00  0.00    +0.000 OA
ATOM      4  H   UNL     1       2.507   6.232  20.953  0.00  0.00    +0.000 HD
ENDROOT
BRANCH   1   8
ATOM      5  C   UNL     1       4.839   4.138  17.270  0.00  0.00    +0.000 A 
ATOM      6  C   UNL     1       3.459   4.311  17.111  0.00  0.00    +0.000 A 
ATOM      7  C   UNL     1       2.700   5.071  18.010  0.00  0.00    +0.000 A 
ATOM      8  C   UNL     1       3.292   5.703  19.097  0.00  0.00    +0.000 A 
ATOM      9  C   UNL     1       4.659   5.467  19.310  0.00  0.00    +0.000 A 
ATOM     10  C   UNL     1       5.435   4.672  18.427  0.00  0.00    +0.000 A 
BRANCH   5  11
ATOM     11  O   UNL     1       5.599   3.465  16.340  0.00  0.00    +0.000 OA
BRANCH  11  13
ATOM     12  C   UNL     1       6.090   3.824  13.988  0.00  0.00    +0.000 C 
ATOM     13  C   UNL     1       6.322   4.292  15.416  0.00  0.00    +0.000 C 
ENDBRANCH  11  13
ENDBRANCH   5  11
BRANCH  10  14
ATOM     14  O   UNL     1       6.743   4.553  18.831  0.00  0.00    +0.000 OA
BRANCH  14  15
ATOM     15  C   UNL     1       7.436   5.730  19.250  0.00  0.00    +0.000 C 
ATOM     16  C   UNL     1       7.667   6.606  18.023  0.00  0.00    +0.000 C 
ENDBRANCH  14  15
ENDBRANCH  10  14
ENDBRANCH   1   8
BRANCH   2  17
ATOM     17  C   UNL     1       1.227   8.447  20.835  0.00  0.00    +0.000 C 
BRANCH  17  18
ATOM     18  N   UNL     1       0.863   9.862  20.578  0.00  0.00    +0.000 NA
ATOM     19  C   UNL     1       0.207  10.404  21.784  0.00  0.00    +0.000 C 
ATOM     20  C   UNL     1      -0.265  11.840  21.555  0.00  0.00    +0.000 C 
ATOM     21  C   UNL     1      -1.377  11.778  20.552  0.00  0.00    +0.000 A 
ATOM     22  C   UNL     1      -2.546  12.529  20.696  0.00  0.00    +0.000 A 
ATOM     23  C   UNL     1      -3.569  12.466  19.742  0.00  0.00    +0.000 A 
ATOM     24  C   UNL     1      -3.374  11.721  18.578  0.00  0.00    +0.000 A 
ATOM     25  C   UNL     1      -2.206  10.937  18.457  0.00  0.00    +0.000 A 
ATOM     26  C   UNL     1      -1.213  10.924  19.459  0.00  0.00    +0.000 A 
ATOM     27  C   UNL     1       0.053  10.069  19.336  0.00  0.00    +0.000 C 
ATOM     28  O   UNL     1      -4.083  11.829  17.415  0.00  0.00    +0.000 OA
ATOM     29  C   UNL     1      -5.501  11.895  17.404  0.00  0.00    +0.000 C 
ATOM     30  C   UNL     1      -6.156  12.979  18.230  0.00  0.00    +0.000 C 
ATOM     31  C   UNL     1      -5.900  12.728  19.699  0.00  0.00    +0.000 C 
ATOM     32  O   UNL     1      -4.634  13.264  20.050  0.00  0.00    +0.000 OA
ENDBRANCH  17  18
ENDBRANCH   2  17
TORSDOF 7
ENDMDL
MODEL 2
REMARK VINA RESULT:      -8.0      1.716      2.516
REMARK  Name = 
REMARK  9 active torsions:
REMARK  status: ('A' for Active; 'I' for Inactive)
REMARK    1  A    between atoms: C_1  and  C_2
REMARK    2  A    between atoms: C_2  and  O_3
REMARK    3  A    between atoms: O_3  and  C_4
REMARK    4  A    between atoms: C_7  and  N_8
REMARK    5  A    between atoms: C_9  and  C_11
REMARK    6  A    between atoms: C_11  and  N_12
REMARK    7  A    between atoms: C_28  and  O_29
REMARK    8  A    between atoms: O_29  and  C_30
REMARK    9  A    between atoms: C_30  and  C_31
REMARK                            x       y       z     vdW  Elec       q    Type
REMARK                         _______ _______ _______ _____ _____    ______ ____
ROOT
ATOM      1  N   UNL     1       2.078   7.563  20.897  0.00  0.00    +0.000 N 
ATOM      2  C   UNL     1       0.968   8.192  21.458  0.00  0.00    +0.000 C 
ATOM      3  O   UNL     1      -0.204   7.858  21.291  0.00  0.00    +0.000 OA
ATOM      4  H   UNL     1       2.974   8.021  21.021  0.00  0.00    +0.000 HD
ENDROOT
BRANCH   1   8
ATOM      5  C   UNL     1       1.995   4.152  18.314  0.00  0.00    +0.000 A 
ATOM      6  C   UNL     1       1.268   4.173  19.510  0.00  0.00    +0.000 A 
ATOM      7  C   UNL     1       1.307   5.269  20.381  0.00  0.00    +0.000 A 
ATOM      8  C   UNL     1       2.065   6.396  20.085  0.00  0.00    +0.000 A 
ATOM      9  C   UNL     1       2.861   6.349  18.930  0.00  0.00    +0.000 A 
ATOM     10  C   UNL     1       2.857   5.232  18.055  0.00  0.00    +0.000 A 
BRANCH   5  11
ATOM     11  O   UNL     1       1.887   3.113  17.417  0.00  0.00    +0.000 OA
BRANCH  11  13
ATOM     12  C   UNL     1       3.248   1.736  18.884  0.00  0.00    +0.000 C 
ATOM     13  C   UNL     1       2.952   2.151  17.452  0.00  0.00    +0.000 C 
ENDBRANCH  11  13
ENDBRANCH   5  11
BRANCH  10  14
ATOM     14  O   UNL     1       3.723   5.383  16.999  0.00  0.00    +0.000 OA
BRANCH  14  15
ATOM     15  C   UNL     1       5.083   4.982  17.171  0.00  0.00    +0.000 C 
ATOM     16  C   UNL     1       5.550   4.320  15.878  0.00  0.00    +0.000 C 
ENDBRANCH  14  15
ENDBRANCH  10  14
ENDBRANCH   1   8
BRANCH   2  17
ATOM     17  C   UNL     1       1.290   9.376  22.394  0.00  0.00    +0.000 C 
BRANCH  17  18
ATOM     18  N   UNL     1       0.714  10.667  21.941  0.00  0.00    +0.000 NA
ATOM     19  C   UNL     1      -0.473  10.966  22.766  0.00  0.00    +0.000 C 
ATOM     20  C   UNL     1      -1.160  12.248  22.294  0.00  0.00    +0.000 C 
ATOM     21  C   UNL     1      -1.739  11.961  20.942  0.00  0.00    +0.000 A 
ATOM     22  C   UNL     1      -3.018  12.387  20.580  0.00  0.00    +0.000 A 
ATOM     23  C   UNL     1      -3.538  12.118  19.307  0.00  0.00    +0.000 A 
ATOM     24  C   UNL     1      -2.724  11.505  18.352  0.00  0.00    +0.000 A 
ATOM     25  C   UNL     1      -1.447  11.045  18.738  0.00  0.00    +0.000 A 
ATOM     26  C   UNL     1      -0.954  11.231  20.046  0.00  0.00    +0.000 A 
ATOM     27  C   UNL     1       0.430  10.727  20.472  0.00  0.00    +0.000 C 
ATOM     28  O   UNL     1      -2.926  11.491  17.001  0.00  0.00    +0.000 OA
ATOM     29  C   UNL     1      -4.196  11.200  16.435  0.00  0.00    +0.000 C 
ATOM     30  C   UNL     1      -5.369  12.044  16.881  0.00  0.00    +0.000 C 
ATOM     31  C   UNL     1      -5.652  11.790  18.346  0.00  0.00    +0.000 C 
ATOM     32  O   UNL     1      -4.800  12.608  19.133  0.00  0.00    +0.000 OA
ENDBRANCH  17  18
ENDBRANCH   2  17
TORSDOF 7
ENDMDL
MODEL 3
REMARK VINA RESULT:      -7.9      2.061     10.576
REMARK  Name = 
REMARK  9 active torsions:
REMARK  status: ('A' for Active; 'I' for Inactive)
REMARK    1  A    between atoms: C_1  and  C_2
REMARK    2  A    between atoms: C_2  and  O_3
REMARK    3  A    between atoms: O_3  and  C_4
REMARK    4  A    between atoms: C_7  and  N_8
REMARK    5  A    between atoms: C_9  and  C_11
REMARK    6  A    between atoms: C_11  and  N_12
REMARK    7  A    between atoms: C_28  and  O_29
REMARK    8  A    between atoms: O_29  and  C_30
REMARK    9  A    between atoms: C_30  and  C_31
REMARK                            x       y       z     vdW  Elec       q    Type
REMARK                         _______ _______ _______ _____ _____    ______ ____
ROOT
ATOM      1  N   UNL     1      -1.000  10.601  18.654  0.00  0.00    +0.000 N 
ATOM      2  C   UNL     1      -0.391  10.864  19.880  0.00  0.00    +0.000 C 
ATOM      3  O   UNL     1      -0.887  11.513  20.800  0.00  0.00    +0.000 OA
ATOM      4  H   UNL     1      -0.426  10.160  17.945  0.00  0.00    +0.000 HD
ENDROOT
BRANCH   1   8
ATOM      5  C   UNL     1      -4.889  11.825  17.353  0.00  0.00    +0.000 A 
ATOM      6  C   UNL     1      -4.467  12.034  18.672  0.00  0.00    +0.000 A 
ATOM      7  C   UNL     1      -3.209  11.613  19.122  0.00  0.00    +0.000 A 
ATOM      8  C   UNL     1      -2.315  10.978  18.267  0.00  0.00    +0.000 A 
ATOM      9  C   UNL     1      -2.762  10.692  16.968  0.00  0.00    +0.000 A 
ATOM     10  C   UNL     1      -4.046  11.082  16.508  0.00  0.00    +0.000 A 
BRANCH   5  11
ATOM     11  O   UNL     1      -6.088  12.317  16.888  0.00  0.00    +0.000 OA
BRANCH  11  13
ATOM     12  C   UNL     1      -7.873  13.445  18.088  0.00  0.00    +0.000 C 
ATOM     13  C   UNL     1      -6.500  13.573  17.447  0.00  0.00    +0.000 C 
ENDBRANCH  11  13
ENDBRANCH   5  11
BRANCH  10  14
ATOM     14  O   UNL     1      -4.289  10.685  15.215  0.00  0.00    +0.000 OA
BRANCH  14  15
ATOM     15  C   UNL     1      -3.208  10.142  14.455  0.00  0.00    +0.000 C 
ATOM     16  C   UNL     1      -3.725   9.820  13.057  0.00  0.00    +0.000 C 
ENDBRANCH  14  15
ENDBRANCH  10  14
ENDBRANCH   1   8
BRANCH   2  17
ATOM     17  C   UNL     1       1.005  10.233  20.067  0.00  0.00    +0.000 C 
BRANCH  17  18
ATOM     18  N   UNL     1       1.067   8.802  19.682  0.00  0.00    +0.000 NA
ATOM     19  C   UNL     1       1.582   8.029  20.829  0.00  0.00    +0.000 C 
ATOM     20  C   UNL     1       1.746   6.552  20.467  0.00  0.00    +0.000 C 
ATOM     21  C   UNL     1       2.857   6.470  19.465  0.00  0.00    +0.000 A 
ATOM     22  C   UNL     1       3.841   5.481  19.531  0.00  0.00    +0.000 A 
ATOM     23  C   UNL     1       4.865   5.413  18.578  0.00  0.00    +0.000 A 
ATOM     24  C   UNL     1       4.842   6.284  17.487  0.00  0.00    +0.000 A 
ATOM     25  C   UNL     1       3.866   7.303  17.447  0.00  0.00    +0.000 A 
ATOM     26  C   UNL     1       2.886   7.433  18.454  0.00  0.00    +0.000 A 
ATOM     27  C   UNL     1       1.829   8.542  18.419  0.00  0.00    +0.000 C 
ATOM     28  O   UNL     1       5.526   6.135  16.313  0.00  0.00    +0.000 OA
ATOM     29  C   UNL     1       6.899   5.774  16.285  0.00  0.00    +0.000 C 
ATOM     30  C   UNL     1       7.303   4.507  17.004  0.00  0.00    +0.000 C 
ATOM     31  C   UNL     1       7.090   4.675  18.492  0.00  0.00    +0.000 C 
ATOM     32  O   UNL     1       5.736   4.386  18.804  0.00  0.00    +0.000 OA
ENDBRANCH  17  18
ENDBRANCH   2  17
TORSDOF 7
ENDMDL
MODEL 4
REMARK VINA RESULT:      -7.9      1.858      2.513
REMARK  Name = 
REMARK  9 active torsions:
REMARK  status: ('A' for Active; 'I' for Inactive)
REMARK    1  A    between atoms: C_1  and  C_2
REMARK    2  A    between atoms: C_2  and  O_3
REMARK    3  A    between atoms: O_3  and  C_4
REMARK    4  A    between atoms: C_7  and  N_8
REMARK    5  A    between atoms: C_9  and  C_11
REMARK    6  A    between atoms: C_11  and  N_12
REMARK    7  A    between atoms: C_28  and  O_29
REMARK    8  A    between atoms: O_29  and  C_30
REMARK    9  A    between atoms: C_30  and  C_31
REMARK                            x       y       z     vdW  Elec       q    Type
REMARK                         _______ _______ _______ _____ _____    ______ ____
ROOT
ATOM      1  N   UNL     1       3.326   6.001  18.698  0.00  0.00    +0.000 N 
ATOM      2  C   UNL     1       2.505   7.126  18.640  0.00  0.00    +0.000 C 
ATOM      3  O   UNL     1       2.522   7.977  17.752  0.00  0.00    +0.000 OA
ATOM      4  H   UNL     1       3.289   5.453  19.550  0.00  0.00    +0.000 HD
ENDROOT
BRANCH   1   8
ATOM      5  C   UNL     1       6.201   4.966  15.702  0.00  0.00    +0.000 A 
ATOM      6  C   UNL     1       5.030   4.217  15.873  0.00  0.00    +0.000 A 
ATOM      7  C   UNL     1       4.093   4.525  16.868  0.00  0.00    +0.000 A 
ATOM      8  C   UNL     1       4.282   5.603  17.725  0.00  0.00    +0.000 A 
ATOM      9  C   UNL     1       5.491   6.307  17.614  0.00  0.00    +0.000 A 
ATOM     10  C   UNL     1       6.464   5.986  16.632  0.00  0.00    +0.000 A 
BRANCH   5  11
ATOM     11  O   UNL     1       7.077   4.718  14.669  0.00  0.00    +0.000 OA
BRANCH  11  13
ATOM     12  C   UNL     1       7.189   4.365  12.269  0.00  0.00    +0.000 C 
ATOM     13  C   UNL     1       6.550   3.944  13.582  0.00  0.00    +0.000 C 
ENDBRANCH  11  13
ENDBRANCH   5  11
BRANCH  10  14
ATOM     14  O   UNL     1       7.580   6.785  16.713  0.00  0.00    +0.000 OA
BRANCH  14  15
ATOM     15  C   UNL     1       7.915   7.362  17.976  0.00  0.00    +0.000 C 
ATOM     16  C   UNL     1       8.039   8.871  17.791  0.00  0.00    +0.000 C 
ENDBRANCH  14  15
ENDBRANCH  10  14
ENDBRANCH   1   8
BRANCH   2  17
ATOM     17  C   UNL     1       1.478   7.248  19.785  0.00  0.00    +0.000 C 
BRANCH  17  18
ATOM     18  N   UNL     1       1.548   8.538  20.514  0.00  0.00    +0.000 NA
ATOM     19  C   UNL     1       1.088   8.321  21.899  0.00  0.00    +0.000 C 
ATOM     20  C   UNL     1       1.062   9.634  22.681  0.00  0.00    +0.000 C 
ATOM     21  C   UNL     1      -0.023  10.477  22.082  0.00  0.00    +0.000 A 
ATOM     22  C   UNL     1      -0.916  11.205  22.872  0.00  0.00    +0.000 A 
ATOM     23  C   UNL     1      -1.916  11.996  22.293  0.00  0.00    +0.000 A 
ATOM     24  C   UNL     1      -1.956  12.140  20.905  0.00  0.00    +0.000 A 
ATOM     25  C   UNL     1      -1.073  11.374  20.113  0.00  0.00    +0.000 A 
ATOM     26  C   UNL     1      -0.124  10.504  20.690  0.00  0.00    +0.000 A 
ATOM     27  C   UNL     1       0.831   9.664  19.834  0.00  0.00    +0.000 C 
ATOM     28  O   UNL     1      -2.606  13.119  20.208  0.00  0.00    +0.000 OA
ATOM     29  C   UNL     1      -3.941  13.495  20.511  0.00  0.00    +0.000 C 
ATOM     30  C   UNL     1      -4.241  13.920  21.931  0.00  0.00    +0.000 C 
ATOM     31  C   UNL     1      -4.065  12.743  22.864  0.00  0.00    +0.000 C 
ATOM     32  O   UNL     1      -2.695  12.630  23.218  0.00  0.00    +0.000 OA
ENDBRANCH  17  18
ENDBRANCH   2  17
TORSDOF 7
ENDMDL
MODEL 5
REMARK VINA RESULT:      -7.8      2.282      2.835
REMARK  Name = 
REMARK  9 active torsions:
REMARK  status: ('A' for Active; 'I' for Inactive)
REMARK    1  A    between atoms: C_1  and  C_2
REMARK    2  A    between atoms: C_2  and  O_3
REMARK    3  A    between atoms: O_3  and  C_4
REMARK    4  A    between atoms: C_7  and  N_8
REMARK    5  A    between atoms: C_9  and  C_11
REMARK    6  A    between atoms: C_11  and  N_12
REMARK    7  A    between atoms: C_28  and  O_29
REMARK    8  A    between atoms: O_29  and  C_30
REMARK    9  A    between atoms: C_30  and  C_31
REMARK                            x       y       z     vdW  Elec       q    Type
REMARK                         _______ _______ _______ _____ _____    ______ ____
ROOT
ATOM      1  N   UNL     1       2.182   7.238  18.251  0.00  0.00    +0.000 N 
ATOM      2  C   UNL     1       1.981   8.584  17.950  0.00  0.00    +0.000 C 
ATOM      3  O   UNL     1       2.742   9.292  17.292  0.00  0.00    +0.000 OA
ATOM      4  H   UNL     1       1.535   6.815  18.905  0.00  0.00    +0.000 HD
ENDROOT
BRANCH   1   8
ATOM      5  C   UNL     1       5.438   4.890  16.767  0.00  0.00    +0.000 A 
ATOM      6  C   UNL     1       4.273   4.287  17.257  0.00  0.00    +0.000 A 
ATOM      7  C   UNL     1       3.210   5.040  17.773  0.00  0.00    +0.000 A 
ATOM      8  C   UNL     1       3.263   6.428  17.808  0.00  0.00    +0.000 A 
ATOM      9  C   UNL     1       4.459   7.036  17.396  0.00  0.00    +0.000 A 
ATOM     10  C   UNL     1       5.557   6.284  16.902  0.00  0.00    +0.000 A 
BRANCH   5  11
ATOM     11  O   UNL     1       6.444   4.156  16.179  0.00  0.00    +0.000 OA
BRANCH  11  13
ATOM     12  C   UNL     1       7.021   4.776  13.903  0.00  0.00    +0.000 C 
ATOM     13  C   UNL     1       6.242   3.825  14.798  0.00  0.00    +0.000 C 
ENDBRANCH  11  13
ENDBRANCH   5  11
BRANCH  10  14
ATOM     14  O   UNL     1       6.634   7.072  16.576  0.00  0.00    +0.000 OA
BRANCH  14  15
ATOM     15  C   UNL     1       7.432   7.607  17.633  0.00  0.00    +0.000 C 
ATOM     16  C   UNL     1       7.833   6.458  18.553  0.00  0.00    +0.000 C 
ENDBRANCH  14  15
ENDBRANCH  10  14
ENDBRANCH   1   8
BRANCH   2  17
ATOM     17  C   UNL     1       0.657   9.181  18.473  0.00  0.00    +0.000 C 
BRANCH  17  18
ATOM     18  N   UNL     1       0.800   9.919  19.751  0.00  0.00    +0.000 NA
ATOM     19  C   UNL     1       0.280   9.074  20.843  0.00  0.00    +0.000 C 
ATOM     20  C   UNL     1       0.327   9.813  22.181  0.00  0.00    +0.000 C 
ATOM     21  C   UNL     1      -0.671  10.927  22.098  0.00  0.00    +0.000 A 
ATOM     22  C   UNL     1      -1.533  11.229  23.156  0.00  0.00    +0.000 A 
ATOM     23  C   UNL     1      -2.451  12.283  23.064  0.00  0.00    +0.000 A 
ATOM     24  C   UNL     1      -2.434  13.108  21.938  0.00  0.00    +0.000 A 
ATOM     25  C   UNL     1      -1.586  12.775  20.860  0.00  0.00    +0.000 A 
ATOM     26  C   UNL     1      -0.724  11.659  20.910  0.00  0.00    +0.000 A 
ATOM     27  C   UNL     1       0.192  11.288  19.738  0.00  0.00    +0.000 C 
ATOM     28  O   UNL     1      -2.985  14.354  21.835  0.00  0.00    +0.000 OA
ATOM     29  C   UNL     1      -4.298  14.634  22.299  0.00  0.00    +0.000 C 
ATOM     30  C   UNL     1      -4.612  14.310  23.743  0.00  0.00    +0.000 C 
ATOM     31  C   UNL     1      -4.555  12.814  23.954  0.00  0.00    +0.000 C 
ATOM     32  O   UNL     1      -3.210  12.427  24.190  0.00  0.00    +0.000 OA
ENDBRANCH  17  18
ENDBRANCH   2  17
TORSDOF 7
ENDMDL
MODEL 6
REMARK VINA RESULT:      -7.8      2.841      3.132
REMARK  Name = 
REMARK  9 active torsions:
REMARK  status: ('A' for Active; 'I' for Inactive)
REMARK    1  A    between atoms: C_1  and  C_2
REMARK    2  A    between atoms: C_2  and  O_3
REMARK    3  A    between atoms: O_3  and  C_4
REMARK    4  A    between atoms: C_7  and  N_8
REMARK    5  A    between atoms: C_9  and  C_11
REMARK    6  A    between atoms: C_11  and  N_12
REMARK    7  A    between atoms: C_28  and  O_29
REMARK    8  A    between atoms: O_29  and  C_30
REMARK    9  A    between atoms: C_30  and  C_31
REMARK                            x       y       z     vdW  Elec       q    Type
REMARK                         _______ _______ _______ _____ _____    ______ ____
ROOT
ATOM      1  N   UNL     1       2.305   7.832  18.087  0.00  0.00    +0.000 N 
ATOM      2  C   UNL     1       1.854   8.123  19.374  0.00  0.00    +0.000 C 
ATOM      3  O   UNL     1       2.196   7.539  20.400  0.00  0.00    +0.000 OA
ATOM      4  H   UNL     1       1.845   8.313  17.323  0.00  0.00    +0.000 HD
ENDROOT
BRANCH   1   8
ATOM      5  C   UNL     1       5.256   4.981  16.872  0.00  0.00    +0.000 A 
ATOM      6  C   UNL     1       3.987   4.573  17.300  0.00  0.00    +0.000 A 
ATOM      7  C   UNL     1       3.020   5.491  17.729  0.00  0.00    +0.000 A 
ATOM      8  C   UNL     1       3.277   6.857  17.734  0.00  0.00    +0.000 A 
ATOM      9  C   UNL     1       4.573   7.268  17.386  0.00  0.00    +0.000 A 
ATOM     10  C   UNL     1       5.574   6.346  16.981  0.00  0.00    +0.000 A 
BRANCH   5  11
ATOM     11  O   UNL     1       6.174   4.088  16.367  0.00  0.00    +0.000 OA
BRANCH  11  13
ATOM     12  C   UNL     1       5.571   4.109  14.015  0.00  0.00    +0.000 C 
ATOM     13  C   UNL     1       6.655   4.375  15.047  0.00  0.00    +0.000 C 
ENDBRANCH  11  13
ENDBRANCH   5  11
BRANCH  10  14
ATOM     14  O   UNL     1       6.774   6.956  16.705  0.00  0.00    +0.000 OA
BRANCH  14  15
ATOM     15  C   UNL     1       7.692   7.168  17.779  0.00  0.00    +0.000 C 
ATOM     16  C   UNL     1       8.093   8.639  17.778  0.00  0.00    +0.000 C 
ENDBRANCH  14  15
ENDBRANCH  10  14
ENDBRANCH   1   8
BRANCH   2  17
ATOM     17  C   UNL     1       0.877   9.314  19.472  0.00  0.00    +0.000 C 
BRANCH  17  18
ATOM     18  N   UNL     1       0.754   9.871  20.841  0.00  0.00    +0.000 NA
ATOM     19  C   UNL     1      -0.414   9.251  21.498  0.00  0.00    +0.000 C 
ATOM     20  C   UNL     1      -0.642   9.844  22.888  0.00  0.00    +0.000 C 
ATOM     21  C   UNL     1      -1.070  11.267  22.690  0.00  0.00    +0.000 A 
ATOM     22  C   UNL     1      -2.113  11.835  23.424  0.00  0.00    +0.000 A 
ATOM     23  C   UNL     1      -2.491  13.170  23.233  0.00  0.00    +0.000 A 
ATOM     24  C   UNL     1      -1.745  13.974  22.368  0.00  0.00    +0.000 A 
ATOM     25  C   UNL     1      -0.716  13.383  21.603  0.00  0.00    +0.000 A 
ATOM     26  C   UNL     1      -0.392  12.015  21.725  0.00  0.00    +0.000 A 
ATOM     27  C   UNL     1       0.719  11.367  20.891  0.00  0.00    +0.000 C 
ATOM     28  O   UNL     1      -1.739  15.340  22.331  0.00  0.00    +0.000 OA
ATOM     29  C   UNL     1      -2.941  16.096  22.362  0.00  0.00    +0.000 C 
ATOM     30  C   UNL     1      -3.888  15.855  23.515  0.00  0.00    +0.000 C 
ATOM     31  C   UNL     1      -4.445  14.451  23.433  0.00  0.00    +0.000 C 
ATOM     32  O   UNL     1      -3.529  13.550  24.034  0.00  0.00    +0.000 OA
ENDBRANCH  17  18
ENDBRANCH   2  17
TORSDOF 7
ENDMDL
MODEL 7
REMARK VINA RESULT:      -7.8      2.506     10.336
REMARK  Name = 
REMARK  9 active torsions:
REMARK  status: ('A' for Active; 'I' for Inactive)
REMARK    1  A    between atoms: C_1  and  C_2
REMARK    2  A    between atoms: C_2  and  O_3
REMARK    3  A    between atoms: O_3  and  C_4
REMARK    4  A    between atoms: C_7  and  N_8
REMARK    5  A    between atoms: C_9  and  C_11
REMARK    6  A    between atoms: C_11  and  N_12
REMARK    7  A    between atoms: C_28  and  O_29
REMARK    8  A    between atoms: O_29  and  C_30
REMARK    9  A    between atoms: C_30  and  C_31
REMARK                            x       y       z     vdW  Elec       q    Type
REMARK                         _______ _______ _______ _____ _____    ______ ____
ROOT
ATOM      1  N   UNL     1       2.357   6.649  20.060  0.00  0.00    +0.000 N 
ATOM      2  C   UNL     1       2.371   5.550  19.204  0.00  0.00    +0.000 C 
ATOM      3  O   UNL     1       1.976   5.545  18.040  0.00  0.00    +0.000 OA
ATOM      4  H   UNL     1       2.598   6.476  21.030  0.00  0.00    +0.000 HD
ENDROOT
BRANCH   1   8
ATOM      5  C   UNL     1       0.951  10.585  19.142  0.00  0.00    +0.000 A 
ATOM      6  C   UNL     1       1.530   9.775  18.158  0.00  0.00    +0.000 A 
ATOM      7  C   UNL     1       2.022   8.496  18.449  0.00  0.00    +0.000 A 
ATOM      8  C   UNL     1       1.942   7.969  19.732  0.00  0.00    +0.000 A 
ATOM      9  C   UNL     1       1.439   8.806  20.740  0.00  0.00    +0.000 A 
ATOM     10  C   UNL     1       0.967  10.116  20.467  0.00  0.00    +0.000 A 
BRANCH   5  11
ATOM     11  O   UNL     1       0.388  11.805  18.839  0.00  0.00    +0.000 OA
BRANCH  11  13
ATOM     12  C   UNL     1      -1.890  12.312  19.510  0.00  0.00    +0.000 C 
ATOM     13  C   UNL     1      -0.983  11.766  18.419  0.00  0.00    +0.000 C 
ENDBRANCH  11  13
ENDBRANCH   5  11
BRANCH  10  14
ATOM     14  O   UNL     1       0.538  10.771  21.597  0.00  0.00    +0.000 OA
BRANCH  14  15
ATOM     15  C   UNL     1      -0.141  10.018  22.603  0.00  0.00    +0.000 C 
ATOM     16  C   UNL     1      -1.282  10.872  23.146  0.00  0.00    +0.000 C 
ENDBRANCH  14  15
ENDBRANCH  10  14
ENDBRANCH   1   8
BRANCH   2  17
ATOM     17  C   UNL     1       2.983   4.264  19.800  0.00  0.00    +0.000 C 
BRANCH  17  18
ATOM     18  N   UNL     1       4.368   3.996  19.342  0.00  0.00    +0.000 NA
ATOM     19  C   UNL     1       5.100   5.277  19.284  0.00  0.00    +0.000 C 
ATOM     20  C   UNL     1       6.515   5.077  18.741  0.00  0.00    +0.000 C 
ATOM     21  C   UNL     1       6.379   4.688  17.301  0.00  0.00    +0.000 A 
ATOM     22  C   UNL     1       7.203   5.225  16.308  0.00  0.00    +0.000 A 
ATOM     23  C   UNL     1       7.067   4.840  14.969  0.00  0.00    +0.000 A 
ATOM     24  C   UNL     1       6.164   3.829  14.636  0.00  0.00    +0.000 A 
ATOM     25  C   UNL     1       5.312   3.318  15.638  0.00  0.00    +0.000 A 
ATOM     26  C   UNL     1       5.380   3.769  16.973  0.00  0.00    +0.000 A 
ATOM     27  C   UNL     1       4.451   3.223  18.062  0.00  0.00    +0.000 C 
ATOM     28  O   UNL     1       6.154   3.096  13.482  0.00  0.00    +0.000 OA
ATOM     29  C   UNL     1       6.292   3.703  12.206  0.00  0.00    +0.000 C 
ATOM     30  C   UNL     1       7.510   4.569  11.973  0.00  0.00    +0.000 C 
ATOM     31  C   UNL     1       7.442   5.794  12.859  0.00  0.00    +0.000 C 
ATOM     32  O   UNL     1       7.954   5.470  14.142  0.00  0.00    +0.000 OA
ENDBRANCH  17  18
ENDBRANCH   2  17
TORSDOF 7
ENDMDL
MODEL 8
REMARK VINA RESULT:      -7.8      2.579      3.498
REMARK  Name = 
REMARK  9 active torsions:
REMARK  status: ('A' for Active; 'I' for Inactive)
REMARK    1  A    between atoms: C_1  and  C_2
REMARK    2  A    between atoms: C_2  and  O_3
REMARK    3  A    between atoms: O_3  and  C_4
REMARK    4  A    between atoms: C_7  and  N_8
REMARK    5  A    between atoms: C_9  and  C_11
REMARK    6  A    between atoms: C_11  and  N_12
REMARK    7  A    between atoms: C_28  and  O_29
REMARK    8  A    between atoms: O_29  and  C_30
REMARK    9  A    between atoms: C_30  and  C_31
REMARK                            x       y       z     vdW  Elec       q    Type
REMARK                         _______ _______ _______ _____ _____    ______ ____
ROOT
ATOM      1  N   UNL     1       1.918   7.879  18.732  0.00  0.00    +0.000 N 
ATOM      2  C   UNL     1       1.696   9.126  18.151  0.00  0.00    +0.000 C 
ATOM      3  O   UNL     1       2.419   9.663  17.314  0.00  0.00    +0.000 OA
ATOM      4  H   UNL     1       1.306   7.617  19.497  0.00  0.00    +0.000 HD
ENDROOT
BRANCH   1   8
ATOM      5  C   UNL     1       5.155   5.183  17.982  0.00  0.00    +0.000 A 
ATOM      6  C   UNL     1       4.997   6.352  17.229  0.00  0.00    +0.000 A 
ATOM      7  C   UNL     1       3.926   7.230  17.442  0.00  0.00    +0.000 A 
ATOM      8  C   UNL     1       2.977   6.982  18.427  0.00  0.00    +0.000 A 
ATOM      9  C   UNL     1       3.083   5.772  19.129  0.00  0.00    +0.000 A 
ATOM     10  C   UNL     1       4.143   4.856  18.902  0.00  0.00    +0.000 A 
BRANCH   5  11
ATOM     11  O   UNL     1       6.254   4.367  17.833  0.00  0.00    +0.000 OA
BRANCH  11  13
ATOM     12  C   UNL     1       7.793   5.654  19.202  0.00  0.00    +0.000 C 
ATOM     13  C   UNL     1       7.525   5.032  17.841  0.00  0.00    +0.000 C 
ENDBRANCH  11  13
ENDBRANCH   5  11
BRANCH  10  14
ATOM     14  O   UNL     1       4.044   3.727  19.679  0.00  0.00    +0.000 OA
BRANCH  14  15
ATOM     15  C   UNL     1       2.979   2.813  19.419  0.00  0.00    +0.000 C 
ATOM     16  C   UNL     1       3.479   1.772  18.422  0.00  0.00    +0.000 C 
ENDBRANCH  14  15
ENDBRANCH  10  14
ENDBRANCH   1   8
BRANCH   2  17
ATOM     17  C   UNL     1       0.398   9.834  18.594  0.00  0.00    +0.000 C 
BRANCH  17  18
ATOM     18  N   UNL     1       0.478  10.428  19.952  0.00  0.00    +0.000 NA
ATOM     19  C   UNL     1      -0.213   9.531  20.898  0.00  0.00    +0.000 C 
ATOM     20  C   UNL     1      -0.234  10.129  22.305  0.00  0.00    +0.000 C 
ATOM     21  C   UNL     1      -1.124  11.333  22.254  0.00  0.00    +0.000 A 
ATOM     22  C   UNL     1      -2.056  11.608  23.258  0.00  0.00    +0.000 A 
ATOM     23  C   UNL     1      -2.871  12.745  23.198  0.00  0.00    +0.000 A 
ATOM     24  C   UNL     1      -2.677  13.672  22.171  0.00  0.00    +0.000 A 
ATOM     25  C   UNL     1      -1.760  13.368  21.142  0.00  0.00    +0.000 A 
ATOM     26  C   UNL     1      -1.002  12.179  21.149  0.00  0.00    +0.000 A 
ATOM     27  C   UNL     1      -0.011  11.841  20.030  0.00  0.00    +0.000 C 
ATOM     28  O   UNL     1      -3.112  14.967  22.153  0.00  0.00    +0.000 OA
ATOM     29  C   UNL     1      -4.436  15.320  22.528  0.00  0.00    +0.000 C 
ATOM     30  C   UNL     1      -4.912  14.887  23.896  0.00  0.00    +0.000 C 
ATOM     31  C   UNL     1      -5.000  13.378  23.953  0.00  0.00    +0.000 C 
ATOM     32  O   UNL     1      -3.720  12.848  24.262  0.00  0.00    +0.000 OA
ENDBRANCH  17  18
ENDBRANCH   2  17
TORSDOF 7
ENDMDL
MODEL 9
REMARK VINA RESULT:      -7.7      1.859     10.832
REMARK  Name = 
REMARK  9 active torsions:
REMARK  status: ('A' for Active; 'I' for Inactive)
REMARK    1  A    between atoms: C_1  and  C_2
REMARK    2  A    between atoms: C_2  and  O_3
REMARK    3  A    between atoms: O_3  and  C_4
REMARK    4  A    between atoms: C_7  and  N_8
REMARK    5  A    between atoms: C_9  and  C_11
REMARK    6  A    between atoms: C_11  and  N_12
REMARK    7  A    between atoms: C_28  and  O_29
REMARK    8  A    between atoms: O_29  and  C_30
REMARK    9  A    between atoms: C_30  and  C_31
REMARK                            x       y       z     vdW  Elec       q    Type
REMARK                         _______ _______ _______ _____ _____    ______ ____
ROOT
ATOM      1  N   UNL     1      -0.969  10.747  18.200  0.00  0.00    +0.000 N 
ATOM      2  C   UNL     1      -0.304  10.957  19.406  0.00  0.00    +0.000 C 
ATOM      3  O   UNL     1      -0.774  11.522  20.393  0.00  0.00    +0.000 OA
ATOM      4  H   UNL     1      -0.418  10.379  17.433  0.00  0.00    +0.000 HD
ENDROOT
BRANCH   1   8
ATOM      5  C   UNL     1      -5.081  11.672  17.457  0.00  0.00    +0.000 A 
ATOM      6  C   UNL     1      -4.244  11.213  16.432  0.00  0.00    +0.000 A 
ATOM      7  C   UNL     1      -2.890  10.934  16.652  0.00  0.00    +0.000 A 
ATOM      8  C   UNL     1      -2.318  11.089  17.909  0.00  0.00    +0.000 A 
ATOM      9  C   UNL     1      -3.128  11.626  18.921  0.00  0.00    +0.000 A 
ATOM     10  C   UNL     1      -4.494  11.945  18.705  0.00  0.00    +0.000 A 
BRANCH   5  11
ATOM     11  O   UNL     1      -6.431  11.861  17.263  0.00  0.00    +0.000 OA
BRANCH  11  13
ATOM     12  C   UNL     1      -7.915  13.652  17.962  0.00  0.00    +0.000 C 
ATOM     13  C   UNL     1      -6.833  13.211  16.989  0.00  0.00    +0.000 C 
ENDBRANCH  11  13
ENDBRANCH   5  11
BRANCH  10  14
ATOM     14  O   UNL     1      -5.096  12.478  19.820  0.00  0.00    +0.000 OA
BRANCH  14  15
ATOM     15  C   UNL     1      -4.268  13.053  20.831  0.00  0.00    +0.000 C 
ATOM     16  C   UNL     1      -5.035  13.023  22.149  0.00  0.00    +0.000 C 
ENDBRANCH  14  15
ENDBRANCH  10  14
ENDBRANCH   1   8
BRANCH   2  17
ATOM     17  C   UNL     1       1.125  10.378  19.477  0.00  0.00    +0.000 C 
BRANCH  17  18
ATOM     18  N   UNL     1       1.189   8.919  19.219  0.00  0.00    +0.000 NA
ATOM     19  C   UNL     1       1.676   8.247  20.439  0.00  0.00    +0.000 C 
ATOM     20  C   UNL     1       1.841   6.744  20.211  0.00  0.00    +0.000 C 
ATOM     21  C   UNL     1       2.972   6.571  19.244  0.00  0.00    +0.000 A 
ATOM     22  C   UNL     1       3.950   5.590  19.417  0.00  0.00    +0.000 A 
ATOM     23  C   UNL     1       4.994   5.436  18.495  0.00  0.00    +0.000 A 
ATOM     24  C   UNL     1       4.998   6.210  17.332  0.00  0.00    +0.000 A 
ATOM     25  C   UNL     1       4.027   7.223  17.183  0.00  0.00    +0.000 A 
ATOM     26  C   UNL     1       3.027   7.443  18.154  0.00  0.00    +0.000 A 
ATOM     27  C   UNL     1       1.976   8.548  18.000  0.00  0.00    +0.000 C 
ATOM     28  O   UNL     1       5.705   5.956  16.191  0.00  0.00    +0.000 OA
ATOM     29  C   UNL     1       7.077   5.592  16.224  0.00  0.00    +0.000 C 
ATOM     30  C   UNL     1       7.461   4.391  17.059  0.00  0.00    +0.000 C 
ATOM     31  C   UNL     1       7.216   4.687  18.522  0.00  0.00    +0.000 C 
ATOM     32  O   UNL     1       5.855   4.431  18.828  0.00  0.00    +0.000 OA
ENDBRANCH  17  18
ENDBRANCH   2  17
TORSDOF 7
ENDMDL
