MODEL 1
REMARK VINA RESULT:      -7.2      0.000      0.000
REMARK  Name = 
REMARK  10 active torsions:
REMARK  status: ('A' for Active; 'I' for Inactive)
REMARK    1  A    between atoms: C_1  and  N_2
REMARK    2  A    between atoms: N_2  and  C_3
REMARK    3  A    between atoms: C_3  and  C_4
REMARK    4  A    between atoms: C_8  and  N_9
REMARK    5  A    between atoms: N_9  and  S_10
REMARK    6  A    between atoms: S_10  and  C_11
REMARK    7  A    between atoms: C_15  and  C_17
REMARK    8  A    between atoms: C_20  and  C_21
REMARK    9  A    between atoms: C_21  and  C_22
REMARK   10  A    between atoms: C_33  and  O_34
REMARK                            x       y       z     vdW  Elec       q    Type
REMARK                         _______ _______ _______ _____ _____    ______ ____
ROOT
ATOM      1  C   UNL     1      -5.983  13.405  22.299  0.00  0.00    +0.000 A 
ATOM      2  C   UNL     1      -5.384  12.892  21.133  0.00  0.00    +0.000 A 
ATOM      3  C   UNL     1      -6.096  11.961  20.362  0.00  0.00    +0.000 A 
ATOM      4  C   UNL     1      -6.090  11.573  18.994  0.00  0.00    +0.000 A 
ATOM      5  N   UNL     1      -7.026  10.644  18.742  0.00  0.00    +0.000 NA
ATOM      6  N   UNL     1      -7.668  10.507  19.915  0.00  0.00    +0.000 N 
ATOM      7  C   UNL     1      -7.231  11.362  20.890  0.00  0.00    +0.000 A 
ATOM      8  C   UNL     1      -7.777  11.728  22.119  0.00  0.00    +0.000 A 
ATOM      9  C   UNL     1      -7.186  12.837  22.743  0.00  0.00    +0.000 A 
ATOM     10  H   UNL     1      -8.478   9.899  19.946  0.00  0.00    +0.000 HD
ENDROOT
BRANCH   1  13
ATOM     11  C   UNL     1      -4.206  16.081  24.408  0.00  0.00    +0.000 C 
ATOM     12  N   UNL     1      -4.643  14.753  23.996  0.00  0.00    +0.000 N 
ATOM     13  C   UNL     1      -5.372  14.674  22.808  0.00  0.00    +0.000 C 
ATOM     14  O   UNL     1      -5.555  15.681  22.114  0.00  0.00    +0.000 OA
BRANCH  12  15
ATOM     15  C   UNL     1      -3.929  13.630  24.589  0.00  0.00    +0.000 C 
BRANCH  15  16
ATOM     16  C   UNL     1      -2.742  13.124  23.792  0.00  0.00    +0.000 A 
ATOM     17  C   UNL     1      -2.553  11.772  23.454  0.00  0.00    +0.000 A 
ATOM     18  C   UNL     1      -1.437  11.375  22.715  0.00  0.00    +0.000 A 
ATOM     19  C   UNL     1      -0.517  12.318  22.267  0.00  0.00    +0.000 A 
ATOM     20  C   UNL     1      -0.737  13.665  22.535  0.00  0.00    +0.000 A 
ATOM     21  C   UNL     1      -1.822  14.066  23.310  0.00  0.00    +0.000 A 
BRANCH  20  22
ATOM     22  N   UNL     1       0.155  14.653  22.030  0.00  0.00    +0.000 N 
ATOM     23  H   UNL     1       0.194  15.514  22.576  0.00  0.00    +0.000 HD
BRANCH  22  24
ATOM     24  S   UNL     1       0.101  15.034  20.388  0.00  0.00    +0.000 S 
ATOM     25  C   UNL     1       1.446  14.059  19.751  0.00  0.00    +0.000 C 
ATOM     26  O   UNL     1      -1.132  14.569  19.810  0.00  0.00    +0.000 OA
ATOM     27  O   UNL     1       0.496  16.424  20.309  0.00  0.00    +0.000 OA
ENDBRANCH  22  24
ENDBRANCH  20  22
ENDBRANCH  15  16
ENDBRANCH  12  15
ENDBRANCH   1  13
BRANCH   9  28
ATOM     28  O   UNL     1      -7.917  13.422  23.737  0.00  0.00    +0.000 OA
ATOM     29  H   UNL     1      -7.740  12.961  24.575  0.00  0.00    +0.000 HD
ENDBRANCH   9  28
BRANCH   4  30
ATOM     30  C   UNL     1      -5.384  12.281  17.880  0.00  0.00    +0.000 C 
BRANCH  30  31
ATOM     31  C   UNL     1      -4.167  11.480  17.518  0.00  0.00    +0.000 A 
ATOM     32  C   UNL     1      -4.134  10.719  16.340  0.00  0.00    +0.000 A 
ATOM     33  C   UNL     1      -2.999   9.985  15.999  0.00  0.00    +0.000 A 
ATOM     34  C   UNL     1      -1.899   9.971  16.855  0.00  0.00    +0.000 A 
ATOM     35  C   UNL     1      -1.932  10.706  18.037  0.00  0.00    +0.000 A 
ATOM     36 CL   UNL     1      -0.629  10.589  19.155  0.00  0.00    +0.000 Cl
ATOM     37  C   UNL     1      -3.038  11.493  18.350  0.00  0.00    +0.000 A 
ENDBRANCH  30  31
ENDBRANCH   4  30
TORSDOF 8
ENDMDL
MODEL 2
REMARK VINA RESULT:      -7.1      2.860      6.330
REMARK  Name = 
REMARK  10 active torsions:
REMARK  status: ('A' for Active; 'I' for Inactive)
REMARK    1  A    between atoms: C_1  and  N_2
REMARK    2  A    between atoms: N_2  and  C_3
REMARK    3  A    between atoms: C_3  and  C_4
REMARK    4  A    between atoms: C_8  and  N_9
REMARK    5  A    between atoms: N_9  and  S_10
REMARK    6  A    between atoms: S_10  and  C_11
REMARK    7  A    between atoms: C_15  and  C_17
REMARK    8  A    between atoms: C_20  and  C_21
REMARK    9  A    between atoms: C_21  and  C_22
REMARK   10  A    between atoms: C_33  and  O_34
REMARK                            x       y       z     vdW  Elec       q    Type
REMARK                         _______ _______ _______ _____ _____    ______ ____
ROOT
ATOM      1  C   UNL     1       0.378  15.436  18.984  0.00  0.00    +0.000 A 
ATOM      2  C   UNL     1      -0.154  14.153  18.756  0.00  0.00    +0.000 A 
ATOM      3  C   UNL     1       0.728  13.094  18.490  0.00  0.00    +0.000 A 
ATOM      4  C   UNL     1       0.683  11.683  18.655  0.00  0.00    +0.000 A 
ATOM      5  N   UNL     1       1.837  11.107  18.281  0.00  0.00    +0.000 NA
ATOM      6  N   UNL     1       2.628  12.147  17.963  0.00  0.00    +0.000 N 
ATOM      7  C   UNL     1       2.053  13.369  18.187  0.00  0.00    +0.000 A 
ATOM      8  C   UNL     1       2.593  14.653  18.247  0.00  0.00    +0.000 A 
ATOM      9  C   UNL     1       1.747  15.647  18.762  0.00  0.00    +0.000 A 
ATOM     10  H   UNL     1       3.592  11.954  17.716  0.00  0.00    +0.000 HD
ENDROOT
BRANCH   1  13
ATOM     11  C   UNL     1      -2.054  17.122  21.436  0.00  0.00    +0.000 C 
ATOM     12  N   UNL     1      -1.077  16.156  20.948  0.00  0.00    +0.000 N 
ATOM     13  C   UNL     1      -0.554  16.385  19.673  0.00  0.00    +0.000 C 
ATOM     14  O   UNL     1      -0.857  17.404  19.041  0.00  0.00    +0.000 OA
BRANCH  12  15
ATOM     15  C   UNL     1      -0.425  15.337  21.960  0.00  0.00    +0.000 C 
BRANCH  15  16
ATOM     16  C   UNL     1      -1.231  14.150  22.451  0.00  0.00    +0.000 A 
ATOM     17  C   UNL     1      -0.770  12.822  22.399  0.00  0.00    +0.000 A 
ATOM     18  C   UNL     1      -1.565  11.777  22.872  0.00  0.00    +0.000 A 
ATOM     19  C   UNL     1      -2.808  12.038  23.440  0.00  0.00    +0.000 A 
ATOM     20  C   UNL     1      -3.238  13.355  23.562  0.00  0.00    +0.000 A 
ATOM     21  C   UNL     1      -2.474  14.401  23.052  0.00  0.00    +0.000 A 
BRANCH  20  22
ATOM     22  N   UNL     1      -4.476  13.651  24.200  0.00  0.00    +0.000 N 
ATOM     23  H   UNL     1      -4.502  13.451  25.199  0.00  0.00    +0.000 HD
BRANCH  22  24
ATOM     24  S   UNL     1      -5.906  13.117  23.484  0.00  0.00    +0.000 S 
ATOM     25  C   UNL     1      -7.028  14.435  23.898  0.00  0.00    +0.000 C 
ATOM     26  O   UNL     1      -5.756  13.058  22.054  0.00  0.00    +0.000 OA
ATOM     27  O   UNL     1      -6.301  11.953  24.250  0.00  0.00    +0.000 OA
ENDBRANCH  22  24
ENDBRANCH  20  22
ENDBRANCH  15  16
ENDBRANCH  12  15
ENDBRANCH   1  13
BRANCH   9  28
ATOM     28  O   UNL     1       2.357  16.800  19.162  0.00  0.00    +0.000 OA
ATOM     29  H   UNL     1       3.282  16.791  18.864  0.00  0.00    +0.000 HD
ENDBRANCH   9  28
BRANCH   4  30
ATOM     30  C   UNL     1      -0.350  10.916  19.420  0.00  0.00    +0.000 C 
BRANCH  30  31
ATOM     31  C   UNL     1      -1.584  10.825  18.570  0.00  0.00    +0.000 A 
ATOM     32  C   UNL     1      -1.585  10.072  17.386  0.00  0.00    +0.000 A 
ATOM     33  C   UNL     1      -2.736   9.978  16.604  0.00  0.00    +0.000 A 
ATOM     34  C   UNL     1      -3.886  10.671  16.976  0.00  0.00    +0.000 A 
ATOM     35  C   UNL     1      -3.887  11.439  18.138  0.00  0.00    +0.000 A 
ATOM     36 CL   UNL     1      -5.262  12.396  18.532  0.00  0.00    +0.000 Cl
ATOM     37  C   UNL     1      -2.761  11.483  18.958  0.00  0.00    +0.000 A 
ENDBRANCH  30  31
ENDBRANCH   4  30
TORSDOF 8
ENDMDL
MODEL 3
REMARK VINA RESULT:      -7.1      5.720      8.227
REMARK  Name = 
REMARK  10 active torsions:
REMARK  status: ('A' for Active; 'I' for Inactive)
REMARK    1  A    between atoms: C_1  and  N_2
REMARK    2  A    between atoms: N_2  and  C_3
REMARK    3  A    between atoms: C_3  and  C_4
REMARK    4  A    between atoms: C_8  and  N_9
REMARK    5  A    between atoms: N_9  and  S_10
REMARK    6  A    between atoms: S_10  and  C_11
REMARK    7  A    between atoms: C_15  and  C_17
REMARK    8  A    between atoms: C_20  and  C_21
REMARK    9  A    between atoms: C_21  and  C_22
REMARK   10  A    between atoms: C_33  and  O_34
REMARK                            x       y       z     vdW  Elec       q    Type
REMARK                         _______ _______ _______ _____ _____    ______ ____
ROOT
ATOM      1  C   UNL     1       0.862   9.375  19.578  0.00  0.00    +0.000 A 
ATOM      2  C   UNL     1       1.831   8.604  18.908  0.00  0.00    +0.000 A 
ATOM      3  C   UNL     1       2.204   7.366  19.453  0.00  0.00    +0.000 A 
ATOM      4  C   UNL     1       2.734   6.155  18.930  0.00  0.00    +0.000 A 
ATOM      5  N   UNL     1       2.872   5.224  19.888  0.00  0.00    +0.000 NA
ATOM      6  N   UNL     1       2.360   5.811  20.984  0.00  0.00    +0.000 N 
ATOM      7  C   UNL     1       1.833   7.052  20.753  0.00  0.00    +0.000 A 
ATOM      8  C   UNL     1       0.997   7.864  21.517  0.00  0.00    +0.000 A 
ATOM      9  C   UNL     1       0.438   8.965  20.851  0.00  0.00    +0.000 A 
ATOM     10  H   UNL     1       2.291   5.259  21.831  0.00  0.00    +0.000 HD
ENDROOT
BRANCH   1  13
ATOM     11  C   UNL     1      -0.585  12.668  18.226  0.00  0.00    +0.000 C 
ATOM     12  N   UNL     1       0.174  11.780  19.099  0.00  0.00    +0.000 N 
ATOM     13  C   UNL     1       0.216  10.433  18.737  0.00  0.00    +0.000 C 
ATOM     14  O   UNL     1      -0.302  10.047  17.682  0.00  0.00    +0.000 OA
BRANCH  12  15
ATOM     15  C   UNL     1       1.149  12.419  19.972  0.00  0.00    +0.000 C 
BRANCH  15  16
ATOM     16  C   UNL     1       0.567  13.324  21.042  0.00  0.00    +0.000 A 
ATOM     17  C   UNL     1       0.853  14.697  21.138  0.00  0.00    +0.000 A 
ATOM     18  C   UNL     1       0.281  15.472  22.148  0.00  0.00    +0.000 A 
ATOM     19  C   UNL     1      -0.615  14.904  23.049  0.00  0.00    +0.000 A 
ATOM     20  C   UNL     1      -0.960  13.563  22.914  0.00  0.00    +0.000 A 
ATOM     21  C   UNL     1      -0.359  12.771  21.939  0.00  0.00    +0.000 A 
BRANCH  20  22
ATOM     22  N   UNL     1      -1.924  12.977  23.783  0.00  0.00    +0.000 N 
ATOM     23  H   UNL     1      -1.692  12.039  24.108  0.00  0.00    +0.000 HD
BRANCH  22  24
ATOM     24  S   UNL     1      -3.551  13.034  23.345  0.00  0.00    +0.000 S 
ATOM     25  C   UNL     1      -4.062  14.578  24.066  0.00  0.00    +0.000 C 
ATOM     26  O   UNL     1      -3.680  13.116  21.914  0.00  0.00    +0.000 OA
ATOM     27  O   UNL     1      -4.183  11.972  24.101  0.00  0.00    +0.000 OA
ENDBRANCH  22  24
ENDBRANCH  20  22
ENDBRANCH  15  16
ENDBRANCH  12  15
ENDBRANCH   1  13
BRANCH   9  28
ATOM     28  O   UNL     1      -0.639   9.545  21.455  0.00  0.00    +0.000 OA
ATOM     29  H   UNL     1      -0.519   9.512  22.419  0.00  0.00    +0.000 HD
ENDBRANCH   9  28
BRANCH   4  30
ATOM     30  C   UNL     1       2.849   5.795  17.482  0.00  0.00    +0.000 C 
BRANCH  30  31
ATOM     31  C   UNL     1       4.305   5.613  17.163  0.00  0.00    +0.000 A 
ATOM     32  C   UNL     1       4.778   4.401  16.638  0.00  0.00    +0.000 A 
ATOM     33  C   UNL     1       6.129   4.238  16.332  0.00  0.00    +0.000 A 
ATOM     34  C   UNL     1       7.028   5.272  16.586  0.00  0.00    +0.000 A 
ATOM     35  C   UNL     1       6.570   6.471  17.128  0.00  0.00    +0.000 A 
ATOM     36 CL   UNL     1       7.694   7.700  17.561  0.00  0.00    +0.000 Cl
ATOM     37  C   UNL     1       5.212   6.663  17.374  0.00  0.00    +0.000 A 
ENDBRANCH  30  31
ENDBRANCH   4  30
TORSDOF 8
ENDMDL
MODEL 4
REMARK VINA RESULT:      -7.0      6.719      8.951
REMARK  Name = 
REMARK  10 active torsions:
REMARK  status: ('A' for Active; 'I' for Inactive)
REMARK    1  A    between atoms: C_1  and  N_2
REMARK    2  A    between atoms: N_2  and  C_3
REMARK    3  A    between atoms: C_3  and  C_4
REMARK    4  A    between atoms: C_8  and  N_9
REMARK    5  A    between atoms: N_9  and  S_10
REMARK    6  A    between atoms: S_10  and  C_11
REMARK    7  A    between atoms: C_15  and  C_17
REMARK    8  A    between atoms: C_20  and  C_21
REMARK    9  A    between atoms: C_21  and  C_22
REMARK   10  A    between atoms: C_33  and  O_34
REMARK                            x       y       z     vdW  Elec       q    Type
REMARK                         _______ _______ _______ _____ _____    ______ ____
ROOT
ATOM      1  C   UNL     1       0.717   9.296  20.476  0.00  0.00    +0.000 A 
ATOM      2  C   UNL     1      -0.457  10.005  20.158  0.00  0.00    +0.000 A 
ATOM      3  C   UNL     1      -1.102  10.732  21.169  0.00  0.00    +0.000 A 
ATOM      4  C   UNL     1      -1.957  11.868  21.203  0.00  0.00    +0.000 A 
ATOM      5  N   UNL     1      -2.271  12.211  22.463  0.00  0.00    +0.000 NA
ATOM      6  N   UNL     1      -1.558  11.355  23.216  0.00  0.00    +0.000 N 
ATOM      7  C   UNL     1      -0.744  10.525  22.494  0.00  0.00    +0.000 A 
ATOM      8  C   UNL     1       0.318   9.706  22.871  0.00  0.00    +0.000 A 
ATOM      9  C   UNL     1       1.099   9.197  21.822  0.00  0.00    +0.000 A 
ATOM     10  H   UNL     1      -1.581  11.475  24.222  0.00  0.00    +0.000 HD
ENDROOT
BRANCH   1  13
ATOM     11  C   UNL     1       3.079   7.524  18.017  0.00  0.00    +0.000 C 
ATOM     12  N   UNL     1       2.210   7.693  19.175  0.00  0.00    +0.000 N 
ATOM     13  C   UNL     1       1.560   8.923  19.296  0.00  0.00    +0.000 C 
ATOM     14  O   UNL     1       1.668   9.781  18.412  0.00  0.00    +0.000 OA
BRANCH  12  15
ATOM     15  C   UNL     1       1.761   6.469  19.823  0.00  0.00    +0.000 C 
BRANCH  15  16
ATOM     16  C   UNL     1       2.627   5.248  19.576  0.00  0.00    +0.000 A 
ATOM     17  C   UNL     1       2.108   3.963  19.336  0.00  0.00    +0.000 A 
ATOM     18  C   UNL     1       2.964   2.883  19.114  0.00  0.00    +0.000 A 
ATOM     19  C   UNL     1       4.342   3.072  19.084  0.00  0.00    +0.000 A 
ATOM     20  C   UNL     1       4.859   4.352  19.247  0.00  0.00    +0.000 A 
ATOM     21  C   UNL     1       4.016   5.428  19.516  0.00  0.00    +0.000 A 
BRANCH  20  22
ATOM     22  N   UNL     1       6.261   4.580  19.155  0.00  0.00    +0.000 N 
ATOM     23  H   UNL     1       6.638   5.220  19.853  0.00  0.00    +0.000 HD
BRANCH  22  24
ATOM     24  S   UNL     1       6.928   4.939  17.648  0.00  0.00    +0.000 S 
ATOM     25  C   UNL     1       7.307   6.669  17.829  0.00  0.00    +0.000 C 
ATOM     26  O   UNL     1       8.152   4.206  17.457  0.00  0.00    +0.000 OA
ATOM     27  O   UNL     1       5.829   4.831  16.712  0.00  0.00    +0.000 OA
ENDBRANCH  22  24
ENDBRANCH  20  22
ENDBRANCH  15  16
ENDBRANCH  12  15
ENDBRANCH   1  13
BRANCH   9  28
ATOM     28  O   UNL     1       2.324   8.709  22.173  0.00  0.00    +0.000 OA
ATOM     29  H   UNL     1       2.313   8.466  23.114  0.00  0.00    +0.000 HD
ENDBRANCH   9  28
BRANCH   4  30
ATOM     30  C   UNL     1      -2.250  12.785  20.057  0.00  0.00    +0.000 C 
BRANCH  30  31
ATOM     31  C   UNL     1      -3.433  12.236  19.313  0.00  0.00    +0.000 A 
ATOM     32  C   UNL     1      -3.259  11.512  18.124  0.00  0.00    +0.000 A 
ATOM     33  C   UNL     1      -4.357  10.991  17.441  0.00  0.00    +0.000 A 
ATOM     34  C   UNL     1      -5.646  11.225  17.919  0.00  0.00    +0.000 A 
ATOM     35  C   UNL     1      -5.828  11.962  19.086  0.00  0.00    +0.000 A 
ATOM     36 CL   UNL     1      -7.419  12.360  19.608  0.00  0.00    +0.000 Cl
ATOM     37  C   UNL     1      -4.731  12.428  19.808  0.00  0.00    +0.000 A 
ENDBRANCH  30  31
ENDBRANCH   4  30
TORSDOF 8
ENDMDL
MODEL 5
REMARK VINA RESULT:      -7.0      6.016      8.570
REMARK  Name = 
REMARK  10 active torsions:
REMARK  status: ('A' for Active; 'I' for Inactive)
REMARK    1  A    between atoms: C_1  and  N_2
REMARK    2  A    between atoms: N_2  and  C_3
REMARK    3  A    between atoms: C_3  and  C_4
REMARK    4  A    between atoms: C_8  and  N_9
REMARK    5  A    between atoms: N_9  and  S_10
REMARK    6  A    between atoms: S_10  and  C_11
REMARK    7  A    between atoms: C_15  and  C_17
REMARK    8  A    between atoms: C_20  and  C_21
REMARK    9  A    between atoms: C_21  and  C_22
REMARK   10  A    between atoms: C_33  and  O_34
REMARK                            x       y       z     vdW  Elec       q    Type
REMARK                         _______ _______ _______ _____ _____    ______ ____
ROOT
ATOM      1  C   UNL     1       0.805   9.552  19.556  0.00  0.00    +0.000 A 
ATOM      2  C   UNL     1       1.767   8.768  18.891  0.00  0.00    +0.000 A 
ATOM      3  C   UNL     1       2.151   7.544  19.460  0.00  0.00    +0.000 A 
ATOM      4  C   UNL     1       2.677   6.322  18.958  0.00  0.00    +0.000 A 
ATOM      5  N   UNL     1       2.830   5.414  19.936  0.00  0.00    +0.000 NA
ATOM      6  N   UNL     1       2.332   6.026  21.025  0.00  0.00    +0.000 N 
ATOM      7  C   UNL     1       1.798   7.260  20.772  0.00  0.00    +0.000 A 
ATOM      8  C   UNL     1       0.970   8.088  21.528  0.00  0.00    +0.000 A 
ATOM      9  C   UNL     1       0.400   9.172  20.843  0.00  0.00    +0.000 A 
ATOM     10  H   UNL     1       2.275   5.493  21.885  0.00  0.00    +0.000 HD
ENDROOT
BRANCH   1  13
ATOM     11  C   UNL     1      -0.670  12.809  18.148  0.00  0.00    +0.000 C 
ATOM     12  N   UNL     1       0.102  11.944  19.032  0.00  0.00    +0.000 N 
ATOM     13  C   UNL     1       0.145  10.589  18.699  0.00  0.00    +0.000 C 
ATOM     14  O   UNL     1      -0.383  10.178  17.659  0.00  0.00    +0.000 OA
BRANCH  12  15
ATOM     15  C   UNL     1       1.084  12.606  19.879  0.00  0.00    +0.000 C 
BRANCH  15  16
ATOM     16  C   UNL     1       1.657  13.896  19.323  0.00  0.00    +0.000 A 
ATOM     17  C   UNL     1       1.040  15.150  19.478  0.00  0.00    +0.000 A 
ATOM     18  C   UNL     1       1.625  16.298  18.941  0.00  0.00    +0.000 A 
ATOM     19  C   UNL     1       2.847  16.223  18.281  0.00  0.00    +0.000 A 
ATOM     20  C   UNL     1       3.498  14.998  18.188  0.00  0.00    +0.000 A 
ATOM     21  C   UNL     1       2.902  13.839  18.680  0.00  0.00    +0.000 A 
BRANCH  20  22
ATOM     22  N   UNL     1       4.780  14.908  17.576  0.00  0.00    +0.000 N 
ATOM     23  H   UNL     1       4.915  14.088  16.984  0.00  0.00    +0.000 HD
BRANCH  22  24
ATOM     24  S   UNL     1       6.152  15.146  18.526  0.00  0.00    +0.000 S 
ATOM     25  C   UNL     1       6.303  16.919  18.498  0.00  0.00    +0.000 C 
ATOM     26  O   UNL     1       5.904  14.716  19.877  0.00  0.00    +0.000 OA
ATOM     27  O   UNL     1       7.249  14.605  17.750  0.00  0.00    +0.000 OA
ENDBRANCH  22  24
ENDBRANCH  20  22
ENDBRANCH  15  16
ENDBRANCH  12  15
ENDBRANCH   1  13
BRANCH   9  28
ATOM     28  O   UNL     1      -0.670   9.764  21.449  0.00  0.00    +0.000 OA
ATOM     29  H   UNL     1      -0.439  10.680  21.679  0.00  0.00    +0.000 HD
ENDBRANCH   9  28
BRANCH   4  30
ATOM     30  C   UNL     1       2.773   5.929  17.517  0.00  0.00    +0.000 C 
BRANCH  30  31
ATOM     31  C   UNL     1       4.222   5.700  17.195  0.00  0.00    +0.000 A 
ATOM     32  C   UNL     1       4.656   4.470  16.680  0.00  0.00    +0.000 A 
ATOM     33  C   UNL     1       5.999   4.263  16.369  0.00  0.00    +0.000 A 
ATOM     34  C   UNL     1       6.930   5.273  16.610  0.00  0.00    +0.000 A 
ATOM     35  C   UNL     1       6.510   6.490  17.142  0.00  0.00    +0.000 A 
ATOM     36 CL   UNL     1       7.673   7.689  17.558  0.00  0.00    +0.000 Cl
ATOM     37  C   UNL     1       5.160   6.724  17.392  0.00  0.00    +0.000 A 
ENDBRANCH  30  31
ENDBRANCH   4  30
TORSDOF 8
ENDMDL
MODEL 6
REMARK VINA RESULT:      -7.0      9.441     12.494
REMARK  Name = 
REMARK  10 active torsions:
REMARK  status: ('A' for Active; 'I' for Inactive)
REMARK    1  A    between atoms: C_1  and  N_2
REMARK    2  A    between atoms: N_2  and  C_3
REMARK    3  A    between atoms: C_3  and  C_4
REMARK    4  A    between atoms: C_8  and  N_9
REMARK    5  A    between atoms: N_9  and  S_10
REMARK    6  A    between atoms: S_10  and  C_11
REMARK    7  A    between atoms: C_15  and  C_17
REMARK    8  A    between atoms: C_20  and  C_21
REMARK    9  A    between atoms: C_21  and  C_22
REMARK   10  A    between atoms: C_33  and  O_34
REMARK                            x       y       z     vdW  Elec       q    Type
REMARK                         _______ _______ _______ _____ _____    ______ ____
ROOT
ATOM      1  C   UNL     1       4.260   4.559  17.955  0.00  0.00    +0.000 A 
ATOM      2  C   UNL     1       4.343   4.929  16.599  0.00  0.00    +0.000 A 
ATOM      3  C   UNL     1       5.586   4.852  15.953  0.00  0.00    +0.000 A 
ATOM      4  C   UNL     1       6.011   4.683  14.606  0.00  0.00    +0.000 A 
ATOM      5  N   UNL     1       7.349   4.623  14.516  0.00  0.00    +0.000 NA
ATOM      6  N   UNL     1       7.760   4.671  15.796  0.00  0.00    +0.000 N 
ATOM      7  C   UNL     1       6.738   4.685  16.706  0.00  0.00    +0.000 A 
ATOM      8  C   UNL     1       6.717   4.470  18.083  0.00  0.00    +0.000 A 
ATOM      9  C   UNL     1       5.447   4.300  18.655  0.00  0.00    +0.000 A 
ATOM     10  H   UNL     1       8.751   4.566  15.982  0.00  0.00    +0.000 HD
ENDROOT
BRANCH   1  13
ATOM     11  C   UNL     1       1.020   4.291  20.003  0.00  0.00    +0.000 C 
ATOM     12  N   UNL     1       2.344   4.767  19.620  0.00  0.00    +0.000 N 
ATOM     13  C   UNL     1       2.874   4.255  18.435  0.00  0.00    +0.000 C 
ATOM     14  O   UNL     1       2.205   3.499  17.720  0.00  0.00    +0.000 OA
BRANCH  12  15
ATOM     15  C   UNL     1       2.779   6.014  20.235  0.00  0.00    +0.000 C 
BRANCH  15  16
ATOM     16  C   UNL     1       2.226   7.277  19.602  0.00  0.00    +0.000 A 
ATOM     17  C   UNL     1       2.612   7.742  18.332  0.00  0.00    +0.000 A 
ATOM     18  C   UNL     1       2.061   8.913  17.808  0.00  0.00    +0.000 A 
ATOM     19  C   UNL     1       1.091   9.613  18.519  0.00  0.00    +0.000 A 
ATOM     20  C   UNL     1       0.651   9.119  19.742  0.00  0.00    +0.000 A 
ATOM     21  C   UNL     1       1.228   7.977  20.294  0.00  0.00    +0.000 A 
BRANCH  20  22
ATOM     22  N   UNL     1      -0.387   9.782  20.455  0.00  0.00    +0.000 N 
ATOM     23  H   UNL     1      -1.233   9.958  19.914  0.00  0.00    +0.000 HD
BRANCH  22  24
ATOM     24  S   UNL     1      -0.003  11.153  21.358  0.00  0.00    +0.000 S 
ATOM     25  C   UNL     1      -0.836  10.814  22.894  0.00  0.00    +0.000 C 
ATOM     26  O   UNL     1       1.415  11.214  21.595  0.00  0.00    +0.000 OA
ATOM     27  O   UNL     1      -0.708  12.241  20.713  0.00  0.00    +0.000 OA
ENDBRANCH  22  24
ENDBRANCH  20  22
ENDBRANCH  15  16
ENDBRANCH  12  15
ENDBRANCH   1  13
BRANCH   9  28
ATOM     28  O   UNL     1       5.423   3.739  19.899  0.00  0.00    +0.000 OA
ATOM     29  H   UNL     1       4.556   3.905  20.306  0.00  0.00    +0.000 HD
ENDBRANCH   9  28
BRANCH   4  30
ATOM     30  C   UNL     1       5.141   4.305  13.448  0.00  0.00    +0.000 C 
BRANCH  30  31
ATOM     31  C   UNL     1       5.954   3.450  12.518  0.00  0.00    +0.000 A 
ATOM     32  C   UNL     1       7.044   3.988  11.819  0.00  0.00    +0.000 A 
ATOM     33  C   UNL     1       7.805   3.190  10.965  0.00  0.00    +0.000 A 
ATOM     34  C   UNL     1       7.457   1.854  10.771  0.00  0.00    +0.000 A 
ATOM     35  C   UNL     1       6.362   1.318  11.445  0.00  0.00    +0.000 A 
ATOM     36 CL   UNL     1       5.854  -0.292  11.110  0.00  0.00    +0.000 Cl
ATOM     37  C   UNL     1       5.639   2.093  12.349  0.00  0.00    +0.000 A 
ENDBRANCH  30  31
ENDBRANCH   4  30
TORSDOF 8
ENDMDL
MODEL 7
REMARK VINA RESULT:      -6.9      5.560      8.091
REMARK  Name = 
REMARK  10 active torsions:
REMARK  status: ('A' for Active; 'I' for Inactive)
REMARK    1  A    between atoms: C_1  and  N_2
REMARK    2  A    between atoms: N_2  and  C_3
REMARK    3  A    between atoms: C_3  and  C_4
REMARK    4  A    between atoms: C_8  and  N_9
REMARK    5  A    between atoms: N_9  and  S_10
REMARK    6  A    between atoms: S_10  and  C_11
REMARK    7  A    between atoms: C_15  and  C_17
REMARK    8  A    between atoms: C_20  and  C_21
REMARK    9  A    between atoms: C_21  and  C_22
REMARK   10  A    between atoms: C_33  and  O_34
REMARK                            x       y       z     vdW  Elec       q    Type
REMARK                         _______ _______ _______ _____ _____    ______ ____
ROOT
ATOM      1  C   UNL     1       0.784   9.579  19.587  0.00  0.00    +0.000 A 
ATOM      2  C   UNL     1       1.739   8.786  18.922  0.00  0.00    +0.000 A 
ATOM      3  C   UNL     1       2.109   7.558  19.490  0.00  0.00    +0.000 A 
ATOM      4  C   UNL     1       2.623   6.331  18.987  0.00  0.00    +0.000 A 
ATOM      5  N   UNL     1       2.766   5.420  19.963  0.00  0.00    +0.000 NA
ATOM      6  N   UNL     1       2.271   6.035  21.052  0.00  0.00    +0.000 N 
ATOM      7  C   UNL     1       1.751   7.275  20.800  0.00  0.00    +0.000 A 
ATOM      8  C   UNL     1       0.930   8.110  21.557  0.00  0.00    +0.000 A 
ATOM      9  C   UNL     1       0.373   9.201  20.873  0.00  0.00    +0.000 A 
ATOM     10  H   UNL     1       2.208   5.502  21.912  0.00  0.00    +0.000 HD
ENDROOT
BRANCH   1  13
ATOM     11  C   UNL     1      -0.554  12.874  18.131  0.00  0.00    +0.000 C 
ATOM     12  N   UNL     1       0.220  11.992  18.996  0.00  0.00    +0.000 N 
ATOM     13  C   UNL     1       0.136  10.624  18.731  0.00  0.00    +0.000 C 
ATOM     14  O   UNL     1      -0.503  10.209  17.757  0.00  0.00    +0.000 OA
BRANCH  12  15
ATOM     15  C   UNL     1       1.314  12.614  19.730  0.00  0.00    +0.000 C 
BRANCH  15  16
ATOM     16  C   UNL     1       0.912  13.745  20.658  0.00  0.00    +0.000 A 
ATOM     17  C   UNL     1       1.236  15.093  20.425  0.00  0.00    +0.000 A 
ATOM     18  C   UNL     1       0.832  16.085  21.321  0.00  0.00    +0.000 A 
ATOM     19  C   UNL     1       0.066  15.756  22.436  0.00  0.00    +0.000 A 
ATOM     20  C   UNL     1      -0.320  14.435  22.633  0.00  0.00    +0.000 A 
ATOM     21  C   UNL     1       0.117  13.432  21.770  0.00  0.00    +0.000 A 
BRANCH  20  22
ATOM     22  N   UNL     1      -1.158  14.087  23.729  0.00  0.00    +0.000 N 
ATOM     23  H   UNL     1      -0.829  13.298  24.285  0.00  0.00    +0.000 HD
BRANCH  22  24
ATOM     24  S   UNL     1      -2.817  13.935  23.468  0.00  0.00    +0.000 S 
ATOM     25  C   UNL     1      -2.994  12.172  23.305  0.00  0.00    +0.000 C 
ATOM     26  O   UNL     1      -3.547  14.377  24.627  0.00  0.00    +0.000 OA
ATOM     27  O   UNL     1      -3.049  14.517  22.162  0.00  0.00    +0.000 OA
ENDBRANCH  22  24
ENDBRANCH  20  22
ENDBRANCH  15  16
ENDBRANCH  12  15
ENDBRANCH   1  13
BRANCH   9  28
ATOM     28  O   UNL     1      -0.693   9.803  21.478  0.00  0.00    +0.000 OA
ATOM     29  H   UNL     1      -1.066  10.469  20.876  0.00  0.00    +0.000 HD
ENDBRANCH   9  28
BRANCH   4  30
ATOM     30  C   UNL     1       2.717   5.940  17.545  0.00  0.00    +0.000 C 
BRANCH  30  31
ATOM     31  C   UNL     1       4.165   5.706  17.222  0.00  0.00    +0.000 A 
ATOM     32  C   UNL     1       4.598   4.466  16.727  0.00  0.00    +0.000 A 
ATOM     33  C   UNL     1       5.941   4.254  16.417  0.00  0.00    +0.000 A 
ATOM     34  C   UNL     1       6.872   5.268  16.637  0.00  0.00    +0.000 A 
ATOM     35  C   UNL     1       6.454   6.494  17.149  0.00  0.00    +0.000 A 
ATOM     36 CL   UNL     1       7.617   7.700  17.541  0.00  0.00    +0.000 Cl
ATOM     37  C   UNL     1       5.104   6.733  17.399  0.00  0.00    +0.000 A 
ENDBRANCH  30  31
ENDBRANCH   4  30
TORSDOF 8
ENDMDL
MODEL 8
REMARK VINA RESULT:      -6.9      6.620      9.308
REMARK  Name = 
REMARK  10 active torsions:
REMARK  status: ('A' for Active; 'I' for Inactive)
REMARK    1  A    between atoms: C_1  and  N_2
REMARK    2  A    between atoms: N_2  and  C_3
REMARK    3  A    between atoms: C_3  and  C_4
REMARK    4  A    between atoms: C_8  and  N_9
REMARK    5  A    between atoms: N_9  and  S_10
REMARK    6  A    between atoms: S_10  and  C_11
REMARK    7  A    between atoms: C_15  and  C_17
REMARK    8  A    between atoms: C_20  and  C_21
REMARK    9  A    between atoms: C_21  and  C_22
REMARK   10  A    between atoms: C_33  and  O_34
REMARK                            x       y       z     vdW  Elec       q    Type
REMARK                         _______ _______ _______ _____ _____    ______ ____
ROOT
ATOM      1  C   UNL     1       0.698   9.369  20.241  0.00  0.00    +0.000 A 
ATOM      2  C   UNL     1      -0.412  10.198  19.988  0.00  0.00    +0.000 A 
ATOM      3  C   UNL     1      -1.039  10.835  21.069  0.00  0.00    +0.000 A 
ATOM      4  C   UNL     1      -1.813  12.017  21.229  0.00  0.00    +0.000 A 
ATOM      5  N   UNL     1      -2.147  12.217  22.514  0.00  0.00    +0.000 NA
ATOM      6  N   UNL     1      -1.523  11.221  23.167  0.00  0.00    +0.000 N 
ATOM      7  C   UNL     1      -0.744  10.433  22.364  0.00  0.00    +0.000 A 
ATOM      8  C   UNL     1       0.244   9.495  22.658  0.00  0.00    +0.000 A 
ATOM      9  C   UNL     1       1.024   9.069  21.572  0.00  0.00    +0.000 A 
ATOM     10  H   UNL     1      -1.574  11.211  24.179  0.00  0.00    +0.000 HD
ENDROOT
BRANCH   1  13
ATOM     11  C   UNL     1       3.173   7.850  17.725  0.00  0.00    +0.000 C 
ATOM     12  N   UNL     1       2.309   7.925  18.896  0.00  0.00    +0.000 N 
ATOM     13  C   UNL     1       1.555   9.090  19.044  0.00  0.00    +0.000 C 
ATOM     14  O   UNL     1       1.573   9.967  18.173  0.00  0.00    +0.000 OA
BRANCH  12  15
ATOM     15  C   UNL     1       1.979   6.656  19.531  0.00  0.00    +0.000 C 
BRANCH  15  16
ATOM     16  C   UNL     1       2.567   5.426  18.866  0.00  0.00    +0.000 A 
ATOM     17  C   UNL     1       1.816   4.538  18.074  0.00  0.00    +0.000 A 
ATOM     18  C   UNL     1       2.422   3.425  17.489  0.00  0.00    +0.000 A 
ATOM     19  C   UNL     1       3.787   3.201  17.647  0.00  0.00    +0.000 A 
ATOM     20  C   UNL     1       4.548   4.115  18.367  0.00  0.00    +0.000 A 
ATOM     21  C   UNL     1       3.946   5.204  18.993  0.00  0.00    +0.000 A 
BRANCH  20  22
ATOM     22  N   UNL     1       5.956   3.943  18.486  0.00  0.00    +0.000 N 
ATOM     23  H   UNL     1       6.313   3.977  19.441  0.00  0.00    +0.000 HD
BRANCH  22  24
ATOM     24  S   UNL     1       6.972   4.834  17.477  0.00  0.00    +0.000 S 
ATOM     25  C   UNL     1       7.306   6.265  18.481  0.00  0.00    +0.000 C 
ATOM     26  O   UNL     1       8.201   4.120  17.251  0.00  0.00    +0.000 OA
ATOM     27  O   UNL     1       6.132   5.261  16.377  0.00  0.00    +0.000 OA
ENDBRANCH  22  24
ENDBRANCH  20  22
ENDBRANCH  15  16
ENDBRANCH  12  15
ENDBRANCH   1  13
BRANCH   9  28
ATOM     28  O   UNL     1       2.199   8.451  21.887  0.00  0.00    +0.000 OA
ATOM     29  H   UNL     1       2.390   7.771  21.219  0.00  0.00    +0.000 HD
ENDBRANCH   9  28
BRANCH   4  30
ATOM     30  C   UNL     1      -2.000  13.094  20.206  0.00  0.00    +0.000 C 
BRANCH  30  31
ATOM     31  C   UNL     1      -0.764  13.948  20.201  0.00  0.00    +0.000 A 
ATOM     32  C   UNL     1      -0.644  15.040  21.074  0.00  0.00    +0.000 A 
ATOM     33  C   UNL     1       0.509  15.824  21.076  0.00  0.00    +0.000 A 
ATOM     34  C   UNL     1       1.537  15.550  20.176  0.00  0.00    +0.000 A 
ATOM     35  C   UNL     1       1.416  14.481  19.291  0.00  0.00    +0.000 A 
ATOM     36 CL   UNL     1       2.625  14.218  18.095  0.00  0.00    +0.000 Cl
ATOM     37  C   UNL     1       0.295  13.654  19.329  0.00  0.00    +0.000 A 
ENDBRANCH  30  31
ENDBRANCH   4  30
TORSDOF 8
ENDMDL
MODEL 9
REMARK VINA RESULT:      -6.8      5.275      8.174
REMARK  Name = 
REMARK  10 active torsions:
REMARK  status: ('A' for Active; 'I' for Inactive)
REMARK    1  A    between atoms: C_1  and  N_2
REMARK    2  A    between atoms: N_2  and  C_3
REMARK    3  A    between atoms: C_3  and  C_4
REMARK    4  A    between atoms: C_8  and  N_9
REMARK    5  A    between atoms: N_9  and  S_10
REMARK    6  A    between atoms: S_10  and  C_11
REMARK    7  A    between atoms: C_15  and  C_17
REMARK    8  A    between atoms: C_20  and  C_21
REMARK    9  A    between atoms: C_21  and  C_22
REMARK   10  A    between atoms: C_33  and  O_34
REMARK                            x       y       z     vdW  Elec       q    Type
REMARK                         _______ _______ _______ _____ _____    ______ ____
ROOT
ATOM      1  C   UNL     1       0.807  10.534  20.357  0.00  0.00    +0.000 A 
ATOM      2  C   UNL     1       1.732   9.759  19.632  0.00  0.00    +0.000 A 
ATOM      3  C   UNL     1       1.863   8.397  19.944  0.00  0.00    +0.000 A 
ATOM      4  C   UNL     1       2.278   7.238  19.232  0.00  0.00    +0.000 A 
ATOM      5  N   UNL     1       2.171   6.132  19.987  0.00  0.00    +0.000 NA
ATOM      6  N   UNL     1       1.619   6.576  21.131  0.00  0.00    +0.000 N 
ATOM      7  C   UNL     1       1.300   7.906  21.113  0.00  0.00    +0.000 A 
ATOM      8  C   UNL     1       0.500   8.682  21.951  0.00  0.00    +0.000 A 
ATOM      9  C   UNL     1       0.183   9.964  21.477  0.00  0.00    +0.000 A 
ATOM     10  H   UNL     1       1.374   5.892  21.837  0.00  0.00    +0.000 HD
ENDROOT
BRANCH   1  13
ATOM     11  C   UNL     1      -0.642  13.208  18.010  0.00  0.00    +0.000 C 
ATOM     12  N   UNL     1      -0.448  11.892  18.606  0.00  0.00    +0.000 N 
ATOM     13  C   UNL     1       0.419  11.821  19.698  0.00  0.00    +0.000 C 
ATOM     14  O   UNL     1       0.922  12.847  20.170  0.00  0.00    +0.000 OA
BRANCH  12  15
ATOM     15  C   UNL     1      -1.473  10.899  18.314  0.00  0.00    +0.000 C 
BRANCH  15  16
ATOM     16  C   UNL     1      -2.895  11.426  18.278  0.00  0.00    +0.000 A 
ATOM     17  C   UNL     1      -3.738  11.311  17.158  0.00  0.00    +0.000 A 
ATOM     18  C   UNL     1      -5.038  11.818  17.194  0.00  0.00    +0.000 A 
ATOM     19  C   UNL     1      -5.532  12.406  18.355  0.00  0.00    +0.000 A 
ATOM     20  C   UNL     1      -4.730  12.457  19.489  0.00  0.00    +0.000 A 
ATOM     21  C   UNL     1      -3.416  11.996  19.449  0.00  0.00    +0.000 A 
BRANCH  20  22
ATOM     22  N   UNL     1      -5.237  12.994  20.706  0.00  0.00    +0.000 N 
ATOM     23  H   UNL     1      -4.529  13.197  21.412  0.00  0.00    +0.000 HD
BRANCH  22  24
ATOM     24  S   UNL     1      -6.557  12.242  21.437  0.00  0.00    +0.000 S 
ATOM     25  C   UNL     1      -7.879  13.359  21.021  0.00  0.00    +0.000 C 
ATOM     26  O   UNL     1      -6.808  10.966  20.822  0.00  0.00    +0.000 OA
ATOM     27  O   UNL     1      -6.320  12.362  22.861  0.00  0.00    +0.000 OA
ENDBRANCH  22  24
ENDBRANCH  20  22
ENDBRANCH  15  16
ENDBRANCH  12  15
ENDBRANCH   1  13
BRANCH   9  28
ATOM     28  O   UNL     1      -0.867  10.584  22.090  0.00  0.00    +0.000 OA
ATOM     29  H   UNL     1      -0.972  10.220  22.985  0.00  0.00    +0.000 HD
ENDBRANCH   9  28
BRANCH   4  30
ATOM     30  C   UNL     1       2.513   7.145  17.757  0.00  0.00    +0.000 C 
BRANCH  30  31
ATOM     31  C   UNL     1       3.805   6.413  17.538  0.00  0.00    +0.000 A 
ATOM     32  C   UNL     1       3.815   5.029  17.310  0.00  0.00    +0.000 A 
ATOM     33  C   UNL     1       5.015   4.352  17.095  0.00  0.00    +0.000 A 
ATOM     34  C   UNL     1       6.222   5.046  17.147  0.00  0.00    +0.000 A 
ATOM     35  C   UNL     1       6.223   6.417  17.395  0.00  0.00    +0.000 A 
ATOM     36 CL   UNL     1       7.715   7.252  17.586  0.00  0.00    +0.000 Cl
ATOM     37  C   UNL     1       5.023   7.109  17.545  0.00  0.00    +0.000 A 
ENDBRANCH  30  31
ENDBRANCH   4  30
TORSDOF 8
ENDMDL
