MODEL 1
REMARK VINA RESULT:      -7.7      0.000      0.000
REMARK  Name = 
REMARK  12 active torsions:
REMARK  status: ('A' for Active; 'I' for Inactive)
REMARK    1  A    between atoms: C_1  and  C_2
REMARK    2  A    between atoms: C_2  and  O_3
REMARK    3  A    between atoms: O_3  and  C_4
REMARK    4  A    between atoms: C_7  and  C_8
REMARK    5  A    between atoms: C_8  and  C_9
REMARK    6  A    between atoms: C_9  and  N_10
REMARK    7  A    between atoms: C_11  and  C_13
REMARK    8  A    between atoms: C_14  and  C_15
REMARK    9  A    between atoms: N_20  and  C_21
REMARK   10  A    between atoms: C_21  and  C_22
REMARK   11  A    between atoms: C_22  and  C_23
REMARK   12  A    between atoms: C_22  and  C_24
REMARK                            x       y       z     vdW  Elec       q    Type
REMARK                         _______ _______ _______ _____ _____    ______ ____
ROOT
ATOM      1  N   UNL     1       7.317   6.980  17.778  0.00  0.00    +0.000 N 
ATOM      2  C   UNL     1       7.392   5.629  17.995  0.00  0.00    +0.000 C 
ATOM      3  O   UNL     1       8.250   5.121  18.708  0.00  0.00    +0.000 OA
ATOM      4  H   UNL     1       6.633   7.348  17.125  0.00  0.00    +0.000 HD
ENDROOT
BRANCH   2   5
ATOM      5  C   UNL     1       6.364   4.839  17.334  0.00  0.00    +0.000 A 
ATOM      6  C   UNL     1       6.269   4.650  15.963  0.00  0.00    +0.000 A 
ATOM      7  C   UNL     1       7.089   5.081  14.807  0.00  0.00    +0.000 C 
ATOM      8  O   UNL     1       5.191   3.871  15.657  0.00  0.00    +0.000 OA
ATOM      9  C   UNL     1       4.572   3.546  16.822  0.00  0.00    +0.000 A 
ATOM     10  N   UNL     1       3.463   2.775  16.893  0.00  0.00    +0.000 NA
ATOM     11  C   UNL     1       3.054   2.569  18.106  0.00  0.00    +0.000 A 
ATOM     12  N   UNL     1       3.639   3.066  19.260  0.00  0.00    +0.000 N 
ATOM     13  C   UNL     1       4.777   3.875  19.209  0.00  0.00    +0.000 A 
ATOM     14  O   UNL     1       5.343   4.316  20.203  0.00  0.00    +0.000 OA
ATOM     15  C   UNL     1       5.263   4.109  17.875  0.00  0.00    +0.000 A 
BRANCH  12  16
ATOM     16  C   UNL     1       3.119   2.682  20.569  0.00  0.00    +0.000 C 
BRANCH  16  17
ATOM     17  C   UNL     1       1.622   2.989  20.762  0.00  0.00    +0.000 C 
ATOM     18  C   UNL     1       1.100   2.502  22.115  0.00  0.00    +0.000 C 
ATOM     19  C   UNL     1       1.389   4.498  20.640  0.00  0.00    +0.000 C 
ENDBRANCH  16  17
ENDBRANCH  12  16
ENDBRANCH   2   5
BRANCH   1  20
ATOM     20  C   UNL     1       8.312   7.890  18.300  0.00  0.00    +0.000 C 
BRANCH  20  21
ATOM     21  C   UNL     1       8.136   9.320  17.780  0.00  0.00    +0.000 C 
BRANCH  21  25
ATOM     22  C   UNL     1      10.844  12.169  19.578  0.00  0.00    +0.000 A 
ATOM     23  C   UNL     1      10.046  11.354  20.380  0.00  0.00    +0.000 A 
ATOM     24  C   UNL     1       9.181  10.425  19.805  0.00  0.00    +0.000 A 
ATOM     25  C   UNL     1       9.078  10.319  18.411  0.00  0.00    +0.000 A 
ATOM     26  C   UNL     1       9.870  11.154  17.611  0.00  0.00    +0.000 A 
ATOM     27  C   UNL     1      10.742  12.081  18.191  0.00  0.00    +0.000 A 
BRANCH  22  28
ATOM     28  O   UNL     1      11.669  13.019  20.258  0.00  0.00    +0.000 OA
BRANCH  28  30
ATOM     29  C   UNL     1      11.768  15.309  19.630  0.00  0.00    +0.000 C 
ATOM     30  C   UNL     1      11.127  14.302  20.567  0.00  0.00    +0.000 C 
ENDBRANCH  28  30
ENDBRANCH  22  28
ENDBRANCH  21  25
ENDBRANCH  20  21
ENDBRANCH   1  20
TORSDOF 8
ENDMDL
MODEL 2
REMARK VINA RESULT:      -7.6      3.680      6.333
REMARK  Name = 
REMARK  12 active torsions:
REMARK  status: ('A' for Active; 'I' for Inactive)
REMARK    1  A    between atoms: C_1  and  C_2
REMARK    2  A    between atoms: C_2  and  O_3
REMARK    3  A    between atoms: O_3  and  C_4
REMARK    4  A    between atoms: C_7  and  C_8
REMARK    5  A    between atoms: C_8  and  C_9
REMARK    6  A    between atoms: C_9  and  N_10
REMARK    7  A    between atoms: C_11  and  C_13
REMARK    8  A    between atoms: C_14  and  C_15
REMARK    9  A    between atoms: N_20  and  C_21
REMARK   10  A    between atoms: C_21  and  C_22
REMARK   11  A    between atoms: C_22  and  C_23
REMARK   12  A    between atoms: C_22  and  C_24
REMARK                            x       y       z     vdW  Elec       q    Type
REMARK                         _______ _______ _______ _____ _____    ______ ____
ROOT
ATOM      1  N   UNL     1       4.085   4.698  17.444  0.00  0.00    +0.000 N 
ATOM      2  C   UNL     1       2.804   4.417  17.843  0.00  0.00    +0.000 C 
ATOM      3  O   UNL     1       2.093   3.610  17.255  0.00  0.00    +0.000 OA
ATOM      4  H   UNL     1       4.612   5.424  17.919  0.00  0.00    +0.000 HD
ENDROOT
BRANCH   2   5
ATOM      5  C   UNL     1       2.355   5.130  19.029  0.00  0.00    +0.000 A 
ATOM      6  C   UNL     1       2.118   4.544  20.263  0.00  0.00    +0.000 A 
ATOM      7  C   UNL     1       2.255   3.166  20.791  0.00  0.00    +0.000 C 
ATOM      8  O   UNL     1       1.695   5.476  21.167  0.00  0.00    +0.000 OA
ATOM      9  C   UNL     1       1.650   6.676  20.532  0.00  0.00    +0.000 A 
ATOM     10  N   UNL     1       1.275   7.829  21.132  0.00  0.00    +0.000 NA
ATOM     11  C   UNL     1       1.331   8.861  20.348  0.00  0.00    +0.000 A 
ATOM     12  N   UNL     1       1.715   8.854  19.017  0.00  0.00    +0.000 N 
ATOM     13  C   UNL     1       2.094   7.673  18.374  0.00  0.00    +0.000 A 
ATOM     14  O   UNL     1       2.466   7.624  17.207  0.00  0.00    +0.000 OA
ATOM     15  C   UNL     1       2.057   6.513  19.224  0.00  0.00    +0.000 A 
BRANCH  12  16
ATOM     16  C   UNL     1       1.812  10.109  18.276  0.00  0.00    +0.000 C 
BRANCH  16  17
ATOM     17  C   UNL     1       1.157  11.308  18.988  0.00  0.00    +0.000 C 
ATOM     18  C   UNL     1       1.872  12.625  18.681  0.00  0.00    +0.000 C 
ATOM     19  C   UNL     1      -0.311  11.414  18.566  0.00  0.00    +0.000 C 
ENDBRANCH  16  17
ENDBRANCH  12  16
ENDBRANCH   2   5
BRANCH   1  20
ATOM     20  C   UNL     1       4.649   4.131  16.240  0.00  0.00    +0.000 C 
BRANCH  20  21
ATOM     21  C   UNL     1       6.175   4.013  16.299  0.00  0.00    +0.000 C 
BRANCH  21  25
ATOM     22  C   UNL     1       8.082   7.270  18.406  0.00  0.00    +0.000 A 
ATOM     23  C   UNL     1       7.534   7.476  17.141  0.00  0.00    +0.000 A 
ATOM     24  C   UNL     1       6.906   6.432  16.464  0.00  0.00    +0.000 A 
ATOM     25  C   UNL     1       6.846   5.153  17.032  0.00  0.00    +0.000 A 
ATOM     26  C   UNL     1       7.416   4.948  18.295  0.00  0.00    +0.000 A 
ATOM     27  C   UNL     1       8.039   5.999  18.976  0.00  0.00    +0.000 A 
BRANCH  22  28
ATOM     28  O   UNL     1       8.645   8.375  18.979  0.00  0.00    +0.000 OA
BRANCH  28  30
ATOM     29  C   UNL     1       9.374  10.637  18.940  0.00  0.00    +0.000 C 
ATOM     30  C   UNL     1       8.522   9.592  18.244  0.00  0.00    +0.000 C 
ENDBRANCH  28  30
ENDBRANCH  22  28
ENDBRANCH  21  25
ENDBRANCH  20  21
ENDBRANCH   1  20
TORSDOF 8
ENDMDL
MODEL 3
REMARK VINA RESULT:      -7.4      0.910      1.198
REMARK  Name = 
REMARK  12 active torsions:
REMARK  status: ('A' for Active; 'I' for Inactive)
REMARK    1  A    between atoms: C_1  and  C_2
REMARK    2  A    between atoms: C_2  and  O_3
REMARK    3  A    between atoms: O_3  and  C_4
REMARK    4  A    between atoms: C_7  and  C_8
REMARK    5  A    between atoms: C_8  and  C_9
REMARK    6  A    between atoms: C_9  and  N_10
REMARK    7  A    between atoms: C_11  and  C_13
REMARK    8  A    between atoms: C_14  and  C_15
REMARK    9  A    between atoms: N_20  and  C_21
REMARK   10  A    between atoms: C_21  and  C_22
REMARK   11  A    between atoms: C_22  and  C_23
REMARK   12  A    between atoms: C_22  and  C_24
REMARK                            x       y       z     vdW  Elec       q    Type
REMARK                         _______ _______ _______ _____ _____    ______ ____
ROOT
ATOM      1  N   UNL     1       7.208   7.336  17.673  0.00  0.00    +0.000 N 
ATOM      2  C   UNL     1       7.221   5.977  17.852  0.00  0.00    +0.000 C 
ATOM      3  O   UNL     1       8.038   5.414  18.573  0.00  0.00    +0.000 OA
ATOM      4  H   UNL     1       6.557   7.751  17.014  0.00  0.00    +0.000 HD
ENDROOT
BRANCH   2   5
ATOM      5  C   UNL     1       6.180   5.250  17.141  0.00  0.00    +0.000 A 
ATOM      6  C   UNL     1       6.249   4.869  15.809  0.00  0.00    +0.000 A 
ATOM      7  C   UNL     1       7.282   4.996  14.755  0.00  0.00    +0.000 C 
ATOM      8  O   UNL     1       5.111   4.214  15.436  0.00  0.00    +0.000 OA
ATOM      9  C   UNL     1       4.290   4.163  16.517  0.00  0.00    +0.000 A 
ATOM     10  N   UNL     1       3.070   3.578  16.507  0.00  0.00    +0.000 NA
ATOM     11  C   UNL     1       2.467   3.621  17.654  0.00  0.00    +0.000 A 
ATOM     12  N   UNL     1       2.958   4.201  18.813  0.00  0.00    +0.000 N 
ATOM     13  C   UNL     1       4.209   4.822  18.842  0.00  0.00    +0.000 A 
ATOM     14  O   UNL     1       4.695   5.324  19.850  0.00  0.00    +0.000 OA
ATOM     15  C   UNL     1       4.909   4.776  17.586  0.00  0.00    +0.000 A 
BRANCH  12  16
ATOM     16  C   UNL     1       2.203   4.100  20.058  0.00  0.00    +0.000 C 
BRANCH  16  17
ATOM     17  C   UNL     1       2.159   2.679  20.650  0.00  0.00    +0.000 C 
ATOM     18  C   UNL     1       3.550   2.160  21.020  0.00  0.00    +0.000 C 
ATOM     19  C   UNL     1       1.265   2.670  21.894  0.00  0.00    +0.000 C 
ENDBRANCH  16  17
ENDBRANCH  12  16
ENDBRANCH   2   5
BRANCH   1  20
ATOM     20  C   UNL     1       8.224   8.188  18.248  0.00  0.00    +0.000 C 
BRANCH  20  21
ATOM     21  C   UNL     1       8.324   9.546  17.545  0.00  0.00    +0.000 C 
BRANCH  21  25
ATOM     22  C   UNL     1      10.143  12.638  19.956  0.00  0.00    +0.000 A 
ATOM     23  C   UNL     1      10.059  11.331  20.435  0.00  0.00    +0.000 A 
ATOM     24  C   UNL     1       9.485  10.328  19.656  0.00  0.00    +0.000 A 
ATOM     25  C   UNL     1       8.956  10.626  18.393  0.00  0.00    +0.000 A 
ATOM     26  C   UNL     1       9.027  11.946  17.926  0.00  0.00    +0.000 A 
ATOM     27  C   UNL     1       9.609  12.949  18.707  0.00  0.00    +0.000 A 
BRANCH  22  28
ATOM     28  O   UNL     1      10.750  13.525  20.800  0.00  0.00    +0.000 OA
BRANCH  28  30
ATOM     29  C   UNL     1      10.096  15.427  22.066  0.00  0.00    +0.000 C 
ATOM     30  C   UNL     1      10.348  14.887  20.671  0.00  0.00    +0.000 C 
ENDBRANCH  28  30
ENDBRANCH  22  28
ENDBRANCH  21  25
ENDBRANCH  20  21
ENDBRANCH   1  20
TORSDOF 8
ENDMDL
MODEL 4
REMARK VINA RESULT:      -7.4      7.430     10.298
REMARK  Name = 
REMARK  12 active torsions:
REMARK  status: ('A' for Active; 'I' for Inactive)
REMARK    1  A    between atoms: C_1  and  C_2
REMARK    2  A    between atoms: C_2  and  O_3
REMARK    3  A    between atoms: O_3  and  C_4
REMARK    4  A    between atoms: C_7  and  C_8
REMARK    5  A    between atoms: C_8  and  C_9
REMARK    6  A    between atoms: C_9  and  N_10
REMARK    7  A    between atoms: C_11  and  C_13
REMARK    8  A    between atoms: C_14  and  C_15
REMARK    9  A    between atoms: N_20  and  C_21
REMARK   10  A    between atoms: C_21  and  C_22
REMARK   11  A    between atoms: C_22  and  C_23
REMARK   12  A    between atoms: C_22  and  C_24
REMARK                            x       y       z     vdW  Elec       q    Type
REMARK                         _______ _______ _______ _____ _____    ______ ____
ROOT
ATOM      1  N   UNL     1       1.257   9.731  18.455  0.00  0.00    +0.000 N 
ATOM      2  C   UNL     1       1.529  11.074  18.496  0.00  0.00    +0.000 C 
ATOM      3  O   UNL     1       2.478  11.573  17.902  0.00  0.00    +0.000 OA
ATOM      4  H   UNL     1       0.502   9.353  19.018  0.00  0.00    +0.000 HD
ENDROOT
BRANCH   2   5
ATOM      5  C   UNL     1       0.596  11.870  19.279  0.00  0.00    +0.000 A 
ATOM      6  C   UNL     1       0.961  12.781  20.259  0.00  0.00    +0.000 A 
ATOM      7  C   UNL     1       2.260  13.263  20.782  0.00  0.00    +0.000 C 
ATOM      8  O   UNL     1      -0.143  13.357  20.818  0.00  0.00    +0.000 OA
ATOM      9  C   UNL     1      -1.237  12.826  20.211  0.00  0.00    +0.000 A 
ATOM     10  N   UNL     1      -2.508  13.175  20.517  0.00  0.00    +0.000 NA
ATOM     11  C   UNL     1      -3.398  12.565  19.797  0.00  0.00    +0.000 A 
ATOM     12  N   UNL     1      -3.145  11.631  18.805  0.00  0.00    +0.000 N 
ATOM     13  C   UNL     1      -1.841  11.247  18.482  0.00  0.00    +0.000 A 
ATOM     14  O   UNL     1      -1.569  10.446  17.595  0.00  0.00    +0.000 OA
ATOM     15  C   UNL     1      -0.830  11.919  19.254  0.00  0.00    +0.000 A 
BRANCH  12  16
ATOM     16  C   UNL     1      -4.245  11.086  18.015  0.00  0.00    +0.000 C 
BRANCH  16  17
ATOM     17  C   UNL     1      -5.609  11.740  18.305  0.00  0.00    +0.000 C 
ATOM     18  C   UNL     1      -6.083  12.629  17.154  0.00  0.00    +0.000 C 
ATOM     19  C   UNL     1      -6.652  10.651  18.571  0.00  0.00    +0.000 C 
ENDBRANCH  16  17
ENDBRANCH  12  16
ENDBRANCH   2   5
BRANCH   1  20
ATOM     20  C   UNL     1       2.135   8.797  17.785  0.00  0.00    +0.000 C 
BRANCH  20  21
ATOM     21  C   UNL     1       2.429   7.553  18.629  0.00  0.00    +0.000 C 
BRANCH  21  25
ATOM     22  C   UNL     1       4.835   4.586  16.608  0.00  0.00    +0.000 A 
ATOM     23  C   UNL     1       5.201   5.931  16.571  0.00  0.00    +0.000 A 
ATOM     24  C   UNL     1       4.435   6.890  17.233  0.00  0.00    +0.000 A 
ATOM     25  C   UNL     1       3.269   6.518  17.917  0.00  0.00    +0.000 A 
ATOM     26  C   UNL     1       2.898   5.167  17.932  0.00  0.00    +0.000 A 
ATOM     27  C   UNL     1       3.671   4.206  17.274  0.00  0.00    +0.000 A 
BRANCH  22  28
ATOM     28  O   UNL     1       5.679   3.740  15.945  0.00  0.00    +0.000 OA
BRANCH  28  30
ATOM     29  C   UNL     1       6.060   3.852  13.601  0.00  0.00    +0.000 C 
ATOM     30  C   UNL     1       6.521   4.341  14.962  0.00  0.00    +0.000 C 
ENDBRANCH  28  30
ENDBRANCH  22  28
ENDBRANCH  21  25
ENDBRANCH  20  21
ENDBRANCH   1  20
TORSDOF 8
ENDMDL
MODEL 5
REMARK VINA RESULT:      -7.3      1.103      1.525
REMARK  Name = 
REMARK  12 active torsions:
REMARK  status: ('A' for Active; 'I' for Inactive)
REMARK    1  A    between atoms: C_1  and  C_2
REMARK    2  A    between atoms: C_2  and  O_3
REMARK    3  A    between atoms: O_3  and  C_4
REMARK    4  A    between atoms: C_7  and  C_8
REMARK    5  A    between atoms: C_8  and  C_9
REMARK    6  A    between atoms: C_9  and  N_10
REMARK    7  A    between atoms: C_11  and  C_13
REMARK    8  A    between atoms: C_14  and  C_15
REMARK    9  A    between atoms: N_20  and  C_21
REMARK   10  A    between atoms: C_21  and  C_22
REMARK   11  A    between atoms: C_22  and  C_23
REMARK   12  A    between atoms: C_22  and  C_24
REMARK                            x       y       z     vdW  Elec       q    Type
REMARK                         _______ _______ _______ _____ _____    ______ ____
ROOT
ATOM      1  N   UNL     1       7.055   7.100  17.697  0.00  0.00    +0.000 N 
ATOM      2  C   UNL     1       7.046   5.744  17.900  0.00  0.00    +0.000 C 
ATOM      3  O   UNL     1       7.894   5.173  18.578  0.00  0.00    +0.000 OA
ATOM      4  H   UNL     1       6.373   7.520  17.073  0.00  0.00    +0.000 HD
ENDROOT
BRANCH   2   5
ATOM      5  C   UNL     1       5.945   5.032  17.270  0.00  0.00    +0.000 A 
ATOM      6  C   UNL     1       5.962   4.532  15.976  0.00  0.00    +0.000 A 
ATOM      7  C   UNL     1       6.981   4.494  14.902  0.00  0.00    +0.000 C 
ATOM      8  O   UNL     1       4.775   3.927  15.677  0.00  0.00    +0.000 OA
ATOM      9  C   UNL     1       3.974   4.028  16.769  0.00  0.00    +0.000 A 
ATOM     10  N   UNL     1       2.717   3.530  16.827  0.00  0.00    +0.000 NA
ATOM     11  C   UNL     1       2.140   3.715  17.973  0.00  0.00    +0.000 A 
ATOM     12  N   UNL     1       2.691   4.359  19.070  0.00  0.00    +0.000 N 
ATOM     13  C   UNL     1       3.982   4.892  19.028  0.00  0.00    +0.000 A 
ATOM     14  O   UNL     1       4.520   5.445  19.981  0.00  0.00    +0.000 OA
ATOM     15  C   UNL     1       4.654   4.688  17.772  0.00  0.00    +0.000 A 
BRANCH  12  16
ATOM     16  C   UNL     1       1.956   4.420  20.329  0.00  0.00    +0.000 C 
BRANCH  16  17
ATOM     17  C   UNL     1       2.378   3.350  21.353  0.00  0.00    +0.000 C 
ATOM     18  C   UNL     1       1.185   2.552  21.883  0.00  0.00    +0.000 C 
ATOM     19  C   UNL     1       3.385   2.393  20.709  0.00  0.00    +0.000 C 
ENDBRANCH  16  17
ENDBRANCH  12  16
ENDBRANCH   2   5
BRANCH   1  20
ATOM     20  C   UNL     1       8.126   7.936  18.191  0.00  0.00    +0.000 C 
BRANCH  20  21
ATOM     21  C   UNL     1       8.188   9.294  17.485  0.00  0.00    +0.000 C 
BRANCH  21  25
ATOM     22  C   UNL     1       9.915  12.430  19.908  0.00  0.00    +0.000 A 
ATOM     23  C   UNL     1       9.455  12.708  18.621  0.00  0.00    +0.000 A 
ATOM     24  C   UNL     1       8.885  11.702  17.842  0.00  0.00    +0.000 A 
ATOM     25  C   UNL     1       8.796  10.392  18.328  0.00  0.00    +0.000 A 
ATOM     26  C   UNL     1       9.278  10.116  19.615  0.00  0.00    +0.000 A 
ATOM     27  C   UNL     1       9.843  11.127  20.398  0.00  0.00    +0.000 A 
BRANCH  22  28
ATOM     28  O   UNL     1      10.427  13.502  20.582  0.00  0.00    +0.000 OA
BRANCH  28  30
ATOM     29  C   UNL     1       8.963  15.092  21.571  0.00  0.00    +0.000 C 
ATOM     30  C   UNL     1       9.781  13.836  21.810  0.00  0.00    +0.000 C 
ENDBRANCH  28  30
ENDBRANCH  22  28
ENDBRANCH  21  25
ENDBRANCH  20  21
ENDBRANCH   1  20
TORSDOF 8
ENDMDL
MODEL 6
REMARK VINA RESULT:      -7.3      5.159      8.302
REMARK  Name = 
REMARK  12 active torsions:
REMARK  status: ('A' for Active; 'I' for Inactive)
REMARK    1  A    between atoms: C_1  and  C_2
REMARK    2  A    between atoms: C_2  and  O_3
REMARK    3  A    between atoms: O_3  and  C_4
REMARK    4  A    between atoms: C_7  and  C_8
REMARK    5  A    between atoms: C_8  and  C_9
REMARK    6  A    between atoms: C_9  and  N_10
REMARK    7  A    between atoms: C_11  and  C_13
REMARK    8  A    between atoms: C_14  and  C_15
REMARK    9  A    between atoms: N_20  and  C_21
REMARK   10  A    between atoms: C_21  and  C_22
REMARK   11  A    between atoms: C_22  and  C_23
REMARK   12  A    between atoms: C_22  and  C_24
REMARK                            x       y       z     vdW  Elec       q    Type
REMARK                         _______ _______ _______ _____ _____    ______ ____
ROOT
ATOM      1  N   UNL     1       6.025   4.810  17.963  0.00  0.00    +0.000 N 
ATOM      2  C   UNL     1       4.854   4.100  18.008  0.00  0.00    +0.000 C 
ATOM      3  O   UNL     1       4.640   3.133  17.285  0.00  0.00    +0.000 OA
ATOM      4  H   UNL     1       6.131   5.644  18.531  0.00  0.00    +0.000 HD
ENDROOT
BRANCH   2   5
ATOM      5  C   UNL     1       3.887   4.564  18.992  0.00  0.00    +0.000 A 
ATOM      6  C   UNL     1       3.457   3.829  20.086  0.00  0.00    +0.000 A 
ATOM      7  C   UNL     1       3.801   2.494  20.628  0.00  0.00    +0.000 C 
ATOM      8  O   UNL     1       2.540   4.535  20.811  0.00  0.00    +0.000 OA
ATOM      9  C   UNL     1       2.363   5.733  20.197  0.00  0.00    +0.000 A 
ATOM     10  N   UNL     1       1.521   6.691  20.649  0.00  0.00    +0.000 NA
ATOM     11  C   UNL     1       1.526   7.767  19.925  0.00  0.00    +0.000 A 
ATOM     12  N   UNL     1       2.283   7.979  18.783  0.00  0.00    +0.000 N 
ATOM     13  C   UNL     1       3.148   6.998  18.292  0.00  0.00    +0.000 A 
ATOM     14  O   UNL     1       3.856   7.152  17.302  0.00  0.00    +0.000 OA
ATOM     15  C   UNL     1       3.176   5.798  19.084  0.00  0.00    +0.000 A 
BRANCH  12  16
ATOM     16  C   UNL     1       2.251   9.275  18.114  0.00  0.00    +0.000 C 
BRANCH  16  17
ATOM     17  C   UNL     1       1.230  10.263  18.710  0.00  0.00    +0.000 C 
ATOM     18  C   UNL     1       1.693  11.716  18.592  0.00  0.00    +0.000 C 
ATOM     19  C   UNL     1      -0.116  10.098  17.999  0.00  0.00    +0.000 C 
ENDBRANCH  16  17
ENDBRANCH  12  16
ENDBRANCH   2   5
BRANCH   1  20
ATOM     20  C   UNL     1       7.052   4.522  16.986  0.00  0.00    +0.000 C 
BRANCH  20  21
ATOM     21  C   UNL     1       6.994   5.458  15.775  0.00  0.00    +0.000 C 
BRANCH  21  25
ATOM     22  C   UNL     1       5.648   3.549  12.138  0.00  0.00    +0.000 A 
ATOM     23  C   UNL     1       4.827   3.575  13.264  0.00  0.00    +0.000 A 
ATOM     24  C   UNL     1       5.251   4.201  14.435  0.00  0.00    +0.000 A 
ATOM     25  C   UNL     1       6.523   4.785  14.506  0.00  0.00    +0.000 A 
ATOM     26  C   UNL     1       7.351   4.738  13.376  0.00  0.00    +0.000 A 
ATOM     27  C   UNL     1       6.920   4.115  12.201  0.00  0.00    +0.000 A 
BRANCH  22  28
ATOM     28  O   UNL     1       5.111   2.930  11.045  0.00  0.00    +0.000 OA
BRANCH  28  30
ATOM     29  C   UNL     1       3.269   3.985   9.975  0.00  0.00    +0.000 C 
ATOM     30  C   UNL     1       3.686   2.918  10.971  0.00  0.00    +0.000 C 
ENDBRANCH  28  30
ENDBRANCH  22  28
ENDBRANCH  21  25
ENDBRANCH  20  21
ENDBRANCH   1  20
TORSDOF 8
ENDMDL
MODEL 7
REMARK VINA RESULT:      -7.3      4.055      7.761
REMARK  Name = 
REMARK  12 active torsions:
REMARK  status: ('A' for Active; 'I' for Inactive)
REMARK    1  A    between atoms: C_1  and  C_2
REMARK    2  A    between atoms: C_2  and  O_3
REMARK    3  A    between atoms: O_3  and  C_4
REMARK    4  A    between atoms: C_7  and  C_8
REMARK    5  A    between atoms: C_8  and  C_9
REMARK    6  A    between atoms: C_9  and  N_10
REMARK    7  A    between atoms: C_11  and  C_13
REMARK    8  A    between atoms: C_14  and  C_15
REMARK    9  A    between atoms: N_20  and  C_21
REMARK   10  A    between atoms: C_21  and  C_22
REMARK   11  A    between atoms: C_22  and  C_23
REMARK   12  A    between atoms: C_22  and  C_24
REMARK                            x       y       z     vdW  Elec       q    Type
REMARK                         _______ _______ _______ _____ _____    ______ ____
ROOT
ATOM      1  N   UNL     1       3.870   5.510  18.343  0.00  0.00    +0.000 N 
ATOM      2  C   UNL     1       5.186   5.263  18.632  0.00  0.00    +0.000 C 
ATOM      3  O   UNL     1       5.555   4.847  19.725  0.00  0.00    +0.000 OA
ATOM      4  H   UNL     1       3.618   5.919  17.449  0.00  0.00    +0.000 HD
ENDROOT
BRANCH   2   5
ATOM      5  C   UNL     1       6.116   5.510  17.540  0.00  0.00    +0.000 A 
ATOM      6  C   UNL     1       7.265   6.280  17.638  0.00  0.00    +0.000 A 
ATOM      7  C   UNL     1       7.923   7.009  18.746  0.00  0.00    +0.000 C 
ATOM      8  O   UNL     1       7.916   6.329  16.439  0.00  0.00    +0.000 OA
ATOM      9  C   UNL     1       7.198   5.594  15.549  0.00  0.00    +0.000 A 
ATOM     10  N   UNL     1       7.557   5.421  14.257  0.00  0.00    +0.000 NA
ATOM     11  C   UNL     1       6.743   4.662  13.591  0.00  0.00    +0.000 A 
ATOM     12  N   UNL     1       5.596   4.063  14.088  0.00  0.00    +0.000 N 
ATOM     13  C   UNL     1       5.200   4.239  15.417  0.00  0.00    +0.000 A 
ATOM     14  O   UNL     1       4.209   3.709  15.906  0.00  0.00    +0.000 OA
ATOM     15  C   UNL     1       6.093   5.066  16.184  0.00  0.00    +0.000 A 
BRANCH  12  16
ATOM     16  C   UNL     1       4.816   3.162  13.246  0.00  0.00    +0.000 C 
BRANCH  16  17
ATOM     17  C   UNL     1       5.239   3.167  11.765  0.00  0.00    +0.000 C 
ATOM     18  C   UNL     1       5.920   1.860  11.352  0.00  0.00    +0.000 C 
ATOM     19  C   UNL     1       4.010   3.401  10.882  0.00  0.00    +0.000 C 
ENDBRANCH  16  17
ENDBRANCH  12  16
ENDBRANCH   2   5
BRANCH   1  20
ATOM     20  C   UNL     1       2.835   5.389  19.346  0.00  0.00    +0.000 C 
BRANCH  20  21
ATOM     21  C   UNL     1       2.797   6.584  20.304  0.00  0.00    +0.000 C 
BRANCH  21  25
ATOM     22  C   UNL     1       0.546   9.955  18.804  0.00  0.00    +0.000 A 
ATOM     23  C   UNL     1       0.418   9.560  20.135  0.00  0.00    +0.000 A 
ATOM     24  C   UNL     1       1.152   8.482  20.626  0.00  0.00    +0.000 A 
ATOM     25  C   UNL     1       2.005   7.760  19.781  0.00  0.00    +0.000 A 
ATOM     26  C   UNL     1       2.113   8.150  18.439  0.00  0.00    +0.000 A 
ATOM     27  C   UNL     1       1.381   9.237  17.950  0.00  0.00    +0.000 A 
BRANCH  22  28
ATOM     28  O   UNL     1      -0.204  11.040  18.449  0.00  0.00    +0.000 OA
BRANCH  28  30
ATOM     29  C   UNL     1      -2.155  10.158  17.416  0.00  0.00    +0.000 C 
ATOM     30  C   UNL     1      -1.615  10.909  18.619  0.00  0.00    +0.000 C 
ENDBRANCH  28  30
ENDBRANCH  22  28
ENDBRANCH  21  25
ENDBRANCH  20  21
ENDBRANCH   1  20
TORSDOF 8
ENDMDL
MODEL 8
REMARK VINA RESULT:      -7.2      5.757      9.345
REMARK  Name = 
REMARK  12 active torsions:
REMARK  status: ('A' for Active; 'I' for Inactive)
REMARK    1  A    between atoms: C_1  and  C_2
REMARK    2  A    between atoms: C_2  and  O_3
REMARK    3  A    between atoms: O_3  and  C_4
REMARK    4  A    between atoms: C_7  and  C_8
REMARK    5  A    between atoms: C_8  and  C_9
REMARK    6  A    between atoms: C_9  and  N_10
REMARK    7  A    between atoms: C_11  and  C_13
REMARK    8  A    between atoms: C_14  and  C_15
REMARK    9  A    between atoms: N_20  and  C_21
REMARK   10  A    between atoms: C_21  and  C_22
REMARK   11  A    between atoms: C_22  and  C_23
REMARK   12  A    between atoms: C_22  and  C_24
REMARK                            x       y       z     vdW  Elec       q    Type
REMARK                         _______ _______ _______ _____ _____    ______ ____
ROOT
ATOM      1  N   UNL     1       1.867   8.137  17.971  0.00  0.00    +0.000 N 
ATOM      2  C   UNL     1       2.266   7.433  19.077  0.00  0.00    +0.000 C 
ATOM      3  O   UNL     1       2.288   7.926  20.200  0.00  0.00    +0.000 OA
ATOM      4  H   UNL     1       1.931   7.710  17.052  0.00  0.00    +0.000 HD
ENDROOT
BRANCH   2   5
ATOM      5  C   UNL     1       2.642   6.050  18.828  0.00  0.00    +0.000 A 
ATOM      6  C   UNL     1       2.126   4.955  19.504  0.00  0.00    +0.000 A 
ATOM      7  C   UNL     1       1.101   4.788  20.561  0.00  0.00    +0.000 C 
ATOM      8  O   UNL     1       2.688   3.797  19.048  0.00  0.00    +0.000 OA
ATOM      9  C   UNL     1       3.576   4.126  18.074  0.00  0.00    +0.000 A 
ATOM     10  N   UNL     1       4.315   3.218  17.396  0.00  0.00    +0.000 NA
ATOM     11  C   UNL     1       5.079   3.746  16.491  0.00  0.00    +0.000 A 
ATOM     12  N   UNL     1       5.186   5.097  16.201  0.00  0.00    +0.000 N 
ATOM     13  C   UNL     1       4.441   6.053  16.898  0.00  0.00    +0.000 A 
ATOM     14  O   UNL     1       4.484   7.254  16.658  0.00  0.00    +0.000 OA
ATOM     15  C   UNL     1       3.573   5.494  17.899  0.00  0.00    +0.000 A 
BRANCH  12  16
ATOM     16  C   UNL     1       6.027   5.545  15.095  0.00  0.00    +0.000 C 
BRANCH  16  17
ATOM     17  C   UNL     1       6.504   4.408  14.171  0.00  0.00    +0.000 C 
ATOM     18  C   UNL     1       5.385   3.888  13.267  0.00  0.00    +0.000 C 
ATOM     19  C   UNL     1       7.667   4.903  13.308  0.00  0.00    +0.000 C 
ENDBRANCH  16  17
ENDBRANCH  12  16
ENDBRANCH   2   5
BRANCH   1  20
ATOM     20  C   UNL     1       1.539   9.543  18.041  0.00  0.00    +0.000 C 
BRANCH  20  21
ATOM     21  C   UNL     1       0.477   9.850  19.102  0.00  0.00    +0.000 C 
BRANCH  21  25
ATOM     22  C   UNL     1      -3.298  11.145  17.442  0.00  0.00    +0.000 A 
ATOM     23  C   UNL     1      -2.849  11.664  18.656  0.00  0.00    +0.000 A 
ATOM     24  C   UNL     1      -1.626  11.259  19.188  0.00  0.00    +0.000 A 
ATOM     25  C   UNL     1      -0.846  10.301  18.526  0.00  0.00    +0.000 A 
ATOM     26  C   UNL     1      -1.314   9.770  17.317  0.00  0.00    +0.000 A 
ATOM     27  C   UNL     1      -2.538  10.182  16.781  0.00  0.00    +0.000 A 
BRANCH  22  28
ATOM     28  O   UNL     1      -4.497  11.639  17.012  0.00  0.00    +0.000 OA
BRANCH  28  30
ATOM     29  C   UNL     1      -6.670  12.535  17.367  0.00  0.00    +0.000 C 
ATOM     30  C   UNL     1      -5.342  12.196  18.018  0.00  0.00    +0.000 C 
ENDBRANCH  28  30
ENDBRANCH  22  28
ENDBRANCH  21  25
ENDBRANCH  20  21
ENDBRANCH   1  20
TORSDOF 8
ENDMDL
MODEL 9
REMARK VINA RESULT:      -7.2      4.540      6.640
REMARK  Name = 
REMARK  12 active torsions:
REMARK  status: ('A' for Active; 'I' for Inactive)
REMARK    1  A    between atoms: C_1  and  C_2
REMARK    2  A    between atoms: C_2  and  O_3
REMARK    3  A    between atoms: O_3  and  C_4
REMARK    4  A    between atoms: C_7  and  C_8
REMARK    5  A    between atoms: C_8  and  C_9
REMARK    6  A    between atoms: C_9  and  N_10
REMARK    7  A    between atoms: C_11  and  C_13
REMARK    8  A    between atoms: C_14  and  C_15
REMARK    9  A    between atoms: N_20  and  C_21
REMARK   10  A    between atoms: C_21  and  C_22
REMARK   11  A    between atoms: C_22  and  C_23
REMARK   12  A    between atoms: C_22  and  C_24
REMARK                            x       y       z     vdW  Elec       q    Type
REMARK                         _______ _______ _______ _____ _____    ______ ____
ROOT
ATOM      1  N   UNL     1       3.531   7.740  17.939  0.00  0.00    +0.000 N 
ATOM      2  C   UNL     1       4.446   7.007  17.230  0.00  0.00    +0.000 C 
ATOM      3  O   UNL     1       4.780   7.297  16.086  0.00  0.00    +0.000 OA
ATOM      4  H   UNL     1       3.233   7.423  18.856  0.00  0.00    +0.000 HD
ENDROOT
BRANCH   2   5
ATOM      5  C   UNL     1       5.012   5.870  17.940  0.00  0.00    +0.000 A 
ATOM      6  C   UNL     1       6.352   5.727  18.265  0.00  0.00    +0.000 A 
ATOM      7  C   UNL     1       7.551   6.577  18.083  0.00  0.00    +0.000 C 
ATOM      8  O   UNL     1       6.567   4.547  18.919  0.00  0.00    +0.000 OA
ATOM      9  C   UNL     1       5.371   3.911  19.024  0.00  0.00    +0.000 A 
ATOM     10  N   UNL     1       5.212   2.708  19.622  0.00  0.00    +0.000 NA
ATOM     11  C   UNL     1       3.982   2.296  19.635  0.00  0.00    +0.000 A 
ATOM     12  N   UNL     1       2.893   2.963  19.097  0.00  0.00    +0.000 N 
ATOM     13  C   UNL     1       3.037   4.200  18.462  0.00  0.00    +0.000 A 
ATOM     14  O   UNL     1       2.099   4.837  17.996  0.00  0.00    +0.000 OA
ATOM     15  C   UNL     1       4.390   4.690  18.447  0.00  0.00    +0.000 A 
BRANCH  12  16
ATOM     16  C   UNL     1       1.548   2.419  19.257  0.00  0.00    +0.000 C 
BRANCH  16  17
ATOM     17  C   UNL     1       0.832   2.888  20.538  0.00  0.00    +0.000 C 
ATOM     18  C   UNL     1       1.548   2.422  21.807  0.00  0.00    +0.000 C 
ATOM     19  C   UNL     1       0.735   4.416  20.540  0.00  0.00    +0.000 C 
ENDBRANCH  16  17
ENDBRANCH  12  16
ENDBRANCH   2   5
BRANCH   1  20
ATOM     20  C   UNL     1       2.822   8.852  17.345  0.00  0.00    +0.000 C 
BRANCH  20  21
ATOM     21  C   UNL     1       1.331   8.858  17.697  0.00  0.00    +0.000 C 
BRANCH  21  25
ATOM     22  C   UNL     1       0.367  11.158  21.227  0.00  0.00    +0.000 A 
ATOM     23  C   UNL     1       0.458  11.783  19.984  0.00  0.00    +0.000 A 
ATOM     24  C   UNL     1       0.755  11.043  18.841  0.00  0.00    +0.000 A 
ATOM     25  C   UNL     1       0.999   9.666  18.930  0.00  0.00    +0.000 A 
ATOM     26  C   UNL     1       0.925   9.048  20.186  0.00  0.00    +0.000 A 
ATOM     27  C   UNL     1       0.620   9.791  21.331  0.00  0.00    +0.000 A 
BRANCH  22  28
ATOM     28  O   UNL     1       0.044  11.984  22.266  0.00  0.00    +0.000 OA
BRANCH  28  30
ATOM     29  C   UNL     1      -2.165  11.986  23.145  0.00  0.00    +0.000 C 
ATOM     30  C   UNL     1      -1.214  12.651  22.167  0.00  0.00    +0.000 C 
ENDBRANCH  28  30
ENDBRANCH  22  28
ENDBRANCH  21  25
ENDBRANCH  20  21
ENDBRANCH   1  20
TORSDOF 8
ENDMDL
