MODEL 1
REMARK VINA RESULT:      -9.7      0.000      0.000
REMARK  Name = 
REMARK  3 active torsions:
REMARK  status: ('A' for Active; 'I' for Inactive)
REMARK    1  A    between atoms: C_4  and  C_5
REMARK    2  A    between atoms: C_8  and  C_9
REMARK    3  A    between atoms: N_11  and  C_12
REMARK                            x       y       z     vdW  Elec       q    Type
REMARK                         _______ _______ _______ _____ _____    ______ ____
ROOT
ATOM      1  C   UNL     1       3.281   6.855  17.696  0.00  0.00    +0.000 A 
ATOM      2  N   UNL     1       3.149   8.169  18.021  0.00  0.00    +0.000 NA
ATOM      3  N   UNL     1       2.211   8.116  19.025  0.00  0.00    +0.000 N 
ATOM      4  C   UNL     1       2.182   6.828  19.517  0.00  0.00    +0.000 A 
ATOM      5  N   UNL     1       2.121   6.285  20.752  0.00  0.00    +0.000 NA
ATOM      6  C   UNL     1       2.004   4.936  20.660  0.00  0.00    +0.000 A 
ATOM      7  C   UNL     1       2.591   4.065  21.568  0.00  0.00    +0.000 A 
ATOM      8  C   UNL     1       2.383   2.688  21.471  0.00  0.00    +0.000 A 
ATOM      9  C   UNL     1       1.389   2.222  20.622  0.00  0.00    +0.000 A 
ATOM     10  C   UNL     1       0.882   3.084  19.661  0.00  0.00    +0.000 A 
ATOM     11  C   UNL     1       1.472   4.329  19.514  0.00  0.00    +0.000 A 
ATOM     12  N   UNL     1       1.705   4.858  18.292  0.00  0.00    +0.000 NA
ATOM     13  C   UNL     1       2.260   6.099  18.339  0.00  0.00    +0.000 A 
ENDROOT
BRANCH   3  14
ATOM     14  C   UNL     1       1.218   9.117  19.219  0.00  0.00    +0.000 A 
ATOM     15  C   UNL     1       0.574   9.674  18.104  0.00  0.00    +0.000 A 
ATOM     16  C   UNL     1      -0.523  10.521  18.283  0.00  0.00    +0.000 A 
ATOM     17  C   UNL     1      -0.973  10.829  19.567  0.00  0.00    +0.000 A 
ATOM     18  C   UNL     1      -0.328  10.293  20.679  0.00  0.00    +0.000 A 
ATOM     19  C   UNL     1       0.761   9.432  20.509  0.00  0.00    +0.000 A 
ENDBRANCH   3  14
BRANCH   1  23
ATOM     20  C   UNL     1       5.939   5.565  15.580  0.00  0.00    +0.000 A 
ATOM     21  N   UNL     1       6.656   6.194  16.503  0.00  0.00    +0.000 NA
ATOM     22  N   UNL     1       5.777   6.671  17.450  0.00  0.00    +0.000 NA
ATOM     23  C   UNL     1       4.570   6.308  17.070  0.00  0.00    +0.000 A 
ATOM     24  O   UNL     1       4.585   5.590  15.905  0.00  0.00    +0.000 OA
BRANCH  20  28
ATOM     25  C   UNL     1       7.107   3.727  11.878  0.00  0.00    +0.000 A 
ATOM     26  C   UNL     1       5.966   3.302  12.559  0.00  0.00    +0.000 A 
ATOM     27  C   UNL     1       5.597   3.916  13.767  0.00  0.00    +0.000 A 
ATOM     28  C   UNL     1       6.358   4.966  14.320  0.00  0.00    +0.000 A 
ATOM     29  C   UNL     1       7.503   5.370  13.624  0.00  0.00    +0.000 A 
ATOM     30  C   UNL     1       7.872   4.759  12.412  0.00  0.00    +0.000 A 
ENDBRANCH  20  28
ENDBRANCH   1  23
TORSDOF 3
ENDMDL
MODEL 2
REMARK VINA RESULT:      -9.7      1.757      7.729
REMARK  Name = 
REMARK  3 active torsions:
REMARK  status: ('A' for Active; 'I' for Inactive)
REMARK    1  A    between atoms: C_4  and  C_5
REMARK    2  A    between atoms: C_8  and  C_9
REMARK    3  A    between atoms: N_11  and  C_12
REMARK                            x       y       z     vdW  Elec       q    Type
REMARK                         _______ _______ _______ _____ _____    ______ ____
ROOT
ATOM      1  C   UNL     1       3.278   7.182  18.030  0.00  0.00    +0.000 A 
ATOM      2  N   UNL     1       3.809   7.103  16.782  0.00  0.00    +0.000 NA
ATOM      3  N   UNL     1       4.115   5.765  16.691  0.00  0.00    +0.000 N 
ATOM      4  C   UNL     1       3.380   5.091  17.645  0.00  0.00    +0.000 A 
ATOM      5  N   UNL     1       2.678   3.939  17.661  0.00  0.00    +0.000 NA
ATOM      6  C   UNL     1       2.232   3.686  18.919  0.00  0.00    +0.000 A 
ATOM      7  C   UNL     1       1.009   3.083  19.177  0.00  0.00    +0.000 A 
ATOM      8  C   UNL     1       0.626   2.780  20.485  0.00  0.00    +0.000 A 
ATOM      9  C   UNL     1       1.579   2.852  21.492  0.00  0.00    +0.000 A 
ATOM     10  C   UNL     1       2.757   3.539  21.240  0.00  0.00    +0.000 A 
ATOM     11  C   UNL     1       2.880   4.221  20.040  0.00  0.00    +0.000 A 
ATOM     12  N   UNL     1       3.433   5.453  19.984  0.00  0.00    +0.000 NA
ATOM     13  C   UNL     1       3.501   5.957  18.722  0.00  0.00    +0.000 A 
ENDROOT
BRANCH   3  14
ATOM     14  C   UNL     1       5.257   5.271  16.000  0.00  0.00    +0.000 A 
ATOM     15  C   UNL     1       5.083   4.506  14.838  0.00  0.00    +0.000 A 
ATOM     16  C   UNL     1       6.188   4.167  14.053  0.00  0.00    +0.000 A 
ATOM     17  C   UNL     1       7.469   4.575  14.427  0.00  0.00    +0.000 A 
ATOM     18  C   UNL     1       7.651   5.321  15.589  0.00  0.00    +0.000 A 
ATOM     19  C   UNL     1       6.549   5.677  16.372  0.00  0.00    +0.000 A 
ENDBRANCH   3  14
BRANCH   1  23
ATOM     20  C   UNL     1       1.053   9.569  19.630  0.00  0.00    +0.000 A 
ATOM     21  N   UNL     1       1.369  10.241  18.529  0.00  0.00    +0.000 NA
ATOM     22  N   UNL     1       2.155   9.415  17.756  0.00  0.00    +0.000 NA
ATOM     23  C   UNL     1       2.275   8.278  18.409  0.00  0.00    +0.000 A 
ATOM     24  O   UNL     1       1.594   8.286  19.596  0.00  0.00    +0.000 OA
BRANCH  20  28
ATOM     25  C   UNL     1      -1.064  10.772  23.168  0.00  0.00    +0.000 A 
ATOM     26  C   UNL     1      -0.266   9.628  23.166  0.00  0.00    +0.000 A 
ATOM     27  C   UNL     1       0.421   9.250  22.001  0.00  0.00    +0.000 A 
ATOM     28  C   UNL     1       0.327  10.006  20.814  0.00  0.00    +0.000 A 
ATOM     29  C   UNL     1      -0.486  11.145  20.837  0.00  0.00    +0.000 A 
ATOM     30  C   UNL     1      -1.172  11.527  22.004  0.00  0.00    +0.000 A 
ENDBRANCH  20  28
ENDBRANCH   1  23
TORSDOF 3
ENDMDL
MODEL 3
REMARK VINA RESULT:      -9.6      1.827      7.878
REMARK  Name = 
REMARK  3 active torsions:
REMARK  status: ('A' for Active; 'I' for Inactive)
REMARK    1  A    between atoms: C_4  and  C_5
REMARK    2  A    between atoms: C_8  and  C_9
REMARK    3  A    between atoms: N_11  and  C_12
REMARK                            x       y       z     vdW  Elec       q    Type
REMARK                         _______ _______ _______ _____ _____    ______ ____
ROOT
ATOM      1  C   UNL     1       3.076   7.424  18.224  0.00  0.00    +0.000 A 
ATOM      2  N   UNL     1       3.729   7.426  17.031  0.00  0.00    +0.000 NA
ATOM      3  N   UNL     1       4.118   6.111  16.922  0.00  0.00    +0.000 N 
ATOM      4  C   UNL     1       3.335   5.360  17.773  0.00  0.00    +0.000 A 
ATOM      5  N   UNL     1       2.702   4.172  17.678  0.00  0.00    +0.000 NA
ATOM      6  C   UNL     1       2.153   3.842  18.876  0.00  0.00    +0.000 A 
ATOM      7  C   UNL     1       0.946   3.165  18.990  0.00  0.00    +0.000 A 
ATOM      8  C   UNL     1       0.458   2.787  20.242  0.00  0.00    +0.000 A 
ATOM      9  C   UNL     1       1.304   2.867  21.340  0.00  0.00    +0.000 A 
ATOM     10  C   UNL     1       2.460   3.626  21.230  0.00  0.00    +0.000 A 
ATOM     11  C   UNL     1       2.658   4.364  20.074  0.00  0.00    +0.000 A 
ATOM     12  N   UNL     1       3.142   5.625  20.118  0.00  0.00    +0.000 NA
ATOM     13  C   UNL     1       3.302   6.184  18.889  0.00  0.00    +0.000 A 
ENDROOT
BRANCH   3  14
ATOM     14  C   UNL     1       5.348   5.709  16.329  0.00  0.00    +0.000 A 
ATOM     15  C   UNL     1       6.443   5.403  17.150  0.00  0.00    +0.000 A 
ATOM     16  C   UNL     1       7.594   4.836  16.597  0.00  0.00    +0.000 A 
ATOM     17  C   UNL     1       7.667   4.587  15.226  0.00  0.00    +0.000 A 
ATOM     18  C   UNL     1       6.590   4.904  14.402  0.00  0.00    +0.000 A 
ATOM     19  C   UNL     1       5.428   5.457  14.949  0.00  0.00    +0.000 A 
ENDBRANCH   3  14
BRANCH   1  23
ATOM     20  C   UNL     1       0.701   9.753  19.687  0.00  0.00    +0.000 A 
ATOM     21  N   UNL     1       0.864  10.302  18.489  0.00  0.00    +0.000 NA
ATOM     22  N   UNL     1       1.687   9.468  17.764  0.00  0.00    +0.000 NA
ATOM     23  C   UNL     1       1.981   8.448  18.542  0.00  0.00    +0.000 A 
ATOM     24  O   UNL     1       1.384   8.542  19.771  0.00  0.00    +0.000 OA
BRANCH  20  28
ATOM     25  C   UNL     1      -1.346  11.348  23.108  0.00  0.00    +0.000 A 
ATOM     26  C   UNL     1      -1.290  12.062  21.911  0.00  0.00    +0.000 A 
ATOM     27  C   UNL     1      -0.618  11.525  20.801  0.00  0.00    +0.000 A 
ATOM     28  C   UNL     1       0.010  10.264  20.862  0.00  0.00    +0.000 A 
ATOM     29  C   UNL     1      -0.052   9.570  22.076  0.00  0.00    +0.000 A 
ATOM     30  C   UNL     1      -0.727  10.105  23.188  0.00  0.00    +0.000 A 
ENDBRANCH  20  28
ENDBRANCH   1  23
TORSDOF 3
ENDMDL
MODEL 4
REMARK VINA RESULT:      -9.5      0.198      1.258
REMARK  Name = 
REMARK  3 active torsions:
REMARK  status: ('A' for Active; 'I' for Inactive)
REMARK    1  A    between atoms: C_4  and  C_5
REMARK    2  A    between atoms: C_8  and  C_9
REMARK    3  A    between atoms: N_11  and  C_12
REMARK                            x       y       z     vdW  Elec       q    Type
REMARK                         _______ _______ _______ _____ _____    ______ ____
ROOT
ATOM      1  C   UNL     1       3.235   6.880  17.745  0.00  0.00    +0.000 A 
ATOM      2  N   UNL     1       3.094   8.186  18.093  0.00  0.00    +0.000 NA
ATOM      3  N   UNL     1       2.158   8.109  19.098  0.00  0.00    +0.000 N 
ATOM      4  C   UNL     1       2.138   6.812  19.568  0.00  0.00    +0.000 A 
ATOM      5  N   UNL     1       2.084   6.248  20.792  0.00  0.00    +0.000 NA
ATOM      6  C   UNL     1       1.977   4.899  20.677  0.00  0.00    +0.000 A 
ATOM      7  C   UNL     1       2.571   4.017  21.568  0.00  0.00    +0.000 A 
ATOM      8  C   UNL     1       2.374   2.640  21.448  0.00  0.00    +0.000 A 
ATOM      9  C   UNL     1       1.381   2.182  20.592  0.00  0.00    +0.000 A 
ATOM     10  C   UNL     1       0.867   3.057  19.647  0.00  0.00    +0.000 A 
ATOM     11  C   UNL     1       1.447   4.309  19.521  0.00  0.00    +0.000 A 
ATOM     12  N   UNL     1       1.674   4.861  18.309  0.00  0.00    +0.000 NA
ATOM     13  C   UNL     1       2.219   6.105  18.376  0.00  0.00    +0.000 A 
ENDROOT
BRANCH   3  14
ATOM     14  C   UNL     1       1.157   9.099  19.311  0.00  0.00    +0.000 A 
ATOM     15  C   UNL     1       0.746   9.395  20.618  0.00  0.00    +0.000 A 
ATOM     16  C   UNL     1      -0.098  10.483  20.856  0.00  0.00    +0.000 A 
ATOM     17  C   UNL     1      -0.547  11.270  19.795  0.00  0.00    +0.000 A 
ATOM     18  C   UNL     1      -0.157  10.971  18.491  0.00  0.00    +0.000 A 
ATOM     19  C   UNL     1       0.700   9.894  18.247  0.00  0.00    +0.000 A 
ENDBRANCH   3  14
BRANCH   1  23
ATOM     20  C   UNL     1       5.883   5.598  15.612  0.00  0.00    +0.000 A 
ATOM     21  N   UNL     1       6.600   6.290  16.489  0.00  0.00    +0.000 NA
ATOM     22  N   UNL     1       5.728   6.775  17.439  0.00  0.00    +0.000 NA
ATOM     23  C   UNL     1       4.526   6.353  17.108  0.00  0.00    +0.000 A 
ATOM     24  O   UNL     1       4.538   5.587  15.973  0.00  0.00    +0.000 OA
BRANCH  20  28
ATOM     25  C   UNL     1       7.154   3.791  11.929  0.00  0.00    +0.000 A 
ATOM     26  C   UNL     1       7.882   4.833  12.503  0.00  0.00    +0.000 A 
ATOM     27  C   UNL     1       7.453   5.411  13.709  0.00  0.00    +0.000 A 
ATOM     28  C   UNL     1       6.291   4.961  14.367  0.00  0.00    +0.000 A 
ATOM     29  C   UNL     1       5.572   3.920  13.768  0.00  0.00    +0.000 A 
ATOM     30  C   UNL     1       6.002   3.338  12.562  0.00  0.00    +0.000 A 
ENDBRANCH  20  28
ENDBRANCH   1  23
TORSDOF 3
ENDMDL
MODEL 5
REMARK VINA RESULT:      -9.2      1.792      7.402
REMARK  Name = 
REMARK  3 active torsions:
REMARK  status: ('A' for Active; 'I' for Inactive)
REMARK    1  A    between atoms: C_4  and  C_5
REMARK    2  A    between atoms: C_8  and  C_9
REMARK    3  A    between atoms: N_11  and  C_12
REMARK                            x       y       z     vdW  Elec       q    Type
REMARK                         _______ _______ _______ _____ _____    ______ ____
ROOT
ATOM      1  C   UNL     1       2.984   7.472  18.497  0.00  0.00    +0.000 A 
ATOM      2  N   UNL     1       3.603   7.528  17.288  0.00  0.00    +0.000 NA
ATOM      3  N   UNL     1       3.983   6.218  17.107  0.00  0.00    +0.000 N 
ATOM      4  C   UNL     1       3.222   5.431  17.945  0.00  0.00    +0.000 A 
ATOM      5  N   UNL     1       2.581   4.251  17.814  0.00  0.00    +0.000 NA
ATOM      6  C   UNL     1       2.064   3.868  19.010  0.00  0.00    +0.000 A 
ATOM      7  C   UNL     1       0.859   3.189  19.128  0.00  0.00    +0.000 A 
ATOM      8  C   UNL     1       0.404   2.756  20.375  0.00  0.00    +0.000 A 
ATOM      9  C   UNL     1       1.281   2.783  21.450  0.00  0.00    +0.000 A 
ATOM     10  C   UNL     1       2.437   3.543  21.343  0.00  0.00    +0.000 A 
ATOM     11  C   UNL     1       2.605   4.332  20.217  0.00  0.00    +0.000 A 
ATOM     12  N   UNL     1       3.096   5.588  20.305  0.00  0.00    +0.000 NA
ATOM     13  C   UNL     1       3.224   6.203  19.098  0.00  0.00    +0.000 A 
ENDROOT
BRANCH   3  14
ATOM     14  C   UNL     1       5.194   5.840  16.462  0.00  0.00    +0.000 A 
ATOM     15  C   UNL     1       6.327   5.549  17.235  0.00  0.00    +0.000 A 
ATOM     16  C   UNL     1       7.464   5.005  16.632  0.00  0.00    +0.000 A 
ATOM     17  C   UNL     1       7.483   4.763  15.258  0.00  0.00    +0.000 A 
ATOM     18  C   UNL     1       6.368   5.066  14.480  0.00  0.00    +0.000 A 
ATOM     19  C   UNL     1       5.221   5.596  15.079  0.00  0.00    +0.000 A 
ENDBRANCH   3  14
BRANCH   1  23
ATOM     20  C   UNL     1       0.068   9.615  18.828  0.00  0.00    +0.000 A 
ATOM     21  N   UNL     1       0.415   9.489  20.104  0.00  0.00    +0.000 NA
ATOM     22  N   UNL     1       1.584   8.761  20.140  0.00  0.00    +0.000 NA
ATOM     23  C   UNL     1       1.902   8.484  18.894  0.00  0.00    +0.000 A 
ATOM     24  O   UNL     1       1.005   9.003  18.000  0.00  0.00    +0.000 OA
BRANCH  20  28
ATOM     25  C   UNL     1      -3.470  11.404  17.177  0.00  0.00    +0.000 A 
ATOM     26  C   UNL     1      -2.964  11.824  18.407  0.00  0.00    +0.000 A 
ATOM     27  C   UNL     1      -1.805  11.229  18.932  0.00  0.00    +0.000 A 
ATOM     28  C   UNL     1      -1.126  10.206  18.240  0.00  0.00    +0.000 A 
ATOM     29  C   UNL     1      -1.657   9.795  17.011  0.00  0.00    +0.000 A 
ATOM     30  C   UNL     1      -2.816  10.391  16.483  0.00  0.00    +0.000 A 
ENDBRANCH  20  28
ENDBRANCH   1  23
TORSDOF 3
ENDMDL
MODEL 6
REMARK VINA RESULT:      -8.9      1.705      7.282
REMARK  Name = 
REMARK  3 active torsions:
REMARK  status: ('A' for Active; 'I' for Inactive)
REMARK    1  A    between atoms: C_4  and  C_5
REMARK    2  A    between atoms: C_8  and  C_9
REMARK    3  A    between atoms: N_11  and  C_12
REMARK                            x       y       z     vdW  Elec       q    Type
REMARK                         _______ _______ _______ _____ _____    ______ ____
ROOT
ATOM      1  C   UNL     1       3.133   7.181  18.410  0.00  0.00    +0.000 A 
ATOM      2  N   UNL     1       3.658   7.185  17.156  0.00  0.00    +0.000 NA
ATOM      3  N   UNL     1       3.969   5.857  16.978  0.00  0.00    +0.000 N 
ATOM      4  C   UNL     1       3.243   5.120  17.891  0.00  0.00    +0.000 A 
ATOM      5  N   UNL     1       2.546   3.966  17.837  0.00  0.00    +0.000 NA
ATOM      6  C   UNL     1       2.108   3.631  19.079  0.00  0.00    +0.000 A 
ATOM      7  C   UNL     1       0.889   3.008  19.305  0.00  0.00    +0.000 A 
ATOM      8  C   UNL     1       0.515   2.619  20.593  0.00  0.00    +0.000 A 
ATOM      9  C   UNL     1       1.473   2.631  21.597  0.00  0.00    +0.000 A 
ATOM     10  C   UNL     1       2.647   3.339  21.383  0.00  0.00    +0.000 A 
ATOM     11  C   UNL     1       2.760   4.096  20.228  0.00  0.00    +0.000 A 
ATOM     12  N   UNL     1       3.307   5.332  20.248  0.00  0.00    +0.000 NA
ATOM     13  C   UNL     1       3.366   5.916  19.021  0.00  0.00    +0.000 A 
ENDROOT
BRANCH   3  14
ATOM     14  C   UNL     1       5.109   5.413  16.250  0.00  0.00    +0.000 A 
ATOM     15  C   UNL     1       4.935   4.576  15.140  0.00  0.00    +0.000 A 
ATOM     16  C   UNL     1       6.022   4.279  14.312  0.00  0.00    +0.000 A 
ATOM     17  C   UNL     1       7.284   4.801  14.594  0.00  0.00    +0.000 A 
ATOM     18  C   UNL     1       7.468   5.621  15.706  0.00  0.00    +0.000 A 
ATOM     19  C   UNL     1       6.383   5.935  16.530  0.00  0.00    +0.000 A 
ENDBRANCH   3  14
BRANCH   1  23
ATOM     20  C   UNL     1       0.369   9.493  18.880  0.00  0.00    +0.000 A 
ATOM     21  N   UNL     1       0.737   9.305  20.141  0.00  0.00    +0.000 NA
ATOM     22  N   UNL     1       1.858   8.504  20.126  0.00  0.00    +0.000 NA
ATOM     23  C   UNL     1       2.128   8.247  18.864  0.00  0.00    +0.000 A 
ATOM     24  O   UNL     1       1.244   8.849  18.009  0.00  0.00    +0.000 OA
BRANCH  20  28
ATOM     25  C   UNL     1      -3.068  11.451  17.205  0.00  0.00    +0.000 A 
ATOM     26  C   UNL     1      -2.515  10.328  16.591  0.00  0.00    +0.000 A 
ATOM     27  C   UNL     1      -1.392   9.698  17.153  0.00  0.00    +0.000 A 
ATOM     28  C   UNL     1      -0.799  10.175  18.340  0.00  0.00    +0.000 A 
ATOM     29  C   UNL     1      -1.366  11.309  18.934  0.00  0.00    +0.000 A 
ATOM     30  C   UNL     1      -2.492  11.939  18.374  0.00  0.00    +0.000 A 
ENDBRANCH  20  28
ENDBRANCH   1  23
TORSDOF 3
ENDMDL
MODEL 7
REMARK VINA RESULT:      -8.5      3.774      7.338
REMARK  Name = 
REMARK  3 active torsions:
REMARK  status: ('A' for Active; 'I' for Inactive)
REMARK    1  A    between atoms: C_4  and  C_5
REMARK    2  A    between atoms: C_8  and  C_9
REMARK    3  A    between atoms: N_11  and  C_12
REMARK                            x       y       z     vdW  Elec       q    Type
REMARK                         _______ _______ _______ _____ _____    ______ ____
ROOT
ATOM      1  C   UNL     1       0.441  10.153  19.515  0.00  0.00    +0.000 A 
ATOM      2  N   UNL     1      -0.801  10.127  18.964  0.00  0.00    +0.000 NA
ATOM      3  N   UNL     1      -1.124  11.463  18.936  0.00  0.00    +0.000 N 
ATOM      4  C   UNL     1       0.044  12.189  19.041  0.00  0.00    +0.000 A 
ATOM      5  N   UNL     1       0.536  13.287  18.430  0.00  0.00    +0.000 NA
ATOM      6  C   UNL     1       1.712  13.650  19.004  0.00  0.00    +0.000 A 
ATOM      7  C   UNL     1       2.766  14.195  18.284  0.00  0.00    +0.000 A 
ATOM      8  C   UNL     1       3.929  14.617  18.931  0.00  0.00    +0.000 A 
ATOM      9  C   UNL     1       3.920  14.722  20.315  0.00  0.00    +0.000 A 
ATOM     10  C   UNL     1       2.906  14.090  21.020  0.00  0.00    +0.000 A 
ATOM     11  C   UNL     1       2.018  13.287  20.323  0.00  0.00    +0.000 A 
ATOM     12  N   UNL     1       1.611  12.096  20.814  0.00  0.00    +0.000 NA
ATOM     13  C   UNL     1       0.715  11.460  20.012  0.00  0.00    +0.000 A 
ENDROOT
BRANCH   3  14
ATOM     14  C   UNL     1      -2.444  11.951  19.150  0.00  0.00    +0.000 A 
ATOM     15  C   UNL     1      -3.472  11.566  18.277  0.00  0.00    +0.000 A 
ATOM     16  C   UNL     1      -4.799  11.888  18.575  0.00  0.00    +0.000 A 
ATOM     17  C   UNL     1      -5.106  12.606  19.731  0.00  0.00    +0.000 A 
ATOM     18  C   UNL     1      -4.089  13.008  20.594  0.00  0.00    +0.000 A 
ATOM     19  C   UNL     1      -2.760  12.676  20.311  0.00  0.00    +0.000 A 
ENDBRANCH   3  14
BRANCH   1  23
ATOM     20  C   UNL     1       2.376   7.089  19.248  0.00  0.00    +0.000 A 
ATOM     21  N   UNL     1       2.766   7.712  18.143  0.00  0.00    +0.000 NA
ATOM     22  N   UNL     1       2.175   8.956  18.144  0.00  0.00    +0.000 NA
ATOM     23  C   UNL     1       1.463   9.042  19.247  0.00  0.00    +0.000 A 
ATOM     24  O   UNL     1       1.549   7.909  20.011  0.00  0.00    +0.000 OA
BRANCH  20  28
ATOM     25  C   UNL     1       3.055   3.077  20.623  0.00  0.00    +0.000 A 
ATOM     26  C   UNL     1       2.050   3.864  21.184  0.00  0.00    +0.000 A 
ATOM     27  C   UNL     1       1.840   5.174  20.721  0.00  0.00    +0.000 A 
ATOM     28  C   UNL     1       2.627   5.723  19.689  0.00  0.00    +0.000 A 
ATOM     29  C   UNL     1       3.635   4.917  19.146  0.00  0.00    +0.000 A 
ATOM     30  C   UNL     1       3.844   3.605  19.606  0.00  0.00    +0.000 A 
ENDBRANCH  20  28
ENDBRANCH   1  23
TORSDOF 3
ENDMDL
MODEL 8
REMARK VINA RESULT:      -8.3      3.797      7.155
REMARK  Name = 
REMARK  3 active torsions:
REMARK  status: ('A' for Active; 'I' for Inactive)
REMARK    1  A    between atoms: C_4  and  C_5
REMARK    2  A    between atoms: C_8  and  C_9
REMARK    3  A    between atoms: N_11  and  C_12
REMARK                            x       y       z     vdW  Elec       q    Type
REMARK                         _______ _______ _______ _____ _____    ______ ____
ROOT
ATOM      1  C   UNL     1       0.360  10.276  19.104  0.00  0.00    +0.000 A 
ATOM      2  N   UNL     1      -0.904  10.224  18.606  0.00  0.00    +0.000 NA
ATOM      3  N   UNL     1      -1.334  11.517  18.797  0.00  0.00    +0.000 N 
ATOM      4  C   UNL     1      -0.223  12.318  18.963  0.00  0.00    +0.000 A 
ATOM      5  N   UNL     1       0.146  13.533  18.506  0.00  0.00    +0.000 NA
ATOM      6  C   UNL     1       1.319  13.907  19.080  0.00  0.00    +0.000 A 
ATOM      7  C   UNL     1       2.286  14.642  18.408  0.00  0.00    +0.000 A 
ATOM      8  C   UNL     1       3.445  15.063  19.063  0.00  0.00    +0.000 A 
ATOM      9  C   UNL     1       3.504  14.959  20.446  0.00  0.00    +0.000 A 
ATOM     10  C   UNL     1       2.583  14.144  21.088  0.00  0.00    +0.000 A 
ATOM     11  C   UNL     1       1.724  13.380  20.314  0.00  0.00    +0.000 A 
ATOM     12  N   UNL     1       1.440  12.099  20.634  0.00  0.00    +0.000 NA
ATOM     13  C   UNL     1       0.555  11.513  19.782  0.00  0.00    +0.000 A 
ENDROOT
BRANCH   3  14
ATOM     14  C   UNL     1      -2.675  11.852  19.137  0.00  0.00    +0.000 A 
ATOM     15  C   UNL     1      -2.923  12.636  20.272  0.00  0.00    +0.000 A 
ATOM     16  C   UNL     1      -4.211  13.122  20.517  0.00  0.00    +0.000 A 
ATOM     17  C   UNL     1      -5.256  12.816  19.645  0.00  0.00    +0.000 A 
ATOM     18  C   UNL     1      -5.020  12.023  18.524  0.00  0.00    +0.000 A 
ATOM     19  C   UNL     1      -3.731  11.547  18.263  0.00  0.00    +0.000 A 
ENDBRANCH   3  14
BRANCH   1  23
ATOM     20  C   UNL     1       2.502   7.462  18.269  0.00  0.00    +0.000 A 
ATOM     21  N   UNL     1       2.812   8.295  17.283  0.00  0.00    +0.000 NA
ATOM     22  N   UNL     1       2.134   9.472  17.514  0.00  0.00    +0.000 NA
ATOM     23  C   UNL     1       1.451   9.310  18.627  0.00  0.00    +0.000 A 
ATOM     24  O   UNL     1       1.641   8.072  19.178  0.00  0.00    +0.000 OA
BRANCH  20  28
ATOM     25  C   UNL     1       3.479   3.313  18.800  0.00  0.00    +0.000 A 
ATOM     26  C   UNL     1       2.278   3.694  18.200  0.00  0.00    +0.000 A 
ATOM     27  C   UNL     1       1.976   5.055  18.032  0.00  0.00    +0.000 A 
ATOM     28  C   UNL     1       2.864   6.064  18.458  0.00  0.00    +0.000 A 
ATOM     29  C   UNL     1       4.059   5.658  19.065  0.00  0.00    +0.000 A 
ATOM     30  C   UNL     1       4.365   4.295  19.231  0.00  0.00    +0.000 A 
ENDBRANCH  20  28
ENDBRANCH   1  23
TORSDOF 3
ENDMDL
MODEL 9
REMARK VINA RESULT:      -8.3      3.805      7.100
REMARK  Name = 
REMARK  3 active torsions:
REMARK  status: ('A' for Active; 'I' for Inactive)
REMARK    1  A    between atoms: C_4  and  C_5
REMARK    2  A    between atoms: C_8  and  C_9
REMARK    3  A    between atoms: N_11  and  C_12
REMARK                            x       y       z     vdW  Elec       q    Type
REMARK                         _______ _______ _______ _____ _____    ______ ____
ROOT
ATOM      1  C   UNL     1       0.443  10.288  19.076  0.00  0.00    +0.000 A 
ATOM      2  N   UNL     1      -0.810  10.285  18.549  0.00  0.00    +0.000 NA
ATOM      3  N   UNL     1      -1.200  11.589  18.747  0.00  0.00    +0.000 N 
ATOM      4  C   UNL     1      -0.068  12.350  18.950  0.00  0.00    +0.000 A 
ATOM      5  N   UNL     1       0.352  13.558  18.518  0.00  0.00    +0.000 NA
ATOM      6  C   UNL     1       1.523  13.885  19.123  0.00  0.00    +0.000 A 
ATOM      7  C   UNL     1       2.529  14.596  18.484  0.00  0.00    +0.000 A 
ATOM      8  C   UNL     1       3.686  14.969  19.171  0.00  0.00    +0.000 A 
ATOM      9  C   UNL     1       3.709  14.846  20.553  0.00  0.00    +0.000 A 
ATOM     10  C   UNL     1       2.747  14.054  21.163  0.00  0.00    +0.000 A 
ATOM     11  C   UNL     1       1.882  13.329  20.359  0.00  0.00    +0.000 A 
ATOM     12  N   UNL     1       1.548  12.054  20.655  0.00  0.00    +0.000 NA
ATOM     13  C   UNL     1       0.664  11.510  19.776  0.00  0.00    +0.000 A 
ENDROOT
BRANCH   3  14
ATOM     14  C   UNL     1      -2.537  11.964  19.061  0.00  0.00    +0.000 A 
ATOM     15  C   UNL     1      -3.590  11.496  18.263  0.00  0.00    +0.000 A 
ATOM     16  C   UNL     1      -4.914  11.705  18.660  0.00  0.00    +0.000 A 
ATOM     17  C   UNL     1      -5.194  12.392  19.842  0.00  0.00    +0.000 A 
ATOM     18  C   UNL     1      -4.153  12.874  20.631  0.00  0.00    +0.000 A 
ATOM     19  C   UNL     1      -2.825  12.656  20.249  0.00  0.00    +0.000 A 
ENDBRANCH   3  14
BRANCH   1  23
ATOM     20  C   UNL     1       2.510   7.415  18.253  0.00  0.00    +0.000 A 
ATOM     21  N   UNL     1       2.870   8.250  17.285  0.00  0.00    +0.000 NA
ATOM     22  N   UNL     1       2.226   9.446  17.516  0.00  0.00    +0.000 NA
ATOM     23  C   UNL     1       1.513   9.292  18.611  0.00  0.00    +0.000 A 
ATOM     24  O   UNL     1       1.650   8.042  19.151  0.00  0.00    +0.000 OA
BRANCH  20  28
ATOM     25  C   UNL     1       3.518   3.278  18.816  0.00  0.00    +0.000 A 
ATOM     26  C   UNL     1       4.336   4.289  19.322  0.00  0.00    +0.000 A 
ATOM     27  C   UNL     1       3.990   5.636  19.131  0.00  0.00    +0.000 A 
ATOM     28  C   UNL     1       2.822   6.004  18.432  0.00  0.00    +0.000 A 
ATOM     29  C   UNL     1       2.021   4.973  17.926  0.00  0.00    +0.000 A 
ATOM     30  C   UNL     1       2.364   3.623  18.119  0.00  0.00    +0.000 A 
ENDBRANCH  20  28
ENDBRANCH   1  23
TORSDOF 3
ENDMDL
