MODEL 1
REMARK VINA RESULT:      -8.1      0.000      0.000
REMARK  Name = 
REMARK  7 active torsions:
REMARK  status: ('A' for Active; 'I' for Inactive)
REMARK    1  A    between atoms: C_1  and  O_2
REMARK    2  A    between atoms: O_2  and  C_3
REMARK    3  A    between atoms: C_6  and  C_7
REMARK    4  A    between atoms: N_9  and  C_10
REMARK    5  A    between atoms: C_10  and  C_11
REMARK    6  A    between atoms: N_25  and  C_26
REMARK    7  A    between atoms: C_31  and  C_32
REMARK                            x       y       z     vdW  Elec       q    Type
REMARK                         _______ _______ _______ _____ _____    ______ ____
ROOT
ATOM      1  C   UNL     1      -0.620  11.982  20.968  0.00  0.00    +0.000 C 
ATOM      2  C   UNL     1      -0.012  12.974  21.679  0.00  0.00    +0.000 C 
ATOM      3  C   UNL     1       0.390  14.279  21.021  0.00  0.00    +0.000 C 
ATOM      4  O   UNL     1      -0.660  15.296  21.143  0.00  0.00    +0.000 OA
ATOM      5  C   UNL     1      -0.761  16.221  20.109  0.00  0.00    +0.000 A 
ATOM      6  C   UNL     1      -1.894  17.028  20.061  0.00  0.00    +0.000 A 
ATOM      7  C   UNL     1      -2.095  17.904  18.978  0.00  0.00    +0.000 A 
ATOM      8  C   UNL     1      -1.147  18.016  17.957  0.00  0.00    +0.000 A 
ATOM      9  C   UNL     1      -0.008  17.225  17.990  0.00  0.00    +0.000 A 
ATOM     10  C   UNL     1       0.151  16.317  19.045  0.00  0.00    +0.000 A 
ATOM     11  C   UNL     1       1.116  15.229  18.886  0.00  0.00    +0.000 C 
ATOM     12  O   UNL     1       2.147  15.276  18.238  0.00  0.00    +0.000 OA
ATOM     13  C   UNL     1       0.616  14.042  19.575  0.00  0.00    +0.000 C 
ATOM     14  C   UNL     1      -0.241  13.216  18.954  0.00  0.00    +0.000 C 
ATOM     15  N   UNL     1      -0.988  12.226  19.598  0.00  0.00    +0.000 N 
ENDROOT
BRANCH  15  16
ATOM     16  C   UNL     1      -2.266  11.754  19.083  0.00  0.00    +0.000 A 
ATOM     17  N   UNL     1      -3.400  12.334  19.584  0.00  0.00    +0.000 NA
ATOM     18  C   UNL     1      -4.613  12.029  19.053  0.00  0.00    +0.000 A 
ATOM     19  C   UNL     1      -4.797  11.149  18.011  0.00  0.00    +0.000 A 
ATOM     20  C   UNL     1      -3.674  10.517  17.517  0.00  0.00    +0.000 A 
ATOM     21  C   UNL     1      -2.395  10.773  18.067  0.00  0.00    +0.000 A 
ATOM     22  C   UNL     1      -1.284   9.941  17.497  0.00  0.00    +0.000 C 
ENDBRANCH  15  16
BRANCH   1  23
ATOM     23  C   UNL     1      -0.762  10.562  21.535  0.00  0.00    +0.000 C 
BRANCH  23  26
ATOM     24  C   UNL     1       1.054   8.869  21.185  0.00  0.00    +0.000 C 
ATOM     25  O   UNL     1       1.483   8.961  22.318  0.00  0.00    +0.000 OA
ATOM     26  N   UNL     1      -0.012   9.608  20.700  0.00  0.00    +0.000 N 
ATOM     27  H   UNL     1      -0.504   9.251  19.894  0.00  0.00    +0.000 HD
BRANCH  24  31
ATOM     28  C   UNL     1       2.857   6.066  18.418  0.00  0.00    +0.000 A 
ATOM     29  C   UNL     1       2.630   7.393  18.042  0.00  0.00    +0.000 A 
ATOM     30  C   UNL     1       2.047   8.303  18.942  0.00  0.00    +0.000 A 
ATOM     31  C   UNL     1       1.676   7.888  20.227  0.00  0.00    +0.000 A 
ATOM     32  C   UNL     1       1.853   6.543  20.577  0.00  0.00    +0.000 A 
ATOM     33  C   UNL     1       2.444   5.639  19.680  0.00  0.00    +0.000 A 
BRANCH  28  35
ATOM     34  C   UNL     1       3.036   3.895  17.494  0.00  0.00    +0.000 C 
ATOM     35  O   UNL     1       3.426   5.265  17.466  0.00  0.00    +0.000 OA
ENDBRANCH  28  35
ENDBRANCH  24  31
ENDBRANCH  23  26
ENDBRANCH   1  23
TORSDOF 5
ENDMDL
MODEL 2
REMARK VINA RESULT:      -7.8      0.842      1.346
REMARK  Name = 
REMARK  7 active torsions:
REMARK  status: ('A' for Active; 'I' for Inactive)
REMARK    1  A    between atoms: C_1  and  O_2
REMARK    2  A    between atoms: O_2  and  C_3
REMARK    3  A    between atoms: C_6  and  C_7
REMARK    4  A    between atoms: N_9  and  C_10
REMARK    5  A    between atoms: C_10  and  C_11
REMARK    6  A    between atoms: N_25  and  C_26
REMARK    7  A    between atoms: C_31  and  C_32
REMARK                            x       y       z     vdW  Elec       q    Type
REMARK                         _______ _______ _______ _____ _____    ______ ____
ROOT
ATOM      1  C   UNL     1      -0.422  11.809  21.117  0.00  0.00    +0.000 C 
ATOM      2  C   UNL     1      -0.078  12.844  21.936  0.00  0.00    +0.000 C 
ATOM      3  C   UNL     1       0.465  14.142  21.375  0.00  0.00    +0.000 C 
ATOM      4  O   UNL     1      -0.600  15.123  21.141  0.00  0.00    +0.000 OA
ATOM      5  C   UNL     1      -0.414  16.013  20.088  0.00  0.00    +0.000 A 
ATOM      6  C   UNL     1      -1.503  16.775  19.675  0.00  0.00    +0.000 A 
ATOM      7  C   UNL     1      -1.397  17.610  18.547  0.00  0.00    +0.000 A 
ATOM      8  C   UNL     1      -0.193  17.726  17.848  0.00  0.00    +0.000 A 
ATOM      9  C   UNL     1       0.906  16.980  18.247  0.00  0.00    +0.000 A 
ATOM     10  C   UNL     1       0.769  16.110  19.337  0.00  0.00    +0.000 A 
ATOM     11  C   UNL     1       1.766  15.054  19.514  0.00  0.00    +0.000 C 
ATOM     12  O   UNL     1       2.941  15.120  19.198  0.00  0.00    +0.000 OA
ATOM     13  C   UNL     1       1.116  13.871  20.071  0.00  0.00    +0.000 C 
ATOM     14  C   UNL     1       0.504  12.995  19.258  0.00  0.00    +0.000 C 
ATOM     15  N   UNL     1      -0.374  11.998  19.692  0.00  0.00    +0.000 N 
ENDROOT
BRANCH  15  16
ATOM     16  C   UNL     1      -1.429  11.464  18.841  0.00  0.00    +0.000 A 
ATOM     17  N   UNL     1      -1.071  10.526  17.910  0.00  0.00    +0.000 NA
ATOM     18  C   UNL     1      -2.025   9.896  17.175  0.00  0.00    +0.000 A 
ATOM     19  C   UNL     1      -3.374  10.138  17.299  0.00  0.00    +0.000 A 
ATOM     20  C   UNL     1      -3.759  11.111  18.200  0.00  0.00    +0.000 A 
ATOM     21  C   UNL     1      -2.796  11.821  18.957  0.00  0.00    +0.000 A 
ATOM     22  C   UNL     1      -3.352  12.915  19.819  0.00  0.00    +0.000 C 
ENDBRANCH  15  16
BRANCH   1  23
ATOM     23  C   UNL     1      -0.688  10.402  21.673  0.00  0.00    +0.000 C 
BRANCH  23  26
ATOM     24  C   UNL     1       1.147   8.749  21.244  0.00  0.00    +0.000 C 
ATOM     25  O   UNL     1       1.718   8.974  22.292  0.00  0.00    +0.000 OA
ATOM     26  N   UNL     1      -0.010   9.395  20.841  0.00  0.00    +0.000 N 
ATOM     27  H   UNL     1      -0.587   8.937  20.149  0.00  0.00    +0.000 HD
BRANCH  24  31
ATOM     28  C   UNL     1       2.706   5.739  18.547  0.00  0.00    +0.000 A 
ATOM     29  C   UNL     1       2.617   7.075  18.148  0.00  0.00    +0.000 A 
ATOM     30  C   UNL     1       2.112   8.052  19.025  0.00  0.00    +0.000 A 
ATOM     31  C   UNL     1       1.684   7.696  20.311  0.00  0.00    +0.000 A 
ATOM     32  C   UNL     1       1.721   6.346  20.683  0.00  0.00    +0.000 A 
ATOM     33  C   UNL     1       2.234   5.375  19.808  0.00  0.00    +0.000 A 
BRANCH  28  35
ATOM     34  C   UNL     1       2.476   3.660  17.441  0.00  0.00    +0.000 C 
ATOM     35  O   UNL     1       3.206   4.870  17.617  0.00  0.00    +0.000 OA
ENDBRANCH  28  35
ENDBRANCH  24  31
ENDBRANCH  23  26
ENDBRANCH   1  23
TORSDOF 5
ENDMDL
MODEL 3
REMARK VINA RESULT:      -7.8      2.893      9.685
REMARK  Name = 
REMARK  7 active torsions:
REMARK  status: ('A' for Active; 'I' for Inactive)
REMARK    1  A    between atoms: C_1  and  O_2
REMARK    2  A    between atoms: O_2  and  C_3
REMARK    3  A    between atoms: C_6  and  C_7
REMARK    4  A    between atoms: N_9  and  C_10
REMARK    5  A    between atoms: C_10  and  C_11
REMARK    6  A    between atoms: N_25  and  C_26
REMARK    7  A    between atoms: C_31  and  C_32
REMARK                            x       y       z     vdW  Elec       q    Type
REMARK                         _______ _______ _______ _____ _____    ______ ____
ROOT
ATOM      1  C   UNL     1       2.802   6.838  19.317  0.00  0.00    +0.000 C 
ATOM      2  C   UNL     1       3.260   7.718  18.382  0.00  0.00    +0.000 C 
ATOM      3  C   UNL     1       4.523   7.438  17.592  0.00  0.00    +0.000 C 
ATOM      4  O   UNL     1       4.234   6.759  16.324  0.00  0.00    +0.000 OA
ATOM      5  C   UNL     1       5.203   5.884  15.845  0.00  0.00    +0.000 A 
ATOM      6  C   UNL     1       4.857   5.036  14.796  0.00  0.00    +0.000 A 
ATOM      7  C   UNL     1       5.765   4.058  14.347  0.00  0.00    +0.000 A 
ATOM      8  C   UNL     1       7.040   3.947  14.908  0.00  0.00    +0.000 A 
ATOM      9  C   UNL     1       7.405   4.788  15.949  0.00  0.00    +0.000 A 
ATOM     10  C   UNL     1       6.471   5.718  16.425  0.00  0.00    +0.000 A 
ATOM     11  C   UNL     1       6.692   6.315  17.741  0.00  0.00    +0.000 C 
ATOM     12  O   UNL     1       7.775   6.537  18.253  0.00  0.00    +0.000 OA
ATOM     13  C   UNL     1       5.402   6.545  18.385  0.00  0.00    +0.000 C 
ATOM     14  C   UNL     1       4.804   5.553  19.065  0.00  0.00    +0.000 C 
ATOM     15  N   UNL     1       3.468   5.572  19.473  0.00  0.00    +0.000 N 
ENDROOT
BRANCH  15  16
ATOM     16  C   UNL     1       2.696   4.353  19.672  0.00  0.00    +0.000 A 
ATOM     17  N   UNL     1       2.455   3.964  20.963  0.00  0.00    +0.000 NA
ATOM     18  C   UNL     1       1.635   2.911  21.216  0.00  0.00    +0.000 A 
ATOM     19  C   UNL     1       1.005   2.175  20.238  0.00  0.00    +0.000 A 
ATOM     20  C   UNL     1       1.266   2.519  18.927  0.00  0.00    +0.000 A 
ATOM     21  C   UNL     1       2.146   3.584  18.616  0.00  0.00    +0.000 A 
ATOM     22  C   UNL     1       2.411   3.777  17.153  0.00  0.00    +0.000 C 
ENDBRANCH  15  16
BRANCH   1  23
ATOM     23  C   UNL     1       1.710   7.234  20.322  0.00  0.00    +0.000 C 
BRANCH  23  26
ATOM     24  C   UNL     1       0.212   9.198  20.753  0.00  0.00    +0.000 C 
ATOM     25  O   UNL     1      -0.423   8.638  21.623  0.00  0.00    +0.000 OA
ATOM     26  N   UNL     1       1.249   8.606  20.050  0.00  0.00    +0.000 N 
ATOM     27  H   UNL     1       1.920   9.213  19.602  0.00  0.00    +0.000 HD
BRANCH  24  31
ATOM     28  C   UNL     1      -0.656  13.323  19.757  0.00  0.00    +0.000 A 
ATOM     29  C   UNL     1       0.165  13.010  20.843  0.00  0.00    +0.000 A 
ATOM     30  C   UNL     1       0.448  11.670  21.165  0.00  0.00    +0.000 A 
ATOM     31  C   UNL     1      -0.098  10.629  20.403  0.00  0.00    +0.000 A 
ATOM     32  C   UNL     1      -0.968  10.949  19.353  0.00  0.00    +0.000 A 
ATOM     33  C   UNL     1      -1.241  12.287  19.028  0.00  0.00    +0.000 A 
BRANCH  28  35
ATOM     34  C   UNL     1       0.174  15.347  18.855  0.00  0.00    +0.000 C 
ATOM     35  O   UNL     1      -0.870  14.656  19.534  0.00  0.00    +0.000 OA
ENDBRANCH  28  35
ENDBRANCH  24  31
ENDBRANCH  23  26
ENDBRANCH   1  23
TORSDOF 5
ENDMDL
MODEL 4
REMARK VINA RESULT:      -7.8      1.145      1.563
REMARK  Name = 
REMARK  7 active torsions:
REMARK  status: ('A' for Active; 'I' for Inactive)
REMARK    1  A    between atoms: C_1  and  O_2
REMARK    2  A    between atoms: O_2  and  C_3
REMARK    3  A    between atoms: C_6  and  C_7
REMARK    4  A    between atoms: N_9  and  C_10
REMARK    5  A    between atoms: C_10  and  C_11
REMARK    6  A    between atoms: N_25  and  C_26
REMARK    7  A    between atoms: C_31  and  C_32
REMARK                            x       y       z     vdW  Elec       q    Type
REMARK                         _______ _______ _______ _____ _____    ______ ____
ROOT
ATOM      1  C   UNL     1      -0.062  11.620  20.422  0.00  0.00    +0.000 C 
ATOM      2  C   UNL     1       0.463  12.562  21.257  0.00  0.00    +0.000 C 
ATOM      3  C   UNL     1       0.817  13.947  20.755  0.00  0.00    +0.000 C 
ATOM      4  O   UNL     1      -0.291  14.892  20.933  0.00  0.00    +0.000 OA
ATOM      5  C   UNL     1      -0.402  15.914  19.996  0.00  0.00    +0.000 A 
ATOM      6  C   UNL     1      -1.576  16.662  19.981  0.00  0.00    +0.000 A 
ATOM      7  C   UNL     1      -1.783  17.635  18.984  0.00  0.00    +0.000 A 
ATOM      8  C   UNL     1      -0.804  17.901  18.023  0.00  0.00    +0.000 A 
ATOM      9  C   UNL     1       0.375  17.170  18.026  0.00  0.00    +0.000 A 
ATOM     10  C   UNL     1       0.543  16.166  18.988  0.00  0.00    +0.000 A 
ATOM     11  C   UNL     1       1.572  15.151  18.762  0.00  0.00    +0.000 C 
ATOM     12  O   UNL     1       2.623  15.318  18.169  0.00  0.00    +0.000 OA
ATOM     13  C   UNL     1       1.112  13.875  19.303  0.00  0.00    +0.000 C 
ATOM     14  C   UNL     1       0.327  13.076  18.563  0.00  0.00    +0.000 C 
ATOM     15  N   UNL     1      -0.389  11.987  19.070  0.00  0.00    +0.000 N 
ENDROOT
BRANCH  15  16
ATOM     16  C   UNL     1      -1.618  11.507  18.452  0.00  0.00    +0.000 A 
ATOM     17  N   UNL     1      -1.497  10.611  17.425  0.00  0.00    +0.000 NA
ATOM     18  C   UNL     1      -2.604  10.029  16.894  0.00  0.00    +0.000 A 
ATOM     19  C   UNL     1      -3.886  10.281  17.326  0.00  0.00    +0.000 A 
ATOM     20  C   UNL     1      -4.040  11.214  18.331  0.00  0.00    +0.000 A 
ATOM     21  C   UNL     1      -2.917  11.875  18.885  0.00  0.00    +0.000 A 
ATOM     22  C   UNL     1      -3.243  12.933  19.897  0.00  0.00    +0.000 C 
ENDBRANCH  15  16
BRANCH   1  23
ATOM     23  C   UNL     1      -0.146  10.143  20.834  0.00  0.00    +0.000 C 
BRANCH  23  26
ATOM     24  C   UNL     1       1.391   8.191  20.499  0.00  0.00    +0.000 C 
ATOM     25  O   UNL     1       1.245   7.767  21.627  0.00  0.00    +0.000 OA
ATOM     26  N   UNL     1       0.780   9.339  20.020  0.00  0.00    +0.000 N 
ATOM     27  H   UNL     1       0.683   9.438  19.020  0.00  0.00    +0.000 HD
BRANCH  24  31
ATOM     28  C   UNL     1       3.901   6.059  17.685  0.00  0.00    +0.000 A 
ATOM     29  C   UNL     1       3.461   7.355  17.407  0.00  0.00    +0.000 A 
ATOM     30  C   UNL     1       2.647   8.048  18.322  0.00  0.00    +0.000 A 
ATOM     31  C   UNL     1       2.260   7.442  19.524  0.00  0.00    +0.000 A 
ATOM     32  C   UNL     1       2.656   6.121  19.770  0.00  0.00    +0.000 A 
ATOM     33  C   UNL     1       3.476   5.436  18.859  0.00  0.00    +0.000 A 
BRANCH  28  35
ATOM     34  C   UNL     1       5.213   6.353  15.738  0.00  0.00    +0.000 C 
ATOM     35  O   UNL     1       4.684   5.475  16.727  0.00  0.00    +0.000 OA
ENDBRANCH  28  35
ENDBRANCH  24  31
ENDBRANCH  23  26
ENDBRANCH   1  23
TORSDOF 5
ENDMDL
MODEL 5
REMARK VINA RESULT:      -7.8      3.496      9.537
REMARK  Name = 
REMARK  7 active torsions:
REMARK  status: ('A' for Active; 'I' for Inactive)
REMARK    1  A    between atoms: C_1  and  O_2
REMARK    2  A    between atoms: O_2  and  C_3
REMARK    3  A    between atoms: C_6  and  C_7
REMARK    4  A    between atoms: N_9  and  C_10
REMARK    5  A    between atoms: C_10  and  C_11
REMARK    6  A    between atoms: N_25  and  C_26
REMARK    7  A    between atoms: C_31  and  C_32
REMARK                            x       y       z     vdW  Elec       q    Type
REMARK                         _______ _______ _______ _____ _____    ______ ____
ROOT
ATOM      1  C   UNL     1       2.875   7.169  19.275  0.00  0.00    +0.000 C 
ATOM      2  C   UNL     1       3.316   7.956  18.251  0.00  0.00    +0.000 C 
ATOM      3  C   UNL     1       4.544   7.581  17.446  0.00  0.00    +0.000 C 
ATOM      4  O   UNL     1       4.196   6.802  16.252  0.00  0.00    +0.000 OA
ATOM      5  C   UNL     1       5.130   5.868  15.818  0.00  0.00    +0.000 A 
ATOM      6  C   UNL     1       4.731   4.941  14.859  0.00  0.00    +0.000 A 
ATOM      7  C   UNL     1       5.603   3.908  14.466  0.00  0.00    +0.000 A 
ATOM      8  C   UNL     1       6.895   3.818  14.990  0.00  0.00    +0.000 A 
ATOM      9  C   UNL     1       7.314   4.736  15.942  0.00  0.00    +0.000 A 
ATOM     10  C   UNL     1       6.416   5.724  16.366  0.00  0.00    +0.000 A 
ATOM     11  C   UNL     1       6.695   6.427  17.618  0.00  0.00    +0.000 C 
ATOM     12  O   UNL     1       7.800   6.668  18.071  0.00  0.00    +0.000 OA
ATOM     13  C   UNL     1       5.433   6.740  18.283  0.00  0.00    +0.000 C 
ATOM     14  C   UNL     1       4.842   5.824  19.066  0.00  0.00    +0.000 C 
ATOM     15  N   UNL     1       3.521   5.907  19.517  0.00  0.00    +0.000 N 
ENDROOT
BRANCH  15  16
ATOM     16  C   UNL     1       2.734   4.727  19.847  0.00  0.00    +0.000 A 
ATOM     17  N   UNL     1       2.688   4.349  21.162  0.00  0.00    +0.000 NA
ATOM     18  C   UNL     1       1.870   3.337  21.552  0.00  0.00    +0.000 A 
ATOM     19  C   UNL     1       1.054   2.634  20.694  0.00  0.00    +0.000 A 
ATOM     20  C   UNL     1       1.115   2.966  19.356  0.00  0.00    +0.000 A 
ATOM     21  C   UNL     1       1.983   3.987  18.900  0.00  0.00    +0.000 A 
ATOM     22  C   UNL     1       2.015   4.169  17.411  0.00  0.00    +0.000 C 
ENDBRANCH  15  16
BRANCH   1  23
ATOM     23  C   UNL     1       1.828   7.675  20.278  0.00  0.00    +0.000 C 
BRANCH  23  26
ATOM     24  C   UNL     1       0.370   9.656  19.794  0.00  0.00    +0.000 C 
ATOM     25  O   UNL     1       0.909  10.368  20.617  0.00  0.00    +0.000 OA
ATOM     26  N   UNL     1       0.724   8.337  19.564  0.00  0.00    +0.000 N 
ATOM     27  H   UNL     1       0.472   7.931  18.674  0.00  0.00    +0.000 HD
BRANCH  24  31
ATOM     28  C   UNL     1      -2.819  11.222  17.316  0.00  0.00    +0.000 A 
ATOM     29  C   UNL     1      -2.011  10.177  16.861  0.00  0.00    +0.000 A 
ATOM     30  C   UNL     1      -0.977   9.667  17.667  0.00  0.00    +0.000 A 
ATOM     31  C   UNL     1      -0.737  10.209  18.937  0.00  0.00    +0.000 A 
ATOM     32  C   UNL     1      -1.513  11.295  19.362  0.00  0.00    +0.000 A 
ATOM     33  C   UNL     1      -2.550  11.795  18.559  0.00  0.00    +0.000 A 
BRANCH  28  35
ATOM     34  C   UNL     1      -5.090  11.814  17.014  0.00  0.00    +0.000 C 
ATOM     35  O   UNL     1      -3.792  11.644  16.452  0.00  0.00    +0.000 OA
ENDBRANCH  28  35
ENDBRANCH  24  31
ENDBRANCH  23  26
ENDBRANCH   1  23
TORSDOF 5
ENDMDL
MODEL 6
REMARK VINA RESULT:      -7.7      0.680      1.083
REMARK  Name = 
REMARK  7 active torsions:
REMARK  status: ('A' for Active; 'I' for Inactive)
REMARK    1  A    between atoms: C_1  and  O_2
REMARK    2  A    between atoms: O_2  and  C_3
REMARK    3  A    between atoms: C_6  and  C_7
REMARK    4  A    between atoms: N_9  and  C_10
REMARK    5  A    between atoms: C_10  and  C_11
REMARK    6  A    between atoms: N_25  and  C_26
REMARK    7  A    between atoms: C_31  and  C_32
REMARK                            x       y       z     vdW  Elec       q    Type
REMARK                         _______ _______ _______ _____ _____    ______ ____
ROOT
ATOM      1  C   UNL     1      -0.337  11.731  20.641  0.00  0.00    +0.000 C 
ATOM      2  C   UNL     1       0.214  12.688  21.441  0.00  0.00    +0.000 C 
ATOM      3  C   UNL     1       0.478  14.088  20.923  0.00  0.00    +0.000 C 
ATOM      4  O   UNL     1      -0.648  14.990  21.191  0.00  0.00    +0.000 OA
ATOM      5  C   UNL     1      -0.868  16.011  20.273  0.00  0.00    +0.000 A 
ATOM      6  C   UNL     1      -2.066  16.715  20.351  0.00  0.00    +0.000 A 
ATOM      7  C   UNL     1      -2.383  17.683  19.381  0.00  0.00    +0.000 A 
ATOM      8  C   UNL     1      -1.491  17.990  18.350  0.00  0.00    +0.000 A 
ATOM      9  C   UNL     1      -0.289  17.304  18.259  0.00  0.00    +0.000 A 
ATOM     10  C   UNL     1      -0.011  16.302  19.199  0.00  0.00    +0.000 A 
ATOM     11  C   UNL     1       1.034  15.328  18.888  0.00  0.00    +0.000 C 
ATOM     12  O   UNL     1       2.030  15.537  18.218  0.00  0.00    +0.000 OA
ATOM     13  C   UNL     1       0.664  14.033  19.453  0.00  0.00    +0.000 C 
ATOM     14  C   UNL     1      -0.145  13.208  18.769  0.00  0.00    +0.000 C 
ATOM     15  N   UNL     1      -0.779  12.092  19.320  0.00  0.00    +0.000 N 
ENDROOT
BRANCH  15  16
ATOM     16  C   UNL     1      -2.033  11.568  18.794  0.00  0.00    +0.000 A 
ATOM     17  N   UNL     1      -3.192  12.151  19.232  0.00  0.00    +0.000 NA
ATOM     18  C   UNL     1      -4.383  11.796  18.683  0.00  0.00    +0.000 A 
ATOM     19  C   UNL     1      -4.520  10.860  17.685  0.00  0.00    +0.000 A 
ATOM     20  C   UNL     1      -3.372  10.224  17.256  0.00  0.00    +0.000 A 
ATOM     21  C   UNL     1      -2.115  10.534  17.828  0.00  0.00    +0.000 A 
ATOM     22  C   UNL     1      -0.973   9.695  17.334  0.00  0.00    +0.000 C 
ENDBRANCH  15  16
BRANCH   1  23
ATOM     23  C   UNL     1      -0.336  10.250  21.048  0.00  0.00    +0.000 C 
BRANCH  23  26
ATOM     24  C   UNL     1       1.196   8.314  20.613  0.00  0.00    +0.000 C 
ATOM     25  O   UNL     1       1.025   7.816  21.707  0.00  0.00    +0.000 OA
ATOM     26  N   UNL     1       0.602   9.495  20.201  0.00  0.00    +0.000 N 
ATOM     27  H   UNL     1       0.526   9.662  19.207  0.00  0.00    +0.000 HD
BRANCH  24  31
ATOM     28  C   UNL     1       3.732   6.309  17.730  0.00  0.00    +0.000 A 
ATOM     29  C   UNL     1       3.449   5.716  18.963  0.00  0.00    +0.000 A 
ATOM     30  C   UNL     1       2.624   6.367  19.898  0.00  0.00    +0.000 A 
ATOM     31  C   UNL     1       2.081   7.625  19.608  0.00  0.00    +0.000 A 
ATOM     32  C   UNL     1       2.416   8.239  18.394  0.00  0.00    +0.000 A 
ATOM     33  C   UNL     1       3.232   7.583  17.459  0.00  0.00    +0.000 A 
BRANCH  28  35
ATOM     34  C   UNL     1       4.529   4.180  17.072  0.00  0.00    +0.000 C 
ATOM     35  O   UNL     1       4.548   5.594  16.896  0.00  0.00    +0.000 OA
ENDBRANCH  28  35
ENDBRANCH  24  31
ENDBRANCH  23  26
ENDBRANCH   1  23
TORSDOF 5
ENDMDL
MODEL 7
REMARK VINA RESULT:      -7.7      2.579      3.758
REMARK  Name = 
REMARK  7 active torsions:
REMARK  status: ('A' for Active; 'I' for Inactive)
REMARK    1  A    between atoms: C_1  and  O_2
REMARK    2  A    between atoms: O_2  and  C_3
REMARK    3  A    between atoms: C_6  and  C_7
REMARK    4  A    between atoms: N_9  and  C_10
REMARK    5  A    between atoms: C_10  and  C_11
REMARK    6  A    between atoms: N_25  and  C_26
REMARK    7  A    between atoms: C_31  and  C_32
REMARK                            x       y       z     vdW  Elec       q    Type
REMARK                         _______ _______ _______ _____ _____    ______ ____
ROOT
ATOM      1  C   UNL     1      -0.501  10.556  19.094  0.00  0.00    +0.000 C 
ATOM      2  C   UNL     1       0.101  10.256  20.281  0.00  0.00    +0.000 C 
ATOM      3  C   UNL     1       0.061  11.222  21.448  0.00  0.00    +0.000 C 
ATOM      4  O   UNL     1      -1.073  10.953  22.340  0.00  0.00    +0.000 OA
ATOM      5  C   UNL     1      -1.627  12.045  22.999  0.00  0.00    +0.000 A 
ATOM      6  C   UNL     1      -2.851  11.871  23.640  0.00  0.00    +0.000 A 
ATOM      7  C   UNL     1      -3.505  12.969  24.228  0.00  0.00    +0.000 A 
ATOM      8  C   UNL     1      -2.925  14.241  24.223  0.00  0.00    +0.000 A 
ATOM      9  C   UNL     1      -1.703  14.433  23.595  0.00  0.00    +0.000 A 
ATOM     10  C   UNL     1      -1.090  13.343  22.964  0.00  0.00    +0.000 A 
ATOM     11  C   UNL     1      -0.035  13.608  21.986  0.00  0.00    +0.000 C 
ATOM     12  O   UNL     1       0.741  14.546  22.009  0.00  0.00    +0.000 OA
ATOM     13  C   UNL     1      -0.099  12.602  20.929  0.00  0.00    +0.000 C 
ATOM     14  C   UNL     1      -0.938  12.768  19.894  0.00  0.00    +0.000 C 
ATOM     15  N   UNL     1      -1.282  11.759  18.990  0.00  0.00    +0.000 N 
ENDROOT
BRANCH  15  16
ATOM     16  C   UNL     1      -2.550  11.755  18.272  0.00  0.00    +0.000 A 
ATOM     17  N   UNL     1      -2.523  11.408  16.948  0.00  0.00    +0.000 NA
ATOM     18  C   UNL     1      -3.683  11.260  16.258  0.00  0.00    +0.000 A 
ATOM     19  C   UNL     1      -4.932  11.440  16.807  0.00  0.00    +0.000 A 
ATOM     20  C   UNL     1      -4.987  11.833  18.129  0.00  0.00    +0.000 A 
ATOM     21  C   UNL     1      -3.801  12.038  18.875  0.00  0.00    +0.000 A 
ATOM     22  C   UNL     1      -4.013  12.560  20.266  0.00  0.00    +0.000 C 
ENDBRANCH  15  16
BRANCH   1  23
ATOM     23  C   UNL     1      -0.221   9.737  17.826  0.00  0.00    +0.000 C 
BRANCH  23  26
ATOM     24  C   UNL     1       2.037   8.648  17.835  0.00  0.00    +0.000 C 
ATOM     25  O   UNL     1       2.585   9.570  17.265  0.00  0.00    +0.000 OA
ATOM     26  N   UNL     1       0.686   8.619  18.137  0.00  0.00    +0.000 N 
ATOM     27  H   UNL     1       0.382   8.003  18.877  0.00  0.00    +0.000 HD
BRANCH  24  31
ATOM     28  C   UNL     1       4.382   5.231  19.097  0.00  0.00    +0.000 A 
ATOM     29  C   UNL     1       4.726   5.945  17.946  0.00  0.00    +0.000 A 
ATOM     30  C   UNL     1       3.966   7.056  17.538  0.00  0.00    +0.000 A 
ATOM     31  C   UNL     1       2.845   7.456  18.277  0.00  0.00    +0.000 A 
ATOM     32  C   UNL     1       2.471   6.700  19.395  0.00  0.00    +0.000 A 
ATOM     33  C   UNL     1       3.238   5.598  19.806  0.00  0.00    +0.000 A 
BRANCH  28  35
ATOM     34  C   UNL     1       4.517   2.928  19.624  0.00  0.00    +0.000 C 
ATOM     35  O   UNL     1       5.185   4.166  19.401  0.00  0.00    +0.000 OA
ENDBRANCH  28  35
ENDBRANCH  24  31
ENDBRANCH  23  26
ENDBRANCH   1  23
TORSDOF 5
ENDMDL
MODEL 8
REMARK VINA RESULT:      -7.7      2.506      3.788
REMARK  Name = 
REMARK  7 active torsions:
REMARK  status: ('A' for Active; 'I' for Inactive)
REMARK    1  A    between atoms: C_1  and  O_2
REMARK    2  A    between atoms: O_2  and  C_3
REMARK    3  A    between atoms: C_6  and  C_7
REMARK    4  A    between atoms: N_9  and  C_10
REMARK    5  A    between atoms: C_10  and  C_11
REMARK    6  A    between atoms: N_25  and  C_26
REMARK    7  A    between atoms: C_31  and  C_32
REMARK                            x       y       z     vdW  Elec       q    Type
REMARK                         _______ _______ _______ _____ _____    ______ ____
ROOT
ATOM      1  C   UNL     1       0.037  10.738  19.171  0.00  0.00    +0.000 C 
ATOM      2  C   UNL     1       0.583  10.532  20.404  0.00  0.00    +0.000 C 
ATOM      3  C   UNL     1       0.366  11.521  21.532  0.00  0.00    +0.000 C 
ATOM      4  O   UNL     1      -0.794  11.163  22.356  0.00  0.00    +0.000 OA
ATOM      5  C   UNL     1      -1.497  12.211  22.940  0.00  0.00    +0.000 A 
ATOM      6  C   UNL     1      -2.739  11.932  23.504  0.00  0.00    +0.000 A 
ATOM      7  C   UNL     1      -3.537  12.975  24.011  0.00  0.00    +0.000 A 
ATOM      8  C   UNL     1      -3.087  14.298  24.000  0.00  0.00    +0.000 A 
ATOM      9  C   UNL     1      -1.849  14.595  23.448  0.00  0.00    +0.000 A 
ATOM     10  C   UNL     1      -1.090  13.555  22.896  0.00  0.00    +0.000 A 
ATOM     11  C   UNL     1      -0.001  13.898  21.981  0.00  0.00    +0.000 C 
ATOM     12  O   UNL     1       0.675  14.911  22.023  0.00  0.00    +0.000 OA
ATOM     13  C   UNL     1       0.107  12.863  20.957  0.00  0.00    +0.000 C 
ATOM     14  C   UNL     1      -0.670  12.915  19.864  0.00  0.00    +0.000 C 
ATOM     15  N   UNL     1      -0.850  11.853  18.974  0.00  0.00    +0.000 N 
ENDROOT
BRANCH  15  16
ATOM     16  C   UNL     1      -2.059  11.701  18.175  0.00  0.00    +0.000 A 
ATOM     17  N   UNL     1      -1.907  11.301  16.875  0.00  0.00    +0.000 NA
ATOM     18  C   UNL     1      -2.999  11.017  16.117  0.00  0.00    +0.000 A 
ATOM     19  C   UNL     1      -4.294  11.105  16.573  0.00  0.00    +0.000 A 
ATOM     20  C   UNL     1      -4.477  11.549  17.867  0.00  0.00    +0.000 A 
ATOM     21  C   UNL     1      -3.370  11.894  18.679  0.00  0.00    +0.000 A 
ATOM     22  C   UNL     1      -3.724  12.454  20.025  0.00  0.00    +0.000 C 
ENDBRANCH  15  16
BRANCH   1  23
ATOM     23  C   UNL     1       0.484   9.917  17.952  0.00  0.00    +0.000 C 
BRANCH  23  26
ATOM     24  C   UNL     1       2.145   8.042  18.062  0.00  0.00    +0.000 C 
ATOM     25  O   UNL     1       2.976   8.618  17.389  0.00  0.00    +0.000 OA
ATOM     26  N   UNL     1       0.904   8.571  18.377  0.00  0.00    +0.000 N 
ATOM     27  H   UNL     1       0.424   8.197  19.183  0.00  0.00    +0.000 HD
BRANCH  24  31
ATOM     28  C   UNL     1       3.008   4.127  19.702  0.00  0.00    +0.000 A 
ATOM     29  C   UNL     1       2.437   5.123  20.499  0.00  0.00    +0.000 A 
ATOM     30  C   UNL     1       2.156   6.394  19.965  0.00  0.00    +0.000 A 
ATOM     31  C   UNL     1       2.452   6.681  18.626  0.00  0.00    +0.000 A 
ATOM     32  C   UNL     1       3.077   5.696  17.850  0.00  0.00    +0.000 A 
ATOM     33  C   UNL     1       3.349   4.426  18.383  0.00  0.00    +0.000 A 
BRANCH  28  35
ATOM     34  C   UNL     1       2.527   2.704  21.531  0.00  0.00    +0.000 C 
ATOM     35  O   UNL     1       3.244   2.930  20.320  0.00  0.00    +0.000 OA
ENDBRANCH  28  35
ENDBRANCH  24  31
ENDBRANCH  23  26
ENDBRANCH   1  23
TORSDOF 5
ENDMDL
MODEL 9
REMARK VINA RESULT:      -7.7      1.645      2.304
REMARK  Name = 
REMARK  7 active torsions:
REMARK  status: ('A' for Active; 'I' for Inactive)
REMARK    1  A    between atoms: C_1  and  O_2
REMARK    2  A    between atoms: O_2  and  C_3
REMARK    3  A    between atoms: C_6  and  C_7
REMARK    4  A    between atoms: N_9  and  C_10
REMARK    5  A    between atoms: C_10  and  C_11
REMARK    6  A    between atoms: N_25  and  C_26
REMARK    7  A    between atoms: C_31  and  C_32
REMARK                            x       y       z     vdW  Elec       q    Type
REMARK                         _______ _______ _______ _____ _____    ______ ____
ROOT
ATOM      1  C   UNL     1       0.650  10.979  20.158  0.00  0.00    +0.000 C 
ATOM      2  C   UNL     1       1.313  11.802  21.020  0.00  0.00    +0.000 C 
ATOM      3  C   UNL     1       1.695  13.213  20.621  0.00  0.00    +0.000 C 
ATOM      4  O   UNL     1       0.668  14.187  21.009  0.00  0.00    +0.000 OA
ATOM      5  C   UNL     1       0.523  15.305  20.195  0.00  0.00    +0.000 A 
ATOM      6  C   UNL     1      -0.600  16.107  20.380  0.00  0.00    +0.000 A 
ATOM      7  C   UNL     1      -0.849  17.187  19.512  0.00  0.00    +0.000 A 
ATOM      8  C   UNL     1       0.040  17.504  18.482  0.00  0.00    +0.000 A 
ATOM      9  C   UNL     1       1.168  16.720  18.286  0.00  0.00    +0.000 A 
ATOM     10  C   UNL     1       1.374  15.614  19.121  0.00  0.00    +0.000 A 
ATOM     11  C   UNL     1       2.312  14.579  18.687  0.00  0.00    +0.000 C 
ATOM     12  O   UNL     1       3.305  14.756  18.003  0.00  0.00    +0.000 OA
ATOM     13  C   UNL     1       1.835  13.278  19.146  0.00  0.00    +0.000 C 
ATOM     14  C   UNL     1       0.932  12.599  18.420  0.00  0.00    +0.000 C 
ATOM     15  N   UNL     1       0.209  11.500  18.892  0.00  0.00    +0.000 N 
ENDROOT
BRANCH  15  16
ATOM     16  C   UNL     1      -1.103  11.146  18.366  0.00  0.00    +0.000 A 
ATOM     17  N   UNL     1      -1.150  10.212  17.366  0.00  0.00    +0.000 NA
ATOM     18  C   UNL     1      -2.347   9.747  16.924  0.00  0.00    +0.000 A 
ATOM     19  C   UNL     1      -3.563  10.158  17.421  0.00  0.00    +0.000 A 
ATOM     20  C   UNL     1      -3.545  11.132  18.399  0.00  0.00    +0.000 A 
ATOM     21  C   UNL     1      -2.322  11.675  18.861  0.00  0.00    +0.000 A 
ATOM     22  C   UNL     1      -2.462  12.793  19.851  0.00  0.00    +0.000 C 
ENDBRANCH  15  16
BRANCH   1  23
ATOM     23  C   UNL     1       0.521   9.473  20.429  0.00  0.00    +0.000 C 
BRANCH  23  26
ATOM     24  C   UNL     1       1.871   7.435  19.873  0.00  0.00    +0.000 C 
ATOM     25  O   UNL     1       1.527   6.825  20.865  0.00  0.00    +0.000 OA
ATOM     26  N   UNL     1       1.459   8.724  19.577  0.00  0.00    +0.000 N 
ATOM     27  H   UNL     1       1.512   9.025  18.614  0.00  0.00    +0.000 HD
BRANCH  24  31
ATOM     28  C   UNL     1       4.474   5.524  16.986  0.00  0.00    +0.000 A 
ATOM     29  C   UNL     1       3.866   4.779  17.999  0.00  0.00    +0.000 A 
ATOM     30  C   UNL     1       3.019   5.400  18.936  0.00  0.00    +0.000 A 
ATOM     31  C   UNL     1       2.781   6.779  18.869  0.00  0.00    +0.000 A 
ATOM     32  C   UNL     1       3.440   7.528  17.887  0.00  0.00    +0.000 A 
ATOM     33  C   UNL     1       4.277   6.904  16.948  0.00  0.00    +0.000 A 
BRANCH  28  35
ATOM     34  C   UNL     1       6.614   5.308  15.999  0.00  0.00    +0.000 C 
ATOM     35  O   UNL     1       5.281   4.823  16.132  0.00  0.00    +0.000 OA
ENDBRANCH  28  35
ENDBRANCH  24  31
ENDBRANCH  23  26
ENDBRANCH   1  23
TORSDOF 5
ENDMDL
