MODEL 1
REMARK VINA RESULT:      -8.7      0.000      0.000
REMARK  Name = 
REMARK  11 active torsions:
REMARK  status: ('A' for Active; 'I' for Inactive)
REMARK    1  A    between atoms: C_1  and  C_2
REMARK    2  A    between atoms: C_4  and  C_5
REMARK    3  A    between atoms: C_6  and  C_7
REMARK    4  A    between atoms: C_7  and  N_8
REMARK    5  A    between atoms: N_8  and  C_9
REMARK    6  A    between atoms: C_11  and  O_12
REMARK    7  A    between atoms: O_12  and  C_13
REMARK    8  A    between atoms: C_13  and  C_14
REMARK    9  A    between atoms: C_14  and  O_15
REMARK   10  A    between atoms: O_15  and  C_16
REMARK   11  A    between atoms: C_29  and  C_30
REMARK                            x       y       z     vdW  Elec       q    Type
REMARK                         _______ _______ _______ _____ _____    ______ ____
ROOT
ATOM      1  C   UNL     1       2.952   4.270  18.111  0.00  0.00    +0.000 A 
ATOM      2  N   UNL     1       2.798   5.604  18.188  0.00  0.00    +0.000 NA
ATOM      3  C   UNL     1       2.255   6.099  19.310  0.00  0.00    +0.000 A 
ATOM      4  N   UNL     1       1.799   5.379  20.328  0.00  0.00    +0.000 NA
ATOM      5  C   UNL     1       1.950   4.056  20.207  0.00  0.00    +0.000 A 
ATOM      6 CL   UNL     1       1.270   3.213  21.547  0.00  0.00    +0.000 Cl
ATOM      7  C   UNL     1       2.553   3.420  19.139  0.00  0.00    +0.000 A 
ATOM      8  C   UNL     1       2.670   1.933  19.026  0.00  0.00    +0.000 C 
ENDROOT
BRANCH   1   9
ATOM      9  N   UNL     1       3.529   3.703  16.965  0.00  0.00    +0.000 N 
ATOM     10  H   UNL     1       2.959   2.923  16.648  0.00  0.00    +0.000 HD
BRANCH   9  11
ATOM     11  C   UNL     1       4.941   3.327  17.048  0.00  0.00    +0.000 C 
BRANCH  11  17
ATOM     12  C   UNL     1       7.900   7.722  17.710  0.00  0.00    +0.000 C 
ATOM     13  C   UNL     1       7.195   6.520  17.182  0.00  0.00    +0.000 A 
ATOM     14  N   UNL     1       7.226   6.144  15.923  0.00  0.00    +0.000 NA
ATOM     15  C   UNL     1       6.463   5.001  15.747  0.00  0.00    +0.000 A 
ATOM     16  C   UNL     1       6.369   4.427  14.379  0.00  0.00    +0.000 C 
ATOM     17  C   UNL     1       5.854   4.517  16.894  0.00  0.00    +0.000 A 
ATOM     18  S   UNL     1       6.264   5.521  18.225  0.00  0.00    +0.000 S 
ENDBRANCH  11  17
ENDBRANCH   9  11
ENDBRANCH   1   9
BRANCH   3  19
ATOM     19  O   UNL     1       2.126   7.470  19.355  0.00  0.00    +0.000 OA
BRANCH  19  20
ATOM     20  C   UNL     1       2.552   8.123  18.152  0.00  0.00    +0.000 C 
BRANCH  20  21
ATOM     21  C   UNL     1       1.864   9.476  18.007  0.00  0.00    +0.000 C 
BRANCH  21  22
ATOM     22  O   UNL     1       1.070   9.747  19.171  0.00  0.00    +0.000 OA
BRANCH  22  23
ATOM     23  C   UNL     1      -0.186  10.224  18.843  0.00  0.00    +0.000 A 
ATOM     24  C   UNL     1      -0.808  11.045  19.762  0.00  0.00    +0.000 A 
ATOM     25  C   UNL     1      -2.059  11.551  19.432  0.00  0.00    +0.000 A 
ATOM     26  C   UNL     1      -2.629  11.215  18.195  0.00  0.00    +0.000 A 
ATOM     27  C   UNL     1      -3.882  11.703  17.792  0.00  0.00    +0.000 A 
ATOM     28  C   UNL     1      -4.385  11.341  16.551  0.00  0.00    +0.000 A 
ATOM     29  C   UNL     1      -3.622  10.497  15.772  0.00  0.00    +0.000 A 
ATOM     30  N   UNL     1      -2.418  10.013  16.144  0.00  0.00    +0.000 NA
ATOM     31  C   UNL     1      -1.921  10.362  17.328  0.00  0.00    +0.000 A 
ATOM     32  N   UNL     1      -0.726   9.880  17.658  0.00  0.00    +0.000 NA
ENDBRANCH  22  23
ENDBRANCH  21  22
ENDBRANCH  20  21
ENDBRANCH  19  20
ENDBRANCH   3  19
TORSDOF 8
ENDMDL
MODEL 2
REMARK VINA RESULT:      -8.5      1.150      1.756
REMARK  Name = 
REMARK  11 active torsions:
REMARK  status: ('A' for Active; 'I' for Inactive)
REMARK    1  A    between atoms: C_1  and  C_2
REMARK    2  A    between atoms: C_4  and  C_5
REMARK    3  A    between atoms: C_6  and  C_7
REMARK    4  A    between atoms: C_7  and  N_8
REMARK    5  A    between atoms: N_8  and  C_9
REMARK    6  A    between atoms: C_11  and  O_12
REMARK    7  A    between atoms: O_12  and  C_13
REMARK    8  A    between atoms: C_13  and  C_14
REMARK    9  A    between atoms: C_14  and  O_15
REMARK   10  A    between atoms: O_15  and  C_16
REMARK   11  A    between atoms: C_29  and  C_30
REMARK                            x       y       z     vdW  Elec       q    Type
REMARK                         _______ _______ _______ _____ _____    ______ ____
ROOT
ATOM      1  C   UNL     1       3.006   4.561  18.146  0.00  0.00    +0.000 A 
ATOM      2  N   UNL     1       2.926   5.868  18.447  0.00  0.00    +0.000 NA
ATOM      3  C   UNL     1       2.346   6.198  19.612  0.00  0.00    +0.000 A 
ATOM      4  N   UNL     1       1.789   5.346  20.464  0.00  0.00    +0.000 NA
ATOM      5  C   UNL     1       1.870   4.057  20.119  0.00  0.00    +0.000 A 
ATOM      6 CL   UNL     1       1.063   3.043  21.255  0.00  0.00    +0.000 Cl
ATOM      7  C   UNL     1       2.498   3.575  18.987  0.00  0.00    +0.000 A 
ATOM      8  C   UNL     1       2.534   2.125  18.621  0.00  0.00    +0.000 C 
ENDROOT
BRANCH   1   9
ATOM      9  N   UNL     1       3.617   4.162  16.947  0.00  0.00    +0.000 N 
ATOM     10  H   UNL     1       3.005   3.519  16.451  0.00  0.00    +0.000 HD
BRANCH   9  11
ATOM     11  C   UNL     1       4.977   3.631  17.038  0.00  0.00    +0.000 C 
BRANCH  11  17
ATOM     12  C   UNL     1       7.797   5.196  12.782  0.00  0.00    +0.000 C 
ATOM     13  C   UNL     1       7.207   5.015  14.139  0.00  0.00    +0.000 A 
ATOM     14  N   UNL     1       7.605   5.671  15.206  0.00  0.00    +0.000 NA
ATOM     15  C   UNL     1       6.874   5.271  16.313  0.00  0.00    +0.000 A 
ATOM     16  C   UNL     1       7.188   5.899  17.623  0.00  0.00    +0.000 C 
ATOM     17  C   UNL     1       5.913   4.302  16.065  0.00  0.00    +0.000 A 
ATOM     18  S   UNL     1       5.928   3.897  14.397  0.00  0.00    +0.000 S 
ENDBRANCH  11  17
ENDBRANCH   9  11
ENDBRANCH   1   9
BRANCH   3  19
ATOM     19  O   UNL     1       2.294   7.546  19.891  0.00  0.00    +0.000 OA
BRANCH  19  20
ATOM     20  C   UNL     1       1.454   7.866  21.007  0.00  0.00    +0.000 C 
BRANCH  20  21
ATOM     21  C   UNL     1       0.829   9.245  20.828  0.00  0.00    +0.000 C 
BRANCH  21  22
ATOM     22  O   UNL     1       0.903   9.638  19.450  0.00  0.00    +0.000 OA
BRANCH  22  23
ATOM     23  C   UNL     1      -0.299  10.147  18.991  0.00  0.00    +0.000 A 
ATOM     24  C   UNL     1      -0.943  11.066  19.796  0.00  0.00    +0.000 A 
ATOM     25  C   UNL     1      -2.138  11.602  19.334  0.00  0.00    +0.000 A 
ATOM     26  C   UNL     1      -2.633  11.197  18.085  0.00  0.00    +0.000 A 
ATOM     27  C   UNL     1      -3.826  11.710  17.552  0.00  0.00    +0.000 A 
ATOM     28  C   UNL     1      -4.256  11.275  16.306  0.00  0.00    +0.000 A 
ATOM     29  C   UNL     1      -3.482  10.338  15.653  0.00  0.00    +0.000 A 
ATOM     30  N   UNL     1      -2.336   9.829  16.152  0.00  0.00    +0.000 NA
ATOM     31  C   UNL     1      -1.910  10.246  17.341  0.00  0.00    +0.000 A 
ATOM     32  N   UNL     1      -0.769   9.737  17.797  0.00  0.00    +0.000 NA
ENDBRANCH  22  23
ENDBRANCH  21  22
ENDBRANCH  20  21
ENDBRANCH  19  20
ENDBRANCH   3  19
TORSDOF 8
ENDMDL
MODEL 3
REMARK VINA RESULT:      -8.5      3.022      8.221
REMARK  Name = 
REMARK  11 active torsions:
REMARK  status: ('A' for Active; 'I' for Inactive)
REMARK    1  A    between atoms: C_1  and  C_2
REMARK    2  A    between atoms: C_4  and  C_5
REMARK    3  A    between atoms: C_6  and  C_7
REMARK    4  A    between atoms: C_7  and  N_8
REMARK    5  A    between atoms: N_8  and  C_9
REMARK    6  A    between atoms: C_11  and  O_12
REMARK    7  A    between atoms: O_12  and  C_13
REMARK    8  A    between atoms: C_13  and  C_14
REMARK    9  A    between atoms: C_14  and  O_15
REMARK   10  A    between atoms: O_15  and  C_16
REMARK   11  A    between atoms: C_29  and  C_30
REMARK                            x       y       z     vdW  Elec       q    Type
REMARK                         _______ _______ _______ _____ _____    ______ ____
ROOT
ATOM      1  C   UNL     1       3.136   5.312  18.649  0.00  0.00    +0.000 A 
ATOM      2  N   UNL     1       4.318   5.590  19.228  0.00  0.00    +0.000 NA
ATOM      3  C   UNL     1       5.133   4.558  19.493  0.00  0.00    +0.000 A 
ATOM      4  N   UNL     1       4.847   3.277  19.289  0.00  0.00    +0.000 NA
ATOM      5  C   UNL     1       3.655   3.039  18.733  0.00  0.00    +0.000 A 
ATOM      6 CL   UNL     1       3.355   1.350  18.571  0.00  0.00    +0.000 Cl
ATOM      7  C   UNL     1       2.750   4.009  18.347  0.00  0.00    +0.000 A 
ATOM      8  C   UNL     1       1.410   3.697  17.759  0.00  0.00    +0.000 C 
ENDROOT
BRANCH   1   9
ATOM      9  N   UNL     1       2.254   6.357  18.338  0.00  0.00    +0.000 N 
ATOM     10  H   UNL     1       1.820   6.178  17.436  0.00  0.00    +0.000 HD
BRANCH   9  11
ATOM     11  C   UNL     1       2.785   7.719  18.407  0.00  0.00    +0.000 C 
BRANCH  11  17
ATOM     12  C   UNL     1      -0.613  11.775  19.122  0.00  0.00    +0.000 C 
ATOM     13  C   UNL     1       0.220  10.546  19.254  0.00  0.00    +0.000 A 
ATOM     14  N   UNL     1       0.251   9.792  20.330  0.00  0.00    +0.000 NA
ATOM     15  C   UNL     1       1.128   8.736  20.148  0.00  0.00    +0.000 A 
ATOM     16  C   UNL     1       1.306   7.773  21.267  0.00  0.00    +0.000 C 
ATOM     17  C   UNL     1       1.761   8.701  18.914  0.00  0.00    +0.000 A 
ATOM     18  S   UNL     1       1.225  10.025  17.962  0.00  0.00    +0.000 S 
ENDBRANCH  11  17
ENDBRANCH   9  11
ENDBRANCH   1   9
BRANCH   3  19
ATOM     19  O   UNL     1       6.339   4.885  20.073  0.00  0.00    +0.000 OA
BRANCH  19  20
ATOM     20  C   UNL     1       7.025   5.950  19.402  0.00  0.00    +0.000 C 
BRANCH  20  21
ATOM     21  C   UNL     1       7.825   5.410  18.223  0.00  0.00    +0.000 C 
BRANCH  21  22
ATOM     22  O   UNL     1       7.581   6.213  17.059  0.00  0.00    +0.000 OA
BRANCH  22  23
ATOM     23  C   UNL     1       7.038   5.473  16.023  0.00  0.00    +0.000 A 
ATOM     24  C   UNL     1       5.878   4.773  16.290  0.00  0.00    +0.000 A 
ATOM     25  C   UNL     1       5.310   4.047  15.250  0.00  0.00    +0.000 A 
ATOM     26  C   UNL     1       5.928   4.057  13.990  0.00  0.00    +0.000 A 
ATOM     27  C   UNL     1       5.400   3.358  12.893  0.00  0.00    +0.000 A 
ATOM     28  C   UNL     1       6.053   3.418  11.671  0.00  0.00    +0.000 A 
ATOM     29  C   UNL     1       7.213   4.161  11.601  0.00  0.00    +0.000 A 
ATOM     30  N   UNL     1       7.740   4.835  12.645  0.00  0.00    +0.000 NA
ATOM     31  C   UNL     1       7.115   4.793  13.819  0.00  0.00    +0.000 A 
ATOM     32  N   UNL     1       7.651   5.480  14.824  0.00  0.00    +0.000 NA
ENDBRANCH  22  23
ENDBRANCH  21  22
ENDBRANCH  20  21
ENDBRANCH  19  20
ENDBRANCH   3  19
TORSDOF 8
ENDMDL
MODEL 4
REMARK VINA RESULT:      -8.4      3.791      9.177
REMARK  Name = 
REMARK  11 active torsions:
REMARK  status: ('A' for Active; 'I' for Inactive)
REMARK    1  A    between atoms: C_1  and  C_2
REMARK    2  A    between atoms: C_4  and  C_5
REMARK    3  A    between atoms: C_6  and  C_7
REMARK    4  A    between atoms: C_7  and  N_8
REMARK    5  A    between atoms: N_8  and  C_9
REMARK    6  A    between atoms: C_11  and  O_12
REMARK    7  A    between atoms: O_12  and  C_13
REMARK    8  A    between atoms: C_13  and  C_14
REMARK    9  A    between atoms: C_14  and  O_15
REMARK   10  A    between atoms: O_15  and  C_16
REMARK   11  A    between atoms: C_29  and  C_30
REMARK                            x       y       z     vdW  Elec       q    Type
REMARK                         _______ _______ _______ _____ _____    ______ ____
ROOT
ATOM      1  C   UNL     1       1.186   8.433  20.033  0.00  0.00    +0.000 A 
ATOM      2  N   UNL     1       1.243   7.302  20.757  0.00  0.00    +0.000 NA
ATOM      3  C   UNL     1       2.053   6.327  20.315  0.00  0.00    +0.000 A 
ATOM      4  N   UNL     1       2.757   6.361  19.190  0.00  0.00    +0.000 NA
ATOM      5  C   UNL     1       2.657   7.493  18.486  0.00  0.00    +0.000 A 
ATOM      6 CL   UNL     1       3.553   7.409  17.017  0.00  0.00    +0.000 Cl
ATOM      7  C   UNL     1       1.916   8.598  18.860  0.00  0.00    +0.000 A 
ATOM      8  C   UNL     1       1.804   9.834  18.024  0.00  0.00    +0.000 C 
ENDROOT
BRANCH   1   9
ATOM      9  N   UNL     1       0.365   9.488  20.460  0.00  0.00    +0.000 N 
ATOM     10  H   UNL     1       0.337  10.208  19.743  0.00  0.00    +0.000 HD
BRANCH   9  11
ATOM     11  C   UNL     1       0.652  10.064  21.774  0.00  0.00    +0.000 C 
BRANCH  11  17
ATOM     12  C   UNL     1      -2.821  13.832  23.274  0.00  0.00    +0.000 C 
ATOM     13  C   UNL     1      -1.692  13.059  22.682  0.00  0.00    +0.000 A 
ATOM     14  N   UNL     1      -0.794  13.574  21.873  0.00  0.00    +0.000 NA
ATOM     15  C   UNL     1       0.112  12.601  21.485  0.00  0.00    +0.000 A 
ATOM     16  C   UNL     1       1.205  12.993  20.556  0.00  0.00    +0.000 C 
ATOM     17  C   UNL     1      -0.115  11.339  22.014  0.00  0.00    +0.000 A 
ATOM     18  S   UNL     1      -1.495  11.389  23.033  0.00  0.00    +0.000 S 
ENDBRANCH  11  17
ENDBRANCH   9  11
ENDBRANCH   1   9
BRANCH   3  19
ATOM     19  O   UNL     1       2.094   5.189  21.091  0.00  0.00    +0.000 OA
BRANCH  19  20
ATOM     20  C   UNL     1       1.770   3.994  20.369  0.00  0.00    +0.000 C 
BRANCH  20  21
ATOM     21  C   UNL     1       2.762   2.885  20.700  0.00  0.00    +0.000 C 
BRANCH  21  22
ATOM     22  O   UNL     1       3.244   2.285  19.489  0.00  0.00    +0.000 OA
BRANCH  22  23
ATOM     23  C   UNL     1       4.122   3.114  18.813  0.00  0.00    +0.000 A 
ATOM     24  C   UNL     1       3.954   3.230  17.447  0.00  0.00    +0.000 A 
ATOM     25  C   UNL     1       4.815   4.079  16.762  0.00  0.00    +0.000 A 
ATOM     26  C   UNL     1       5.802   4.775  17.476  0.00  0.00    +0.000 A 
ATOM     27  C   UNL     1       6.693   5.660  16.849  0.00  0.00    +0.000 A 
ATOM     28  C   UNL     1       7.640   6.326  17.613  0.00  0.00    +0.000 A 
ATOM     29  C   UNL     1       7.664   6.071  18.968  0.00  0.00    +0.000 A 
ATOM     30  N   UNL     1       6.820   5.220  19.589  0.00  0.00    +0.000 NA
ATOM     31  C   UNL     1       5.901   4.583  18.866  0.00  0.00    +0.000 A 
ATOM     32  N   UNL     1       5.074   3.764  19.510  0.00  0.00    +0.000 NA
ENDBRANCH  22  23
ENDBRANCH  21  22
ENDBRANCH  20  21
ENDBRANCH  19  20
ENDBRANCH   3  19
TORSDOF 8
ENDMDL
MODEL 5
REMARK VINA RESULT:      -8.4      1.676      2.224
REMARK  Name = 
REMARK  11 active torsions:
REMARK  status: ('A' for Active; 'I' for Inactive)
REMARK    1  A    between atoms: C_1  and  C_2
REMARK    2  A    between atoms: C_4  and  C_5
REMARK    3  A    between atoms: C_6  and  C_7
REMARK    4  A    between atoms: C_7  and  N_8
REMARK    5  A    between atoms: N_8  and  C_9
REMARK    6  A    between atoms: C_11  and  O_12
REMARK    7  A    between atoms: O_12  and  C_13
REMARK    8  A    between atoms: C_13  and  C_14
REMARK    9  A    between atoms: C_14  and  O_15
REMARK   10  A    between atoms: O_15  and  C_16
REMARK   11  A    between atoms: C_29  and  C_30
REMARK                            x       y       z     vdW  Elec       q    Type
REMARK                         _______ _______ _______ _____ _____    ______ ____
ROOT
ATOM      1  C   UNL     1       4.137   4.025  19.258  0.00  0.00    +0.000 A 
ATOM      2  N   UNL     1       3.713   5.246  19.626  0.00  0.00    +0.000 NA
ATOM      3  C   UNL     1       2.390   5.422  19.770  0.00  0.00    +0.000 A 
ATOM      4  N   UNL     1       1.460   4.508  19.520  0.00  0.00    +0.000 NA
ATOM      5  C   UNL     1       1.920   3.313  19.136  0.00  0.00    +0.000 A 
ATOM      6 CL   UNL     1       0.634   2.223  18.776  0.00  0.00    +0.000 Cl
ATOM      7  C   UNL     1       3.254   2.977  19.015  0.00  0.00    +0.000 A 
ATOM      8  C   UNL     1       3.725   1.636  18.547  0.00  0.00    +0.000 C 
ENDROOT
BRANCH   1   9
ATOM      9  N   UNL     1       5.512   3.784  19.108  0.00  0.00    +0.000 N 
ATOM     10  H   UNL     1       6.025   4.294  19.822  0.00  0.00    +0.000 HD
BRANCH   9  11
ATOM     11  C   UNL     1       6.086   4.011  17.781  0.00  0.00    +0.000 C 
BRANCH  11  17
ATOM     12  C   UNL     1       8.426   8.790  18.219  0.00  0.00    +0.000 C 
ATOM     13  C   UNL     1       7.621   7.607  17.802  0.00  0.00    +0.000 A 
ATOM     14  N   UNL     1       6.792   7.606  16.782  0.00  0.00    +0.000 NA
ATOM     15  C   UNL     1       6.185   6.367  16.662  0.00  0.00    +0.000 A 
ATOM     16  C   UNL     1       5.201   6.173  15.564  0.00  0.00    +0.000 C 
ATOM     17  C   UNL     1       6.569   5.428  17.608  0.00  0.00    +0.000 A 
ATOM     18  S   UNL     1       7.731   6.124  18.663  0.00  0.00    +0.000 S 
ENDBRANCH  11  17
ENDBRANCH   9  11
ENDBRANCH   1   9
BRANCH   3  19
ATOM     19  O   UNL     1       1.996   6.683  20.160  0.00  0.00    +0.000 OA
BRANCH  19  20
ATOM     20  C   UNL     1       2.277   7.696  19.186  0.00  0.00    +0.000 C 
BRANCH  20  21
ATOM     21  C   UNL     1       1.426   8.935  19.443  0.00  0.00    +0.000 C 
BRANCH  21  22
ATOM     22  O   UNL     1       0.935   9.455  18.199  0.00  0.00    +0.000 OA
BRANCH  22  23
ATOM     23  C   UNL     1      -0.282  10.096  18.350  0.00  0.00    +0.000 A 
ATOM     24  C   UNL     1      -1.263   9.811  17.421  0.00  0.00    +0.000 A 
ATOM     25  C   UNL     1      -2.497  10.430  17.577  0.00  0.00    +0.000 A 
ATOM     26  C   UNL     1      -2.694  11.303  18.657  0.00  0.00    +0.000 A 
ATOM     27  C   UNL     1      -3.920  11.949  18.882  0.00  0.00    +0.000 A 
ATOM     28  C   UNL     1      -4.053  12.793  19.975  0.00  0.00    +0.000 A 
ATOM     29  C   UNL     1      -2.952  12.965  20.789  0.00  0.00    +0.000 A 
ATOM     30  N   UNL     1      -1.764  12.358  20.586  0.00  0.00    +0.000 NA
ATOM     31  C   UNL     1      -1.629  11.538  19.546  0.00  0.00    +0.000 A 
ATOM     32  N   UNL     1      -0.450  10.943  19.383  0.00  0.00    +0.000 NA
ENDBRANCH  22  23
ENDBRANCH  21  22
ENDBRANCH  20  21
ENDBRANCH  19  20
ENDBRANCH   3  19
TORSDOF 8
ENDMDL
MODEL 6
REMARK VINA RESULT:      -8.4      3.457      8.222
REMARK  Name = 
REMARK  11 active torsions:
REMARK  status: ('A' for Active; 'I' for Inactive)
REMARK    1  A    between atoms: C_1  and  C_2
REMARK    2  A    between atoms: C_4  and  C_5
REMARK    3  A    between atoms: C_6  and  C_7
REMARK    4  A    between atoms: C_7  and  N_8
REMARK    5  A    between atoms: N_8  and  C_9
REMARK    6  A    between atoms: C_11  and  O_12
REMARK    7  A    between atoms: O_12  and  C_13
REMARK    8  A    between atoms: C_13  and  C_14
REMARK    9  A    between atoms: C_14  and  O_15
REMARK   10  A    between atoms: O_15  and  C_16
REMARK   11  A    between atoms: C_29  and  C_30
REMARK                            x       y       z     vdW  Elec       q    Type
REMARK                         _______ _______ _______ _____ _____    ______ ____
ROOT
ATOM      1  C   UNL     1       3.297   5.568  19.033  0.00  0.00    +0.000 A 
ATOM      2  N   UNL     1       4.513   5.694  19.592  0.00  0.00    +0.000 NA
ATOM      3  C   UNL     1       5.304   4.609  19.600  0.00  0.00    +0.000 A 
ATOM      4  N   UNL     1       4.964   3.405  19.156  0.00  0.00    +0.000 NA
ATOM      5  C   UNL     1       3.740   3.314  18.626  0.00  0.00    +0.000 A 
ATOM      6 CL   UNL     1       3.375   1.702  18.142  0.00  0.00    +0.000 Cl
ATOM      7  C   UNL     1       2.853   4.364  18.493  0.00  0.00    +0.000 A 
ATOM      8  C   UNL     1       1.477   4.211  17.925  0.00  0.00    +0.000 C 
ENDROOT
BRANCH   1   9
ATOM      9  N   UNL     1       2.438   6.676  18.986  0.00  0.00    +0.000 N 
ATOM     10  H   UNL     1       2.905   7.449  18.520  0.00  0.00    +0.000 HD
BRANCH   9  11
ATOM     11  C   UNL     1       1.838   7.106  20.250  0.00  0.00    +0.000 C 
BRANCH  11  17
ATOM     12  C   UNL     1       0.098  12.040  21.316  0.00  0.00    +0.000 C 
ATOM     13  C   UNL     1       0.595  10.789  20.677  0.00  0.00    +0.000 A 
ATOM     14  N   UNL     1       0.771  10.646  19.382  0.00  0.00    +0.000 NA
ATOM     15  C   UNL     1       1.226   9.368  19.101  0.00  0.00    +0.000 A 
ATOM     16  C   UNL     1       1.477   9.012  17.679  0.00  0.00    +0.000 C 
ATOM     17  C   UNL     1       1.394   8.545  20.205  0.00  0.00    +0.000 A 
ATOM     18  S   UNL     1       0.978   9.410  21.628  0.00  0.00    +0.000 S 
ENDBRANCH  11  17
ENDBRANCH   9  11
ENDBRANCH   1   9
BRANCH   3  19
ATOM     19  O   UNL     1       6.546   4.782  20.170  0.00  0.00    +0.000 OA
BRANCH  19  20
ATOM     20  C   UNL     1       7.366   5.730  19.476  0.00  0.00    +0.000 C 
BRANCH  20  21
ATOM     21  C   UNL     1       7.869   5.141  18.163  0.00  0.00    +0.000 C 
BRANCH  21  22
ATOM     22  O   UNL     1       7.551   6.025  17.078  0.00  0.00    +0.000 OA
BRANCH  22  23
ATOM     23  C   UNL     1       6.971   5.356  16.016  0.00  0.00    +0.000 A 
ATOM     24  C   UNL     1       5.751   4.749  16.245  0.00  0.00    +0.000 A 
ATOM     25  C   UNL     1       5.147   4.095  15.178  0.00  0.00    +0.000 A 
ATOM     26  C   UNL     1       5.789   4.081  13.931  0.00  0.00    +0.000 A 
ATOM     27  C   UNL     1       5.227   3.452  12.809  0.00  0.00    +0.000 A 
ATOM     28  C   UNL     1       5.909   3.483  11.600  0.00  0.00    +0.000 A 
ATOM     29  C   UNL     1       7.127   4.129  11.568  0.00  0.00    +0.000 A 
ATOM     30  N   UNL     1       7.686   4.734  12.638  0.00  0.00    +0.000 NA
ATOM     31  C   UNL     1       7.036   4.719  13.799  0.00  0.00    +0.000 A 
ATOM     32  N   UNL     1       7.606   5.338  14.829  0.00  0.00    +0.000 NA
ENDBRANCH  22  23
ENDBRANCH  21  22
ENDBRANCH  20  21
ENDBRANCH  19  20
ENDBRANCH   3  19
TORSDOF 8
ENDMDL
MODEL 7
REMARK VINA RESULT:      -8.4      1.517      2.538
REMARK  Name = 
REMARK  11 active torsions:
REMARK  status: ('A' for Active; 'I' for Inactive)
REMARK    1  A    between atoms: C_1  and  C_2
REMARK    2  A    between atoms: C_4  and  C_5
REMARK    3  A    between atoms: C_6  and  C_7
REMARK    4  A    between atoms: C_7  and  N_8
REMARK    5  A    between atoms: N_8  and  C_9
REMARK    6  A    between atoms: C_11  and  O_12
REMARK    7  A    between atoms: O_12  and  C_13
REMARK    8  A    between atoms: C_13  and  C_14
REMARK    9  A    between atoms: C_14  and  O_15
REMARK   10  A    between atoms: O_15  and  C_16
REMARK   11  A    between atoms: C_29  and  C_30
REMARK                            x       y       z     vdW  Elec       q    Type
REMARK                         _______ _______ _______ _____ _____    ______ ____
ROOT
ATOM      1  C   UNL     1       3.261   4.338  18.213  0.00  0.00    +0.000 A 
ATOM      2  N   UNL     1       3.034   5.662  18.259  0.00  0.00    +0.000 NA
ATOM      3  C   UNL     1       2.403   6.142  19.341  0.00  0.00    +0.000 A 
ATOM      4  N   UNL     1       1.928   5.412  20.344  0.00  0.00    +0.000 NA
ATOM      5  C   UNL     1       2.154   4.098  20.252  0.00  0.00    +0.000 A 
ATOM      6 CL   UNL     1       1.443   3.238  21.565  0.00  0.00    +0.000 Cl
ATOM      7  C   UNL     1       2.849   3.481  19.230  0.00  0.00    +0.000 A 
ATOM      8  C   UNL     1       3.049   2.001  19.148  0.00  0.00    +0.000 C 
ENDROOT
BRANCH   1   9
ATOM      9  N   UNL     1       3.931   3.787  17.110  0.00  0.00    +0.000 N 
ATOM     10  H   UNL     1       3.418   2.977  16.771  0.00  0.00    +0.000 HD
BRANCH   9  11
ATOM     11  C   UNL     1       5.351   3.480  17.280  0.00  0.00    +0.000 C 
BRANCH  11  17
ATOM     12  C   UNL     1       8.118   7.984  18.030  0.00  0.00    +0.000 C 
ATOM     13  C   UNL     1       7.469   6.761  17.480  0.00  0.00    +0.000 A 
ATOM     14  N   UNL     1       7.529   6.404  16.216  0.00  0.00    +0.000 NA
ATOM     15  C   UNL     1       6.816   5.233  16.017  0.00  0.00    +0.000 A 
ATOM     16  C   UNL     1       6.759   4.674  14.641  0.00  0.00    +0.000 C 
ATOM     17  C   UNL     1       6.215   4.708  17.152  0.00  0.00    +0.000 A 
ATOM     18  S   UNL     1       6.571   5.710  18.500  0.00  0.00    +0.000 S 
ENDBRANCH  11  17
ENDBRANCH   9  11
ENDBRANCH   1   9
BRANCH   3  19
ATOM     19  O   UNL     1       2.201   7.505  19.357  0.00  0.00    +0.000 OA
BRANCH  19  20
ATOM     20  C   UNL     1       2.503   8.141  18.108  0.00  0.00    +0.000 C 
BRANCH  20  21
ATOM     21  C   UNL     1       1.937   9.557  18.080  0.00  0.00    +0.000 C 
BRANCH  21  22
ATOM     22  O   UNL     1       0.524   9.512  17.831  0.00  0.00    +0.000 OA
BRANCH  22  23
ATOM     23  C   UNL     1      -0.188  10.263  18.748  0.00  0.00    +0.000 A 
ATOM     24  C   UNL     1      -1.089  11.182  18.246  0.00  0.00    +0.000 A 
ATOM     25  C   UNL     1      -1.829  11.924  19.158  0.00  0.00    +0.000 A 
ATOM     26  C   UNL     1      -1.635  11.711  20.532  0.00  0.00    +0.000 A 
ATOM     27  C   UNL     1      -2.359  12.415  21.507  0.00  0.00    +0.000 A 
ATOM     28  C   UNL     1      -2.127  12.150  22.849  0.00  0.00    +0.000 A 
ATOM     29  C   UNL     1      -1.173  11.203  23.159  0.00  0.00    +0.000 A 
ATOM     30  N   UNL     1      -0.463  10.520  22.237  0.00  0.00    +0.000 NA
ATOM     31  C   UNL     1      -0.685  10.759  20.946  0.00  0.00    +0.000 A 
ATOM     32  N   UNL     1       0.020  10.059  20.063  0.00  0.00    +0.000 NA
ENDBRANCH  22  23
ENDBRANCH  21  22
ENDBRANCH  20  21
ENDBRANCH  19  20
ENDBRANCH   3  19
TORSDOF 8
ENDMDL
MODEL 8
REMARK VINA RESULT:      -8.3      2.049      2.772
REMARK  Name = 
REMARK  11 active torsions:
REMARK  status: ('A' for Active; 'I' for Inactive)
REMARK    1  A    between atoms: C_1  and  C_2
REMARK    2  A    between atoms: C_4  and  C_5
REMARK    3  A    between atoms: C_6  and  C_7
REMARK    4  A    between atoms: C_7  and  N_8
REMARK    5  A    between atoms: N_8  and  C_9
REMARK    6  A    between atoms: C_11  and  O_12
REMARK    7  A    between atoms: O_12  and  C_13
REMARK    8  A    between atoms: C_13  and  C_14
REMARK    9  A    between atoms: C_14  and  O_15
REMARK   10  A    between atoms: O_15  and  C_16
REMARK   11  A    between atoms: C_29  and  C_30
REMARK                            x       y       z     vdW  Elec       q    Type
REMARK                         _______ _______ _______ _____ _____    ______ ____
ROOT
ATOM      1  C   UNL     1       4.149   4.011  19.147  0.00  0.00    +0.000 A 
ATOM      2  N   UNL     1       3.749   5.265  19.418  0.00  0.00    +0.000 NA
ATOM      3  C   UNL     1       2.430   5.480  19.539  0.00  0.00    +0.000 A 
ATOM      4  N   UNL     1       1.481   4.570  19.354  0.00  0.00    +0.000 NA
ATOM      5  C   UNL     1       1.916   3.340  19.065  0.00  0.00    +0.000 A 
ATOM      6 CL   UNL     1       0.609   2.253  18.781  0.00  0.00    +0.000 Cl
ATOM      7  C   UNL     1       3.243   2.967  18.979  0.00  0.00    +0.000 A 
ATOM      8  C   UNL     1       3.688   1.584  18.618  0.00  0.00    +0.000 C 
ENDROOT
BRANCH   1   9
ATOM      9  N   UNL     1       5.518   3.730  19.025  0.00  0.00    +0.000 N 
ATOM     10  H   UNL     1       6.028   4.196  19.771  0.00  0.00    +0.000 HD
BRANCH   9  11
ATOM     11  C   UNL     1       6.136   3.986  17.723  0.00  0.00    +0.000 C 
BRANCH  11  17
ATOM     12  C   UNL     1       8.439   8.770  18.294  0.00  0.00    +0.000 C 
ATOM     13  C   UNL     1       7.641   7.593  17.846  0.00  0.00    +0.000 A 
ATOM     14  N   UNL     1       6.806   7.616  16.830  0.00  0.00    +0.000 NA
ATOM     15  C   UNL     1       6.209   6.376  16.676  0.00  0.00    +0.000 A 
ATOM     16  C   UNL     1       5.221   6.207  15.577  0.00  0.00    +0.000 C 
ATOM     17  C   UNL     1       6.606   5.412  17.591  0.00  0.00    +0.000 A 
ATOM     18  S   UNL     1       7.767   6.086  18.661  0.00  0.00    +0.000 S 
ENDBRANCH  11  17
ENDBRANCH   9  11
ENDBRANCH   1   9
BRANCH   3  19
ATOM     19  O   UNL     1       2.061   6.776  19.830  0.00  0.00    +0.000 OA
BRANCH  19  20
ATOM     20  C   UNL     1       2.724   7.753  19.017  0.00  0.00    +0.000 C 
BRANCH  20  21
ATOM     21  C   UNL     1       1.857   8.131  17.822  0.00  0.00    +0.000 C 
BRANCH  21  22
ATOM     22  O   UNL     1       1.893   9.551  17.623  0.00  0.00    +0.000 OA
BRANCH  22  23
ATOM     23  C   UNL     1       0.920  10.203  18.359  0.00  0.00    +0.000 A 
ATOM     24  C   UNL     1      -0.394   9.998  17.988  0.00  0.00    +0.000 A 
ATOM     25  C   UNL     1      -1.381  10.627  18.736  0.00  0.00    +0.000 A 
ATOM     26  C   UNL     1      -1.008  11.432  19.824  0.00  0.00    +0.000 A 
ATOM     27  C   UNL     1      -1.954  12.084  20.631  0.00  0.00    +0.000 A 
ATOM     28  C   UNL     1      -1.519  12.856  21.698  0.00  0.00    +0.000 A 
ATOM     29  C   UNL     1      -0.159  12.954  21.906  0.00  0.00    +0.000 A 
ATOM     30  N   UNL     1       0.766  12.340  21.138  0.00  0.00    +0.000 NA
ATOM     31  C   UNL     1       0.359  11.588  20.118  0.00  0.00    +0.000 A 
ATOM     32  N   UNL     1       1.295  10.984  19.391  0.00  0.00    +0.000 NA
ENDBRANCH  22  23
ENDBRANCH  21  22
ENDBRANCH  20  21
ENDBRANCH  19  20
ENDBRANCH   3  19
TORSDOF 8
ENDMDL
MODEL 9
REMARK VINA RESULT:      -8.2      1.993      2.693
REMARK  Name = 
REMARK  11 active torsions:
REMARK  status: ('A' for Active; 'I' for Inactive)
REMARK    1  A    between atoms: C_1  and  C_2
REMARK    2  A    between atoms: C_4  and  C_5
REMARK    3  A    between atoms: C_6  and  C_7
REMARK    4  A    between atoms: C_7  and  N_8
REMARK    5  A    between atoms: N_8  and  C_9
REMARK    6  A    between atoms: C_11  and  O_12
REMARK    7  A    between atoms: O_12  and  C_13
REMARK    8  A    between atoms: C_13  and  C_14
REMARK    9  A    between atoms: C_14  and  O_15
REMARK   10  A    between atoms: O_15  and  C_16
REMARK   11  A    between atoms: C_29  and  C_30
REMARK                            x       y       z     vdW  Elec       q    Type
REMARK                         _______ _______ _______ _____ _____    ______ ____
ROOT
ATOM      1  C   UNL     1       3.789   3.801  19.461  0.00  0.00    +0.000 A 
ATOM      2  N   UNL     1       3.272   4.913  20.013  0.00  0.00    +0.000 NA
ATOM      3  C   UNL     1       1.941   4.961  20.174  0.00  0.00    +0.000 A 
ATOM      4  N   UNL     1       1.083   4.028  19.778  0.00  0.00    +0.000 NA
ATOM      5  C   UNL     1       1.632   2.948  19.213  0.00  0.00    +0.000 A 
ATOM      6 CL   UNL     1       0.434   1.832  18.678  0.00  0.00    +0.000 Cl
ATOM      7  C   UNL     1       2.988   2.740  19.050  0.00  0.00    +0.000 A 
ATOM      8  C   UNL     1       3.559   1.530  18.380  0.00  0.00    +0.000 C 
ENDROOT
BRANCH   1   9
ATOM      9  N   UNL     1       5.176   3.695  19.284  0.00  0.00    +0.000 N 
ATOM     10  H   UNL     1       5.574   3.147  20.042  0.00  0.00    +0.000 HD
BRANCH   9  11
ATOM     11  C   UNL     1       5.919   4.941  19.087  0.00  0.00    +0.000 C 
BRANCH  11  17
ATOM     12  C   UNL     1       6.875   4.485  13.853  0.00  0.00    +0.000 C 
ATOM     13  C   UNL     1       6.799   4.920  15.277  0.00  0.00    +0.000 A 
ATOM     14  N   UNL     1       7.396   5.991  15.750  0.00  0.00    +0.000 NA
ATOM     15  C   UNL     1       7.148   6.116  17.107  0.00  0.00    +0.000 A 
ATOM     16  C   UNL     1       7.751   7.270  17.825  0.00  0.00    +0.000 C 
ATOM     17  C   UNL     1       6.351   5.122  17.654  0.00  0.00    +0.000 A 
ATOM     18  S   UNL     1       5.898   4.013  16.424  0.00  0.00    +0.000 S 
ENDBRANCH  11  17
ENDBRANCH   9  11
ENDBRANCH   1   9
BRANCH   3  19
ATOM     19  O   UNL     1       1.452   6.110  20.756  0.00  0.00    +0.000 OA
BRANCH  19  20
ATOM     20  C   UNL     1       2.083   7.305  20.276  0.00  0.00    +0.000 C 
BRANCH  20  21
ATOM     21  C   UNL     1       1.444   8.536  20.908  0.00  0.00    +0.000 C 
BRANCH  21  22
ATOM     22  O   UNL     1       1.159   9.512  19.895  0.00  0.00    +0.000 OA
BRANCH  22  23
ATOM     23  C   UNL     1       0.157  10.383  20.281  0.00  0.00    +0.000 A 
ATOM     24  C   UNL     1       0.329  11.051  21.478  0.00  0.00    +0.000 A 
ATOM     25  C   UNL     1      -0.659  11.948  21.863  0.00  0.00    +0.000 A 
ATOM     26  C   UNL     1      -1.774  12.138  21.032  0.00  0.00    +0.000 A 
ATOM     27  C   UNL     1      -2.801  13.039  21.354  0.00  0.00    +0.000 A 
ATOM     28  C   UNL     1      -3.871  13.189  20.484  0.00  0.00    +0.000 A 
ATOM     29  C   UNL     1      -3.876  12.423  19.337  0.00  0.00    +0.000 A 
ATOM     30  N   UNL     1      -2.901  11.547  19.013  0.00  0.00    +0.000 NA
ATOM     31  C   UNL     1      -1.865  11.403  19.836  0.00  0.00    +0.000 A 
ATOM     32  N   UNL     1      -0.914  10.544  19.480  0.00  0.00    +0.000 NA
ENDBRANCH  22  23
ENDBRANCH  21  22
ENDBRANCH  20  21
ENDBRANCH  19  20
ENDBRANCH   3  19
TORSDOF 8
ENDMDL
