MODEL 1
REMARK VINA RESULT:      -7.8      0.000      0.000
REMARK  Name = 
REMARK  2 active torsions:
REMARK  status: ('A' for Active; 'I' for Inactive)
REMARK    1  A    between atoms: C_4  and  C_5
REMARK    2  A    between atoms: C_6  and  C_7
REMARK                            x       y       z     vdW  Elec       q    Type
REMARK                         _______ _______ _______ _____ _____    ______ ____
ROOT
ATOM      1  O   UNL     1       7.671   5.135  19.996  0.00  0.00    +0.000 OA
ATOM      2  C   UNL     1       7.437   5.864  19.040  0.00  0.00    +0.000 A 
ATOM      3  C   UNL     1       8.088   7.178  18.914  0.00  0.00    +0.000 A 
ATOM      4  C   UNL     1       7.805   7.956  17.858  0.00  0.00    +0.000 A 
ATOM      5  O   UNL     1       6.910   7.605  16.859  0.00  0.00    +0.000 OA
ATOM      6  C   UNL     1       6.288   6.385  16.929  0.00  0.00    +0.000 A 
ATOM      7  C   UNL     1       5.406   6.060  15.899  0.00  0.00    +0.000 A 
ATOM      8  C   UNL     1       4.754   4.826  15.908  0.00  0.00    +0.000 A 
ATOM      9  C   UNL     1       4.984   3.919  16.944  0.00  0.00    +0.000 A 
ATOM     10  C   UNL     1       5.862   4.245  17.978  0.00  0.00    +0.000 A 
ATOM     11  C   UNL     1       6.510   5.483  17.966  0.00  0.00    +0.000 A 
ENDROOT
BRANCH   4  12
ATOM     12  C   UNL     1       8.436   9.255  17.680  0.00  0.00    +0.000 C 
ATOM     13  C   UNL     1       9.037   9.951  18.659  0.00  0.00    +0.000 C 
BRANCH  13  14
ATOM     14  C   UNL     1       9.678  11.267  18.502  0.00  0.00    +0.000 A 
ATOM     15  C   UNL     1       9.072  12.333  17.836  0.00  0.00    +0.000 A 
ATOM     16  C   UNL     1       9.740  13.547  17.779  0.00  0.00    +0.000 A 
ATOM     17  N   UNL     1      10.948  13.769  18.337  0.00  0.00    +0.000 NA
ATOM     18  C   UNL     1      11.510  12.731  18.989  0.00  0.00    +0.000 A 
ATOM     19  C   UNL     1      10.922  11.482  19.101  0.00  0.00    +0.000 A 
ENDBRANCH  13  14
ENDBRANCH   4  12
TORSDOF 2
ENDMDL
MODEL 2
REMARK VINA RESULT:      -7.8      0.352      1.085
REMARK  Name = 
REMARK  2 active torsions:
REMARK  status: ('A' for Active; 'I' for Inactive)
REMARK    1  A    between atoms: C_4  and  C_5
REMARK    2  A    between atoms: C_6  and  C_7
REMARK                            x       y       z     vdW  Elec       q    Type
REMARK                         _______ _______ _______ _____ _____    ______ ____
ROOT
ATOM      1  O   UNL     1       7.886   5.163  19.942  0.00  0.00    +0.000 OA
ATOM      2  C   UNL     1       7.563   5.893  19.013  0.00  0.00    +0.000 A 
ATOM      3  C   UNL     1       8.188   7.214  18.836  0.00  0.00    +0.000 A 
ATOM      4  C   UNL     1       7.807   7.992  17.812  0.00  0.00    +0.000 A 
ATOM      5  O   UNL     1       6.832   7.636  16.893  0.00  0.00    +0.000 OA
ATOM      6  C   UNL     1       6.230   6.410  17.012  0.00  0.00    +0.000 A 
ATOM      7  C   UNL     1       5.265   6.080  16.061  0.00  0.00    +0.000 A 
ATOM      8  C   UNL     1       4.627   4.839  16.122  0.00  0.00    +0.000 A 
ATOM      9  C   UNL     1       4.955   3.931  17.130  0.00  0.00    +0.000 A 
ATOM     10  C   UNL     1       5.916   4.263  18.086  0.00  0.00    +0.000 A 
ATOM     11  C   UNL     1       6.549   5.507  18.022  0.00  0.00    +0.000 A 
ENDROOT
BRANCH   4  12
ATOM     12  C   UNL     1       8.408   9.298  17.585  0.00  0.00    +0.000 C 
ATOM     13  C   UNL     1       9.043  10.019  18.524  0.00  0.00    +0.000 C 
BRANCH  13  14
ATOM     14  C   UNL     1       9.655  11.341  18.317  0.00  0.00    +0.000 A 
ATOM     15  C   UNL     1      11.035  11.552  18.333  0.00  0.00    +0.000 A 
ATOM     16  C   UNL     1      11.514  12.829  18.085  0.00  0.00    +0.000 A 
ATOM     17  N   UNL     1      10.727  13.891  17.817  0.00  0.00    +0.000 NA
ATOM     18  C   UNL     1       9.398  13.664  17.791  0.00  0.00    +0.000 A 
ATOM     19  C   UNL     1       8.823  12.425  18.026  0.00  0.00    +0.000 A 
ENDBRANCH  13  14
ENDBRANCH   4  12
TORSDOF 2
ENDMDL
MODEL 3
REMARK VINA RESULT:      -7.6      6.193      7.441
REMARK  Name = 
REMARK  2 active torsions:
REMARK  status: ('A' for Active; 'I' for Inactive)
REMARK    1  A    between atoms: C_4  and  C_5
REMARK    2  A    between atoms: C_6  and  C_7
REMARK                            x       y       z     vdW  Elec       q    Type
REMARK                         _______ _______ _______ _____ _____    ______ ____
ROOT
ATOM      1  O   UNL     1       2.356   7.209  19.903  0.00  0.00    +0.000 OA
ATOM      2  C   UNL     1       2.758   6.219  19.304  0.00  0.00    +0.000 A 
ATOM      3  C   UNL     1       3.593   6.352  18.099  0.00  0.00    +0.000 A 
ATOM      4  C   UNL     1       4.012   5.248  17.462  0.00  0.00    +0.000 A 
ATOM      5  O   UNL     1       3.694   3.959  17.861  0.00  0.00    +0.000 OA
ATOM      6  C   UNL     1       2.928   3.787  18.985  0.00  0.00    +0.000 A 
ATOM      7  C   UNL     1       2.641   2.476  19.365  0.00  0.00    +0.000 A 
ATOM      8  C   UNL     1       1.876   2.237  20.508  0.00  0.00    +0.000 A 
ATOM      9  C   UNL     1       1.401   3.306  21.270  0.00  0.00    +0.000 A 
ATOM     10  C   UNL     1       1.683   4.618  20.888  0.00  0.00    +0.000 A 
ATOM     11  C   UNL     1       2.446   4.851  19.740  0.00  0.00    +0.000 A 
ENDROOT
BRANCH   4  12
ATOM     12  C   UNL     1       4.854   5.327  16.277  0.00  0.00    +0.000 C 
ATOM     13  C   UNL     1       5.111   4.295  15.456  0.00  0.00    +0.000 C 
BRANCH  13  14
ATOM     14  C   UNL     1       5.961   4.351  14.255  0.00  0.00    +0.000 A 
ATOM     15  C   UNL     1       7.126   5.117  14.183  0.00  0.00    +0.000 A 
ATOM     16  C   UNL     1       7.881   5.069  13.022  0.00  0.00    +0.000 A 
ATOM     17  N   UNL     1       7.565   4.317  11.948  0.00  0.00    +0.000 NA
ATOM     18  C   UNL     1       6.445   3.573  12.042  0.00  0.00    +0.000 A 
ATOM     19  C   UNL     1       5.625   3.553  13.159  0.00  0.00    +0.000 A 
ENDBRANCH  13  14
ENDBRANCH   4  12
TORSDOF 2
ENDMDL
MODEL 4
REMARK VINA RESULT:      -7.4      6.206      7.398
REMARK  Name = 
REMARK  2 active torsions:
REMARK  status: ('A' for Active; 'I' for Inactive)
REMARK    1  A    between atoms: C_4  and  C_5
REMARK    2  A    between atoms: C_6  and  C_7
REMARK                            x       y       z     vdW  Elec       q    Type
REMARK                         _______ _______ _______ _____ _____    ______ ____
ROOT
ATOM      1  O   UNL     1       2.477   7.407  19.777  0.00  0.00    +0.000 OA
ATOM      2  C   UNL     1       2.810   6.387  19.186  0.00  0.00    +0.000 A 
ATOM      3  C   UNL     1       3.598   6.454  17.945  0.00  0.00    +0.000 A 
ATOM      4  C   UNL     1       3.941   5.319  17.319  0.00  0.00    +0.000 A 
ATOM      5  O   UNL     1       3.586   4.055  17.762  0.00  0.00    +0.000 OA
ATOM      6  C   UNL     1       2.862   3.943  18.921  0.00  0.00    +0.000 A 
ATOM      7  C   UNL     1       2.536   2.655  19.345  0.00  0.00    +0.000 A 
ATOM      8  C   UNL     1       1.811   2.476  20.526  0.00  0.00    +0.000 A 
ATOM      9  C   UNL     1       1.415   3.582  21.280  0.00  0.00    +0.000 A 
ATOM     10  C   UNL     1       1.736   4.871  20.853  0.00  0.00    +0.000 A 
ATOM     11  C   UNL     1       2.459   5.044  19.670  0.00  0.00    +0.000 A 
ENDROOT
BRANCH   4  12
ATOM     12  C   UNL     1       4.734   5.334  16.098  0.00  0.00    +0.000 C 
ATOM     13  C   UNL     1       5.226   4.238  15.496  0.00  0.00    +0.000 C 
BRANCH  13  14
ATOM     14  C   UNL     1       6.032   4.229  14.264  0.00  0.00    +0.000 A 
ATOM     15  C   UNL     1       5.665   3.518  13.121  0.00  0.00    +0.000 A 
ATOM     16  C   UNL     1       6.470   3.608  11.996  0.00  0.00    +0.000 A 
ATOM     17  N   UNL     1       7.592   4.353  11.930  0.00  0.00    +0.000 NA
ATOM     18  C   UNL     1       7.921   5.046  13.039  0.00  0.00    +0.000 A 
ATOM     19  C   UNL     1       7.182   5.020  14.211  0.00  0.00    +0.000 A 
ENDBRANCH  13  14
ENDBRANCH   4  12
TORSDOF 2
ENDMDL
MODEL 5
REMARK VINA RESULT:      -7.3      1.369      1.847
REMARK  Name = 
REMARK  2 active torsions:
REMARK  status: ('A' for Active; 'I' for Inactive)
REMARK    1  A    between atoms: C_4  and  C_5
REMARK    2  A    between atoms: C_6  and  C_7
REMARK                            x       y       z     vdW  Elec       q    Type
REMARK                         _______ _______ _______ _____ _____    ______ ____
ROOT
ATOM      1  O   UNL     1       5.457   4.305  19.208  0.00  0.00    +0.000 OA
ATOM      2  C   UNL     1       6.112   4.981  18.425  0.00  0.00    +0.000 A 
ATOM      3  C   UNL     1       6.971   6.076  18.906  0.00  0.00    +0.000 A 
ATOM      4  C   UNL     1       7.672   6.802  18.023  0.00  0.00    +0.000 A 
ATOM      5  O   UNL     1       7.633   6.598  16.652  0.00  0.00    +0.000 OA
ATOM      6  C   UNL     1       6.855   5.582  16.159  0.00  0.00    +0.000 A 
ATOM      7  C   UNL     1       6.852   5.397  14.777  0.00  0.00    +0.000 A 
ATOM      8  C   UNL     1       6.091   4.369  14.216  0.00  0.00    +0.000 A 
ATOM      9  C   UNL     1       5.335   3.529  15.036  0.00  0.00    +0.000 A 
ATOM     10  C   UNL     1       5.333   3.718  16.419  0.00  0.00    +0.000 A 
ATOM     11  C   UNL     1       6.094   4.750  16.974  0.00  0.00    +0.000 A 
ENDROOT
BRANCH   4  12
ATOM     12  C   UNL     1       8.548   7.883  18.451  0.00  0.00    +0.000 C 
ATOM     13  C   UNL     1       8.284   9.189  18.282  0.00  0.00    +0.000 C 
BRANCH  13  14
ATOM     14  C   UNL     1       9.157  10.298  18.704  0.00  0.00    +0.000 A 
ATOM     15  C   UNL     1       9.368  10.632  20.043  0.00  0.00    +0.000 A 
ATOM     16  C   UNL     1      10.242  11.666  20.339  0.00  0.00    +0.000 A 
ATOM     17  N   UNL     1      10.916  12.373  19.409  0.00  0.00    +0.000 NA
ATOM     18  C   UNL     1      10.710  12.025  18.123  0.00  0.00    +0.000 A 
ATOM     19  C   UNL     1       9.858  11.008  17.726  0.00  0.00    +0.000 A 
ENDBRANCH  13  14
ENDBRANCH   4  12
TORSDOF 2
ENDMDL
MODEL 6
REMARK VINA RESULT:      -7.3      6.219      7.466
REMARK  Name = 
REMARK  2 active torsions:
REMARK  status: ('A' for Active; 'I' for Inactive)
REMARK    1  A    between atoms: C_4  and  C_5
REMARK    2  A    between atoms: C_6  and  C_7
REMARK                            x       y       z     vdW  Elec       q    Type
REMARK                         _______ _______ _______ _____ _____    ______ ____
ROOT
ATOM      1  O   UNL     1       2.820   2.968  19.059  0.00  0.00    +0.000 OA
ATOM      2  C   UNL     1       2.921   4.184  18.950  0.00  0.00    +0.000 A 
ATOM      3  C   UNL     1       2.226   5.088  19.881  0.00  0.00    +0.000 A 
ATOM      4  C   UNL     1       2.351   6.414  19.731  0.00  0.00    +0.000 A 
ATOM      5  O   UNL     1       3.098   7.010  18.725  0.00  0.00    +0.000 OA
ATOM      6  C   UNL     1       3.772   6.207  17.842  0.00  0.00    +0.000 A 
ATOM      7  C   UNL     1       4.525   6.841  16.854  0.00  0.00    +0.000 A 
ATOM      8  C   UNL     1       5.245   6.077  15.933  0.00  0.00    +0.000 A 
ATOM      9  C   UNL     1       5.212   4.683  16.001  0.00  0.00    +0.000 A 
ATOM     10  C   UNL     1       4.454   4.048  16.986  0.00  0.00    +0.000 A 
ATOM     11  C   UNL     1       3.734   4.818  17.902  0.00  0.00    +0.000 A 
ENDROOT
BRANCH   4  12
ATOM     12  C   UNL     1       1.699   7.348  20.636  0.00  0.00    +0.000 C 
ATOM     13  C   UNL     1       1.211   8.547  20.273  0.00  0.00    +0.000 C 
BRANCH  13  14
ATOM     14  C   UNL     1       0.551   9.507  21.172  0.00  0.00    +0.000 A 
ATOM     15  C   UNL     1      -0.101   9.126  22.346  0.00  0.00    +0.000 A 
ATOM     16  C   UNL     1      -0.656  10.111  23.148  0.00  0.00    +0.000 A 
ATOM     17  N   UNL     1      -0.600  11.430  22.869  0.00  0.00    +0.000 NA
ATOM     18  C   UNL     1       0.048  11.779  21.739  0.00  0.00    +0.000 A 
ATOM     19  C   UNL     1       0.634  10.869  20.875  0.00  0.00    +0.000 A 
ENDBRANCH  13  14
ENDBRANCH   4  12
TORSDOF 2
ENDMDL
MODEL 7
REMARK VINA RESULT:      -7.3      3.258      7.807
REMARK  Name = 
REMARK  2 active torsions:
REMARK  status: ('A' for Active; 'I' for Inactive)
REMARK    1  A    between atoms: C_4  and  C_5
REMARK    2  A    between atoms: C_6  and  C_7
REMARK                            x       y       z     vdW  Elec       q    Type
REMARK                         _______ _______ _______ _____ _____    ______ ____
ROOT
ATOM      1  O   UNL     1       9.872  11.721  21.688  0.00  0.00    +0.000 OA
ATOM      2  C   UNL     1       9.891  11.498  20.484  0.00  0.00    +0.000 A 
ATOM      3  C   UNL     1       9.087  10.410  19.903  0.00  0.00    +0.000 A 
ATOM      4  C   UNL     1       9.134  10.187  18.581  0.00  0.00    +0.000 A 
ATOM      5  O   UNL     1       9.918  10.919  17.703  0.00  0.00    +0.000 OA
ATOM      6  C   UNL     1      10.675  11.950  18.197  0.00  0.00    +0.000 A 
ATOM      7  C   UNL     1      11.439  12.674  17.282  0.00  0.00    +0.000 A 
ATOM      8  C   UNL     1      12.220  13.745  17.723  0.00  0.00    +0.000 A 
ATOM      9  C   UNL     1      12.236  14.090  19.076  0.00  0.00    +0.000 A 
ATOM     10  C   UNL     1      11.476  13.362  19.993  0.00  0.00    +0.000 A 
ATOM     11  C   UNL     1      10.699  12.290  19.546  0.00  0.00    +0.000 A 
ENDROOT
BRANCH   4  12
ATOM     12  C   UNL     1       8.345   9.135  17.958  0.00  0.00    +0.000 C 
ATOM     13  C   UNL     1       8.199   7.896  18.456  0.00  0.00    +0.000 C 
BRANCH  13  14
ATOM     14  C   UNL     1       7.408   6.817  17.841  0.00  0.00    +0.000 A 
ATOM     15  C   UNL     1       7.722   5.465  17.988  0.00  0.00    +0.000 A 
ATOM     16  C   UNL     1       6.890   4.522  17.406  0.00  0.00    +0.000 A 
ATOM     17  N   UNL     1       5.779   4.828  16.705  0.00  0.00    +0.000 NA
ATOM     18  C   UNL     1       5.483   6.139  16.587  0.00  0.00    +0.000 A 
ATOM     19  C   UNL     1       6.252   7.154  17.133  0.00  0.00    +0.000 A 
ENDBRANCH  13  14
ENDBRANCH   4  12
TORSDOF 2
ENDMDL
MODEL 8
REMARK VINA RESULT:      -7.3      6.459      7.791
REMARK  Name = 
REMARK  2 active torsions:
REMARK  status: ('A' for Active; 'I' for Inactive)
REMARK    1  A    between atoms: C_4  and  C_5
REMARK    2  A    between atoms: C_6  and  C_7
REMARK                            x       y       z     vdW  Elec       q    Type
REMARK                         _______ _______ _______ _____ _____    ______ ____
ROOT
ATOM      1  O   UNL     1       4.401   5.463  16.719  0.00  0.00    +0.000 OA
ATOM      2  C   UNL     1       3.602   5.481  17.647  0.00  0.00    +0.000 A 
ATOM      3  C   UNL     1       3.233   6.746  18.303  0.00  0.00    +0.000 A 
ATOM      4  C   UNL     1       2.360   6.731  19.321  0.00  0.00    +0.000 A 
ATOM      5  O   UNL     1       1.776   5.578  19.821  0.00  0.00    +0.000 OA
ATOM      6  C   UNL     1       2.082   4.377  19.234  0.00  0.00    +0.000 A 
ATOM      7  C   UNL     1       1.464   3.240  19.753  0.00  0.00    +0.000 A 
ATOM      8  C   UNL     1       1.724   1.989  19.188  0.00  0.00    +0.000 A 
ATOM      9  C   UNL     1       2.600   1.878  18.106  0.00  0.00    +0.000 A 
ATOM     10  C   UNL     1       3.223   3.015  17.590  0.00  0.00    +0.000 A 
ATOM     11  C   UNL     1       2.961   4.263  18.161  0.00  0.00    +0.000 A 
ENDROOT
BRANCH   4  12
ATOM     12  C   UNL     1       1.951   7.958  19.990  0.00  0.00    +0.000 C 
ATOM     13  C   UNL     1       0.835   8.087  20.727  0.00  0.00    +0.000 C 
BRANCH  13  14
ATOM     14  C   UNL     1       0.400   9.317  21.409  0.00  0.00    +0.000 A 
ATOM     15  C   UNL     1       0.629  10.594  20.894  0.00  0.00    +0.000 A 
ATOM     16  C   UNL     1       0.142  11.689  21.591  0.00  0.00    +0.000 A 
ATOM     17  N   UNL     1      -0.553  11.600  22.743  0.00  0.00    +0.000 NA
ATOM     18  C   UNL     1      -0.778  10.358  23.216  0.00  0.00    +0.000 A 
ATOM     19  C   UNL     1      -0.333   9.203  22.593  0.00  0.00    +0.000 A 
ENDBRANCH  13  14
ENDBRANCH   4  12
TORSDOF 2
ENDMDL
MODEL 9
REMARK VINA RESULT:      -7.2      1.614      2.010
REMARK  Name = 
REMARK  2 active torsions:
REMARK  status: ('A' for Active; 'I' for Inactive)
REMARK    1  A    between atoms: C_4  and  C_5
REMARK    2  A    between atoms: C_6  and  C_7
REMARK                            x       y       z     vdW  Elec       q    Type
REMARK                         _______ _______ _______ _____ _____    ______ ____
ROOT
ATOM      1  O   UNL     1       4.584   4.840  18.403  0.00  0.00    +0.000 OA
ATOM      2  C   UNL     1       5.500   5.348  17.767  0.00  0.00    +0.000 A 
ATOM      3  C   UNL     1       6.323   6.418  18.352  0.00  0.00    +0.000 A 
ATOM      4  C   UNL     1       7.315   6.958  17.629  0.00  0.00    +0.000 A 
ATOM      5  O   UNL     1       7.617   6.579  16.330  0.00  0.00    +0.000 OA
ATOM      6  C   UNL     1       6.884   5.578  15.748  0.00  0.00    +0.000 A 
ATOM      7  C   UNL     1       7.227   5.212  14.446  0.00  0.00    +0.000 A 
ATOM      8  C   UNL     1       6.525   4.189  13.805  0.00  0.00    +0.000 A 
ATOM      9  C   UNL     1       5.484   3.533  14.465  0.00  0.00    +0.000 A 
ATOM     10  C   UNL     1       5.137   3.902  15.766  0.00  0.00    +0.000 A 
ATOM     11  C   UNL     1       5.840   4.929  16.401  0.00  0.00    +0.000 A 
ENDROOT
BRANCH   4  12
ATOM     12  C   UNL     1       8.167   8.007  18.169  0.00  0.00    +0.000 C 
ATOM     13  C   UNL     1       8.048   9.313  17.876  0.00  0.00    +0.000 C 
BRANCH  13  14
ATOM     14  C   UNL     1       8.901  10.388  18.409  0.00  0.00    +0.000 A 
ATOM     15  C   UNL     1       9.128  11.586  17.729  0.00  0.00    +0.000 A 
ATOM     16  C   UNL     1       9.912  12.555  18.334  0.00  0.00    +0.000 A 
ATOM     17  N   UNL     1      10.470  12.419  19.555  0.00  0.00    +0.000 NA
ATOM     18  C   UNL     1      10.226  11.262  20.203  0.00  0.00    +0.000 A 
ATOM     19  C   UNL     1       9.456  10.235  19.682  0.00  0.00    +0.000 A 
ENDBRANCH  13  14
ENDBRANCH   4  12
TORSDOF 2
ENDMDL
