MODEL 1
REMARK VINA RESULT:      -8.2      0.000      0.000
REMARK  Name = 
REMARK  10 active torsions:
REMARK  status: ('A' for Active; 'I' for Inactive)
REMARK    1  A    between atoms: C_1  and  O_2
REMARK    2  A    between atoms: O_2  and  C_3
REMARK    3  A    between atoms: C_8  and  C_9
REMARK    4  A    between atoms: C_9  and  C_10
REMARK    5  A    between atoms: C_9  and  N_28
REMARK    6  A    between atoms: C_10  and  N_11
REMARK    7  A    between atoms: C_12  and  C_14
REMARK    8  A    between atoms: N_18  and  C_19
REMARK    9  A    between atoms: C_19  and  C_20
REMARK   10  A    between atoms: C_23  and  C_24
REMARK                            x       y       z     vdW  Elec       q    Type
REMARK                         _______ _______ _______ _____ _____    ______ ____
ROOT
ATOM      1  N   UNL     1       2.085   7.856  18.041  0.00  0.00    +0.000 N 
ATOM      2  C   UNL     1       1.582   9.140  17.961  0.00  0.00    +0.000 C 
ATOM      3  O   UNL     1       2.267  10.072  17.539  0.00  0.00    +0.000 OA
ATOM      4  H   UNL     1       1.518   7.097  18.402  0.00  0.00    +0.000 HD
ENDROOT
BRANCH   2   5
ATOM      5  C   UNL     1       0.166   9.356  18.513  0.00  0.00    +0.000 C 
ATOM      6  C   UNL     1      -0.542  10.555  17.887  0.00  0.00    +0.000 C 
ATOM      7  C   UNL     1      -0.175  11.688  18.810  0.00  0.00    +0.000 C 
ATOM      8  O   UNL     1      -0.202  12.864  18.501  0.00  0.00    +0.000 OA
ATOM      9  N   UNL     1       0.146  11.147  20.041  0.00  0.00    +0.000 N 
ATOM     10  C   UNL     1       0.153   9.701  20.011  0.00  0.00    +0.000 C 
BRANCH   9  11
ATOM     11  C   UNL     1       0.606  11.914  21.191  0.00  0.00    +0.000 C 
BRANCH  11  12
ATOM     12  C   UNL     1      -0.487  12.420  22.115  0.00  0.00    +0.000 A 
ATOM     13  C   UNL     1      -0.564  13.782  22.449  0.00  0.00    +0.000 A 
ATOM     14  C   UNL     1      -1.653  14.288  23.165  0.00  0.00    +0.000 A 
ATOM     15  C   UNL     1      -2.699  13.442  23.565  0.00  0.00    +0.000 A 
ATOM     16  C   UNL     1      -3.919  13.979  24.252  0.00  0.00    +0.000 C 
ATOM     17  C   UNL     1      -2.606  12.079  23.268  0.00  0.00    +0.000 A 
ATOM     18  C   UNL     1      -1.514  11.576  22.551  0.00  0.00    +0.000 A 
ENDBRANCH  11  12
ENDBRANCH   9  11
ENDBRANCH   2   5
BRANCH   1  19
ATOM     19  C   UNL     1       3.433   7.497  17.556  0.00  0.00    +0.000 C 
BRANCH  19  20
ATOM     20  C   UNL     1       3.715   5.947  17.538  0.00  0.00    +0.000 C 
BRANCH  20  26
ATOM     21  C   UNL     1       2.127   4.019  18.326  0.00  0.00    +0.000 A 
ATOM     22  C   UNL     1       1.201   3.524  19.263  0.00  0.00    +0.000 A 
ATOM     23  C   UNL     1       1.183   4.006  20.571  0.00  0.00    +0.000 A 
ATOM     24  C   UNL     1       2.073   5.013  20.914  0.00  0.00    +0.000 A 
ATOM     25  C   UNL     1       2.866   5.635  19.935  0.00  0.00    +0.000 A 
ATOM     26  C   UNL     1       2.905   5.171  18.596  0.00  0.00    +0.000 A 
BRANCH  21  28
ATOM     27  C   UNL     1       3.307   1.944  17.882  0.00  0.00    +0.000 C 
ATOM     28  O   UNL     1       2.494   3.017  17.456  0.00  0.00    +0.000 OA
ENDBRANCH  21  28
ENDBRANCH  20  26
BRANCH  20  29
ATOM     29  N   UNL     1       5.139   5.624  17.357  0.00  0.00    +0.000 NA
ATOM     30  C   UNL     1       5.756   4.723  18.315  0.00  0.00    +0.000 C 
ATOM     31  C   UNL     1       6.796   5.567  19.021  0.00  0.00    +0.000 C 
ATOM     32  C   UNL     1       7.220   6.603  17.992  0.00  0.00    +0.000 C 
ATOM     33  C   UNL     1       6.113   6.620  16.941  0.00  0.00    +0.000 C 
ENDBRANCH  20  29
ENDBRANCH  19  20
ENDBRANCH   1  19
TORSDOF 8
ENDMDL
MODEL 2
REMARK VINA RESULT:      -8.2      0.822      1.503
REMARK  Name = 
REMARK  10 active torsions:
REMARK  status: ('A' for Active; 'I' for Inactive)
REMARK    1  A    between atoms: C_1  and  O_2
REMARK    2  A    between atoms: O_2  and  C_3
REMARK    3  A    between atoms: C_8  and  C_9
REMARK    4  A    between atoms: C_9  and  C_10
REMARK    5  A    between atoms: C_9  and  N_28
REMARK    6  A    between atoms: C_10  and  N_11
REMARK    7  A    between atoms: C_12  and  C_14
REMARK    8  A    between atoms: N_18  and  C_19
REMARK    9  A    between atoms: C_19  and  C_20
REMARK   10  A    between atoms: C_23  and  C_24
REMARK                            x       y       z     vdW  Elec       q    Type
REMARK                         _______ _______ _______ _____ _____    ______ ____
ROOT
ATOM      1  N   UNL     1       1.935   8.120  18.292  0.00  0.00    +0.000 N 
ATOM      2  C   UNL     1       1.416   9.378  18.055  0.00  0.00    +0.000 C 
ATOM      3  O   UNL     1       2.096  10.267  17.544  0.00  0.00    +0.000 OA
ATOM      4  H   UNL     1       1.372   7.397  18.725  0.00  0.00    +0.000 HD
ENDROOT
BRANCH   2   5
ATOM      5  C   UNL     1      -0.015   9.631  18.550  0.00  0.00    +0.000 C 
ATOM      6  C   UNL     1      -0.628  10.907  17.977  0.00  0.00    +0.000 C 
ATOM      7  C   UNL     1      -0.254  11.952  18.995  0.00  0.00    +0.000 C 
ATOM      8  O   UNL     1      -0.206  13.147  18.768  0.00  0.00    +0.000 OA
ATOM      9  N   UNL     1      -0.027  11.312  20.199  0.00  0.00    +0.000 N 
ATOM     10  C   UNL     1      -0.091   9.873  20.066  0.00  0.00    +0.000 C 
BRANCH   9  11
ATOM     11  C   UNL     1       0.408  11.973  21.421  0.00  0.00    +0.000 C 
BRANCH  11  12
ATOM     12  C   UNL     1      -0.678  12.707  22.188  0.00  0.00    +0.000 A 
ATOM     13  C   UNL     1      -1.815  12.021  22.645  0.00  0.00    +0.000 A 
ATOM     14  C   UNL     1      -2.741  12.644  23.487  0.00  0.00    +0.000 A 
ATOM     15  C   UNL     1      -2.552  13.973  23.896  0.00  0.00    +0.000 A 
ATOM     16  C   UNL     1      -3.483  14.630  24.872  0.00  0.00    +0.000 C 
ATOM     17  C   UNL     1      -1.441  14.670  23.411  0.00  0.00    +0.000 A 
ATOM     18  C   UNL     1      -0.517  14.043  22.568  0.00  0.00    +0.000 A 
ENDBRANCH  11  12
ENDBRANCH   9  11
ENDBRANCH   2   5
BRANCH   1  19
ATOM     19  C   UNL     1       3.299   7.731  17.878  0.00  0.00    +0.000 C 
BRANCH  19  20
ATOM     20  C   UNL     1       3.464   6.191  17.586  0.00  0.00    +0.000 C 
BRANCH  20  26
ATOM     21  C   UNL     1       1.881   4.229  18.293  0.00  0.00    +0.000 A 
ATOM     22  C   UNL     1       1.051   3.634  19.262  0.00  0.00    +0.000 A 
ATOM     23  C   UNL     1       1.222   3.917  20.616  0.00  0.00    +0.000 A 
ATOM     24  C   UNL     1       2.202   4.829  20.980  0.00  0.00    +0.000 A 
ATOM     25  C   UNL     1       2.901   5.559  20.004  0.00  0.00    +0.000 A 
ATOM     26  C   UNL     1       2.749   5.298  18.620  0.00  0.00    +0.000 A 
BRANCH  21  28
ATOM     27  C   UNL     1       2.635   2.073  17.467  0.00  0.00    +0.000 C 
ATOM     28  O   UNL     1       2.082   3.353  17.248  0.00  0.00    +0.000 OA
ENDBRANCH  21  28
ENDBRANCH  20  26
BRANCH  20  29
ATOM     29  N   UNL     1       4.825   5.831  17.157  0.00  0.00    +0.000 NA
ATOM     30  C   UNL     1       5.255   6.262  15.839  0.00  0.00    +0.000 C 
ATOM     31  C   UNL     1       5.465   4.979  15.063  0.00  0.00    +0.000 C 
ATOM     32  C   UNL     1       5.857   3.951  16.112  0.00  0.00    +0.000 C 
ATOM     33  C   UNL     1       5.411   4.534  17.451  0.00  0.00    +0.000 C 
ENDBRANCH  20  29
ENDBRANCH  19  20
ENDBRANCH   1  19
TORSDOF 8
ENDMDL
MODEL 3
REMARK VINA RESULT:      -8.2      0.601      1.080
REMARK  Name = 
REMARK  10 active torsions:
REMARK  status: ('A' for Active; 'I' for Inactive)
REMARK    1  A    between atoms: C_1  and  O_2
REMARK    2  A    between atoms: O_2  and  C_3
REMARK    3  A    between atoms: C_8  and  C_9
REMARK    4  A    between atoms: C_9  and  C_10
REMARK    5  A    between atoms: C_9  and  N_28
REMARK    6  A    between atoms: C_10  and  N_11
REMARK    7  A    between atoms: C_12  and  C_14
REMARK    8  A    between atoms: N_18  and  C_19
REMARK    9  A    between atoms: C_19  and  C_20
REMARK   10  A    between atoms: C_23  and  C_24
REMARK                            x       y       z     vdW  Elec       q    Type
REMARK                         _______ _______ _______ _____ _____    ______ ____
ROOT
ATOM      1  N   UNL     1       2.186   7.885  18.361  0.00  0.00    +0.000 N 
ATOM      2  C   UNL     1       1.608   9.126  18.173  0.00  0.00    +0.000 C 
ATOM      3  O   UNL     1       2.164   9.997  17.503  0.00  0.00    +0.000 OA
ATOM      4  H   UNL     1       1.727   7.178  18.925  0.00  0.00    +0.000 HD
ENDROOT
BRANCH   2   5
ATOM      5  C   UNL     1       0.293   9.388  18.919  0.00  0.00    +0.000 C 
ATOM      6  C   UNL     1      -0.610  10.390  18.202  0.00  0.00    +0.000 C 
ATOM      7  C   UNL     1      -0.189  11.711  18.792  0.00  0.00    +0.000 C 
ATOM      8  O   UNL     1      -0.368  12.791  18.260  0.00  0.00    +0.000 OA
ATOM      9  N   UNL     1       0.379  11.464  20.028  0.00  0.00    +0.000 N 
ATOM     10  C   UNL     1       0.504  10.047  20.292  0.00  0.00    +0.000 C 
BRANCH   9  11
ATOM     11  C   UNL     1       0.960  12.481  20.893  0.00  0.00    +0.000 C 
BRANCH  11  12
ATOM     12  C   UNL     1      -0.015  13.174  21.828  0.00  0.00    +0.000 A 
ATOM     13  C   UNL     1      -1.031  12.445  22.467  0.00  0.00    +0.000 A 
ATOM     14  C   UNL     1      -1.831  13.034  23.451  0.00  0.00    +0.000 A 
ATOM     15  C   UNL     1      -1.634  14.373  23.823  0.00  0.00    +0.000 A 
ATOM     16  C   UNL     1      -2.418  14.997  24.939  0.00  0.00    +0.000 C 
ATOM     17  C   UNL     1      -0.649  15.113  23.161  0.00  0.00    +0.000 A 
ATOM     18  C   UNL     1       0.150  14.518  22.177  0.00  0.00    +0.000 A 
ENDBRANCH  11  12
ENDBRANCH   9  11
ENDBRANCH   2   5
BRANCH   1  19
ATOM     19  C   UNL     1       3.453   7.490  17.714  0.00  0.00    +0.000 C 
BRANCH  19  20
ATOM     20  C   UNL     1       3.652   5.931  17.595  0.00  0.00    +0.000 C 
BRANCH  20  26
ATOM     21  C   UNL     1       1.920   4.098  18.301  0.00  0.00    +0.000 A 
ATOM     22  C   UNL     1       1.003   3.602  19.247  0.00  0.00    +0.000 A 
ATOM     23  C   UNL     1       1.111   3.948  20.593  0.00  0.00    +0.000 A 
ATOM     24  C   UNL     1       2.119   4.823  20.970  0.00  0.00    +0.000 A 
ATOM     25  C   UNL     1       2.915   5.461  20.003  0.00  0.00    +0.000 A 
ATOM     26  C   UNL     1       2.828   5.135  18.627  0.00  0.00    +0.000 A 
BRANCH  21  28
ATOM     27  C   UNL     1       2.985   2.055  17.532  0.00  0.00    +0.000 C 
ATOM     28  O   UNL     1       2.131   3.158  17.316  0.00  0.00    +0.000 OA
ENDBRANCH  21  28
ENDBRANCH  20  26
BRANCH  20  29
ATOM     29  N   UNL     1       5.053   5.547  17.356  0.00  0.00    +0.000 NA
ATOM     30  C   UNL     1       5.682   4.653  18.312  0.00  0.00    +0.000 C 
ATOM     31  C   UNL     1       6.787   5.477  18.939  0.00  0.00    +0.000 C 
ATOM     32  C   UNL     1       7.197   6.463  17.858  0.00  0.00    +0.000 C 
ATOM     33  C   UNL     1       6.041   6.491  16.862  0.00  0.00    +0.000 C 
ENDBRANCH  20  29
ENDBRANCH  19  20
ENDBRANCH   1  19
TORSDOF 8
ENDMDL
MODEL 4
REMARK VINA RESULT:      -8.2      1.425      1.705
REMARK  Name = 
REMARK  10 active torsions:
REMARK  status: ('A' for Active; 'I' for Inactive)
REMARK    1  A    between atoms: C_1  and  O_2
REMARK    2  A    between atoms: O_2  and  C_3
REMARK    3  A    between atoms: C_8  and  C_9
REMARK    4  A    between atoms: C_9  and  C_10
REMARK    5  A    between atoms: C_9  and  N_28
REMARK    6  A    between atoms: C_10  and  N_11
REMARK    7  A    between atoms: C_12  and  C_14
REMARK    8  A    between atoms: N_18  and  C_19
REMARK    9  A    between atoms: C_19  and  C_20
REMARK   10  A    between atoms: C_23  and  C_24
REMARK                            x       y       z     vdW  Elec       q    Type
REMARK                         _______ _______ _______ _____ _____    ______ ____
ROOT
ATOM      1  N   UNL     1       2.022   8.263  18.814  0.00  0.00    +0.000 N 
ATOM      2  C   UNL     1       1.285   9.007  19.714  0.00  0.00    +0.000 C 
ATOM      3  O   UNL     1       1.365   8.810  20.927  0.00  0.00    +0.000 OA
ATOM      4  H   UNL     1       1.941   8.424  17.816  0.00  0.00    +0.000 HD
ENDROOT
BRANCH   2   5
ATOM      5  C   UNL     1       0.298  10.020  19.118  0.00  0.00    +0.000 C 
ATOM      6  C   UNL     1       0.980  11.284  18.599  0.00  0.00    +0.000 C 
ATOM      7  C   UNL     1       0.959  12.198  19.797  0.00  0.00    +0.000 C 
ATOM      8  O   UNL     1       1.709  13.143  19.955  0.00  0.00    +0.000 OA
ATOM      9  N   UNL     1      -0.070  11.791  20.625  0.00  0.00    +0.000 N 
ATOM     10  C   UNL     1      -0.693  10.573  20.155  0.00  0.00    +0.000 C 
BRANCH   9  11
ATOM     11  C   UNL     1      -0.385  12.391  21.914  0.00  0.00    +0.000 C 
BRANCH  11  12
ATOM     12  C   UNL     1      -1.865  12.512  22.232  0.00  0.00    +0.000 A 
ATOM     13  C   UNL     1      -2.377  12.018  23.443  0.00  0.00    +0.000 A 
ATOM     14  C   UNL     1      -3.701  12.265  23.820  0.00  0.00    +0.000 A 
ATOM     15  C   UNL     1      -4.549  13.017  22.992  0.00  0.00    +0.000 A 
ATOM     16  C   UNL     1      -5.943  13.371  23.419  0.00  0.00    +0.000 C 
ATOM     17  C   UNL     1      -4.054  13.476  21.768  0.00  0.00    +0.000 A 
ATOM     18  C   UNL     1      -2.728  13.226  21.395  0.00  0.00    +0.000 A 
ENDBRANCH  11  12
ENDBRANCH   9  11
ENDBRANCH   2   5
BRANCH   1  19
ATOM     19  C   UNL     1       3.007   7.248  19.238  0.00  0.00    +0.000 C 
BRANCH  19  20
ATOM     20  C   UNL     1       2.911   5.891  18.442  0.00  0.00    +0.000 C 
BRANCH  20  26
ATOM     21  C   UNL     1       1.565   3.670  18.778  0.00  0.00    +0.000 A 
ATOM     22  C   UNL     1       0.860   2.801  19.633  0.00  0.00    +0.000 A 
ATOM     23  C   UNL     1       1.096   2.807  21.006  0.00  0.00    +0.000 A 
ATOM     24  C   UNL     1       2.012   3.717  21.514  0.00  0.00    +0.000 A 
ATOM     25  C   UNL     1       2.574   4.706  20.689  0.00  0.00    +0.000 A 
ATOM     26  C   UNL     1       2.352   4.729  19.289  0.00  0.00    +0.000 A 
BRANCH  21  28
ATOM     27  C   UNL     1       2.744   2.048  17.409  0.00  0.00    +0.000 C 
ATOM     28  O   UNL     1       1.773   3.061  17.560  0.00  0.00    +0.000 OA
ENDBRANCH  21  28
ENDBRANCH  20  26
BRANCH  20  29
ATOM     29  N   UNL     1       4.080   5.644  17.583  0.00  0.00    +0.000 NA
ATOM     30  C   UNL     1       5.134   4.791  18.103  0.00  0.00    +0.000 C 
ATOM     31  C   UNL     1       6.339   5.700  18.223  0.00  0.00    +0.000 C 
ATOM     32  C   UNL     1       6.149   6.744  17.135  0.00  0.00    +0.000 C 
ATOM     33  C   UNL     1       4.670   6.686  16.760  0.00  0.00    +0.000 C 
ENDBRANCH  20  29
ENDBRANCH  19  20
ENDBRANCH   1  19
TORSDOF 8
ENDMDL
MODEL 5
REMARK VINA RESULT:      -8.1      0.965      1.356
REMARK  Name = 
REMARK  10 active torsions:
REMARK  status: ('A' for Active; 'I' for Inactive)
REMARK    1  A    between atoms: C_1  and  O_2
REMARK    2  A    between atoms: O_2  and  C_3
REMARK    3  A    between atoms: C_8  and  C_9
REMARK    4  A    between atoms: C_9  and  C_10
REMARK    5  A    between atoms: C_9  and  N_28
REMARK    6  A    between atoms: C_10  and  N_11
REMARK    7  A    between atoms: C_12  and  C_14
REMARK    8  A    between atoms: N_18  and  C_19
REMARK    9  A    between atoms: C_19  and  C_20
REMARK   10  A    between atoms: C_23  and  C_24
REMARK                            x       y       z     vdW  Elec       q    Type
REMARK                         _______ _______ _______ _____ _____    ______ ____
ROOT
ATOM      1  N   UNL     1       1.728   8.221  19.277  0.00  0.00    +0.000 N 
ATOM      2  C   UNL     1       1.545   9.159  18.280  0.00  0.00    +0.000 C 
ATOM      3  O   UNL     1       2.417   9.379  17.439  0.00  0.00    +0.000 OA
ATOM      4  H   UNL     1       1.010   8.055  19.974  0.00  0.00    +0.000 HD
ENDROOT
BRANCH   2   5
ATOM      5  C   UNL     1       0.245   9.973  18.337  0.00  0.00    +0.000 C 
ATOM      6  C   UNL     1       0.466  11.467  18.107  0.00  0.00    +0.000 C 
ATOM      7  C   UNL     1       0.679  11.998  19.500  0.00  0.00    +0.000 C 
ATOM      8  O   UNL     1       1.250  13.041  19.759  0.00  0.00    +0.000 OA
ATOM      9  N   UNL     1       0.084  11.120  20.387  0.00  0.00    +0.000 N 
ATOM     10  C   UNL     1      -0.423   9.940  19.721  0.00  0.00    +0.000 C 
BRANCH   9  11
ATOM     11  C   UNL     1       0.117  11.254  21.836  0.00  0.00    +0.000 C 
BRANCH  11  12
ATOM     12  C   UNL     1      -0.921  12.192  22.427  0.00  0.00    +0.000 A 
ATOM     13  C   UNL     1      -2.124  11.687  22.948  0.00  0.00    +0.000 A 
ATOM     14  C   UNL     1      -3.014  12.516  23.637  0.00  0.00    +0.000 A 
ATOM     15  C   UNL     1      -2.722  13.875  23.827  0.00  0.00    +0.000 A 
ATOM     16  C   UNL     1      -3.618  14.760  24.642  0.00  0.00    +0.000 C 
ATOM     17  C   UNL     1      -1.544  14.389  23.276  0.00  0.00    +0.000 A 
ATOM     18  C   UNL     1      -0.656  13.556  22.586  0.00  0.00    +0.000 A 
ENDBRANCH  11  12
ENDBRANCH   9  11
ENDBRANCH   2   5
BRANCH   1  19
ATOM     19  C   UNL     1       2.931   7.368  19.357  0.00  0.00    +0.000 C 
BRANCH  19  20
ATOM     20  C   UNL     1       2.824   6.032  18.527  0.00  0.00    +0.000 C 
BRANCH  20  26
ATOM     21  C   UNL     1       1.457   3.819  18.832  0.00  0.00    +0.000 A 
ATOM     22  C   UNL     1       0.772   2.928  19.680  0.00  0.00    +0.000 A 
ATOM     23  C   UNL     1       1.059   2.880  21.043  0.00  0.00    +0.000 A 
ATOM     24  C   UNL     1       2.007   3.759  21.548  0.00  0.00    +0.000 A 
ATOM     25  C   UNL     1       2.553   4.769  20.739  0.00  0.00    +0.000 A 
ATOM     26  C   UNL     1       2.279   4.848  19.351  0.00  0.00    +0.000 A 
BRANCH  21  28
ATOM     27  C   UNL     1       2.627   2.306  17.335  0.00  0.00    +0.000 C 
ATOM     28  O   UNL     1       1.610   3.253  17.585  0.00  0.00    +0.000 OA
ENDBRANCH  21  28
ENDBRANCH  20  26
BRANCH  20  29
ATOM     29  N   UNL     1       3.979   5.810  17.643  0.00  0.00    +0.000 NA
ATOM     30  C   UNL     1       5.064   4.984  18.143  0.00  0.00    +0.000 C 
ATOM     31  C   UNL     1       6.250   5.921  18.234  0.00  0.00    +0.000 C 
ATOM     32  C   UNL     1       6.011   6.957  17.147  0.00  0.00    +0.000 C 
ATOM     33  C   UNL     1       4.526   6.863  16.804  0.00  0.00    +0.000 C 
ENDBRANCH  20  29
ENDBRANCH  19  20
ENDBRANCH   1  19
TORSDOF 8
ENDMDL
MODEL 6
REMARK VINA RESULT:      -8.1      1.598      2.167
REMARK  Name = 
REMARK  10 active torsions:
REMARK  status: ('A' for Active; 'I' for Inactive)
REMARK    1  A    between atoms: C_1  and  O_2
REMARK    2  A    between atoms: O_2  and  C_3
REMARK    3  A    between atoms: C_8  and  C_9
REMARK    4  A    between atoms: C_9  and  C_10
REMARK    5  A    between atoms: C_9  and  N_28
REMARK    6  A    between atoms: C_10  and  N_11
REMARK    7  A    between atoms: C_12  and  C_14
REMARK    8  A    between atoms: N_18  and  C_19
REMARK    9  A    between atoms: C_19  and  C_20
REMARK   10  A    between atoms: C_23  and  C_24
REMARK                            x       y       z     vdW  Elec       q    Type
REMARK                         _______ _______ _______ _____ _____    ______ ____
ROOT
ATOM      1  N   UNL     1       1.672   8.644  19.347  0.00  0.00    +0.000 N 
ATOM      2  C   UNL     1       0.776   9.554  19.873  0.00  0.00    +0.000 C 
ATOM      3  O   UNL     1       0.246   9.372  20.970  0.00  0.00    +0.000 OA
ATOM      4  H   UNL     1       2.095   8.795  18.438  0.00  0.00    +0.000 HD
ENDROOT
BRANCH   2   5
ATOM      5  C   UNL     1       0.408  10.746  18.980  0.00  0.00    +0.000 C 
ATOM      6  C   UNL     1       1.604  11.639  18.654  0.00  0.00    +0.000 C 
ATOM      7  C   UNL     1       1.579  12.659  19.763  0.00  0.00    +0.000 C 
ATOM      8  O   UNL     1       2.540  13.319  20.111  0.00  0.00    +0.000 OA
ATOM      9  N   UNL     1       0.289  12.722  20.255  0.00  0.00    +0.000 N 
ATOM     10  C   UNL     1      -0.568  11.723  19.655  0.00  0.00    +0.000 C 
BRANCH   9  11
ATOM     11  C   UNL     1      -0.133  13.554  21.372  0.00  0.00    +0.000 C 
BRANCH  11  12
ATOM     12  C   UNL     1      -1.519  13.259  21.918  0.00  0.00    +0.000 A 
ATOM     13  C   UNL     1      -1.697  12.311  22.938  0.00  0.00    +0.000 A 
ATOM     14  C   UNL     1      -2.938  12.145  23.559  0.00  0.00    +0.000 A 
ATOM     15  C   UNL     1      -4.038  12.928  23.176  0.00  0.00    +0.000 A 
ATOM     16  C   UNL     1      -5.353  12.831  23.891  0.00  0.00    +0.000 C 
ATOM     17  C   UNL     1      -3.874  13.845  22.133  0.00  0.00    +0.000 A 
ATOM     18  C   UNL     1      -2.629  14.008  21.514  0.00  0.00    +0.000 A 
ENDBRANCH  11  12
ENDBRANCH   9  11
ENDBRANCH   2   5
BRANCH   1  19
ATOM     19  C   UNL     1       2.117   7.446  20.087  0.00  0.00    +0.000 C 
BRANCH  19  20
ATOM     20  C   UNL     1       2.576   6.255  19.162  0.00  0.00    +0.000 C 
BRANCH  20  26
ATOM     21  C   UNL     1       1.469   3.895  18.911  0.00  0.00    +0.000 A 
ATOM     22  C   UNL     1       0.853   2.779  19.510  0.00  0.00    +0.000 A 
ATOM     23  C   UNL     1       1.075   2.478  20.852  0.00  0.00    +0.000 A 
ATOM     24  C   UNL     1       1.884   3.327  21.593  0.00  0.00    +0.000 A 
ATOM     25  C   UNL     1       2.346   4.537  21.048  0.00  0.00    +0.000 A 
ATOM     26  C   UNL     1       2.135   4.874  19.688  0.00  0.00    +0.000 A 
BRANCH  21  28
ATOM     27  C   UNL     1       2.717   2.655  17.238  0.00  0.00    +0.000 C 
ATOM     28  O   UNL     1       1.751   3.622  17.591  0.00  0.00    +0.000 OA
ENDBRANCH  21  28
ENDBRANCH  20  26
BRANCH  20  29
ATOM     29  N   UNL     1       3.947   6.417  18.654  0.00  0.00    +0.000 NA
ATOM     30  C   UNL     1       4.113   6.894  17.292  0.00  0.00    +0.000 C 
ATOM     31  C   UNL     1       4.765   5.742  16.558  0.00  0.00    +0.000 C 
ATOM     32  C   UNL     1       5.575   5.014  17.619  0.00  0.00    +0.000 C 
ATOM     33  C   UNL     1       5.004   5.467  18.960  0.00  0.00    +0.000 C 
ENDBRANCH  20  29
ENDBRANCH  19  20
ENDBRANCH   1  19
TORSDOF 8
ENDMDL
MODEL 7
REMARK VINA RESULT:      -8.0      2.165      3.803
REMARK  Name = 
REMARK  10 active torsions:
REMARK  status: ('A' for Active; 'I' for Inactive)
REMARK    1  A    between atoms: C_1  and  O_2
REMARK    2  A    between atoms: O_2  and  C_3
REMARK    3  A    between atoms: C_8  and  C_9
REMARK    4  A    between atoms: C_9  and  C_10
REMARK    5  A    between atoms: C_9  and  N_28
REMARK    6  A    between atoms: C_10  and  N_11
REMARK    7  A    between atoms: C_12  and  C_14
REMARK    8  A    between atoms: N_18  and  C_19
REMARK    9  A    between atoms: C_19  and  C_20
REMARK   10  A    between atoms: C_23  and  C_24
REMARK                            x       y       z     vdW  Elec       q    Type
REMARK                         _______ _______ _______ _____ _____    ______ ____
ROOT
ATOM      1  N   UNL     1       2.350   8.132  18.604  0.00  0.00    +0.000 N 
ATOM      2  C   UNL     1       1.924   9.436  18.448  0.00  0.00    +0.000 C 
ATOM      3  O   UNL     1       1.720   9.916  17.332  0.00  0.00    +0.000 OA
ATOM      4  H   UNL     1       2.527   7.748  19.526  0.00  0.00    +0.000 HD
ENDROOT
BRANCH   2   5
ATOM      5  C   UNL     1       1.813  10.277  19.728  0.00  0.00    +0.000 C 
ATOM      6  C   UNL     1       1.285   9.482  20.920  0.00  0.00    +0.000 C 
ATOM      7  C   UNL     1      -0.205   9.692  20.836  0.00  0.00    +0.000 C 
ATOM      8  O   UNL     1      -1.033   8.958  21.342  0.00  0.00    +0.000 OA
ATOM      9  N   UNL     1      -0.431  10.861  20.134  0.00  0.00    +0.000 N 
ATOM     10  C   UNL     1       0.794  11.421  19.607  0.00  0.00    +0.000 C 
BRANCH   9  11
ATOM     11  C   UNL     1      -1.747  11.384  19.794  0.00  0.00    +0.000 C 
BRANCH  11  12
ATOM     12  C   UNL     1      -2.297  10.939  18.450  0.00  0.00    +0.000 A 
ATOM     13  C   UNL     1      -3.393  11.601  17.874  0.00  0.00    +0.000 A 
ATOM     14  C   UNL     1      -3.807  11.309  16.571  0.00  0.00    +0.000 A 
ATOM     15  C   UNL     1      -3.132  10.345  15.807  0.00  0.00    +0.000 A 
ATOM     16  C   UNL     1      -3.501  10.082  14.377  0.00  0.00    +0.000 C 
ATOM     17  C   UNL     1      -2.065   9.656  16.392  0.00  0.00    +0.000 A 
ATOM     18  C   UNL     1      -1.654   9.951  17.697  0.00  0.00    +0.000 A 
ENDBRANCH  11  12
ENDBRANCH   9  11
ENDBRANCH   2   5
BRANCH   1  19
ATOM     19  C   UNL     1       2.508   7.205  17.465  0.00  0.00    +0.000 C 
BRANCH  19  20
ATOM     20  C   UNL     1       3.332   5.905  17.808  0.00  0.00    +0.000 C 
BRANCH  20  26
ATOM     21  C   UNL     1       2.239   3.562  18.226  0.00  0.00    +0.000 A 
ATOM     22  C   UNL     1       1.284   2.777  18.898  0.00  0.00    +0.000 A 
ATOM     23  C   UNL     1       0.765   3.182  20.126  0.00  0.00    +0.000 A 
ATOM     24  C   UNL     1       1.184   4.397  20.650  0.00  0.00    +0.000 A 
ATOM     25  C   UNL     1       1.992   5.264  19.895  0.00  0.00    +0.000 A 
ATOM     26  C   UNL     1       2.533   4.883  18.642  0.00  0.00    +0.000 A 
BRANCH  21  28
ATOM     27  C   UNL     1       3.598   1.553  18.109  0.00  0.00    +0.000 C 
ATOM     28  O   UNL     1       3.113   2.749  17.538  0.00  0.00    +0.000 OA
ENDBRANCH  21  28
ENDBRANCH  20  26
BRANCH  20  29
ATOM     29  N   UNL     1       4.727   6.189  18.180  0.00  0.00    +0.000 NA
ATOM     30  C   UNL     1       5.588   6.786  17.174  0.00  0.00    +0.000 C 
ATOM     31  C   UNL     1       6.648   5.738  16.906  0.00  0.00    +0.000 C 
ATOM     32  C   UNL     1       6.780   4.975  18.214  0.00  0.00    +0.000 C 
ATOM     33  C   UNL     1       5.509   5.282  19.003  0.00  0.00    +0.000 C 
ENDBRANCH  20  29
ENDBRANCH  19  20
ENDBRANCH   1  19
TORSDOF 8
ENDMDL
MODEL 8
REMARK VINA RESULT:      -8.0      2.197      3.441
REMARK  Name = 
REMARK  10 active torsions:
REMARK  status: ('A' for Active; 'I' for Inactive)
REMARK    1  A    between atoms: C_1  and  O_2
REMARK    2  A    between atoms: O_2  and  C_3
REMARK    3  A    between atoms: C_8  and  C_9
REMARK    4  A    between atoms: C_9  and  C_10
REMARK    5  A    between atoms: C_9  and  N_28
REMARK    6  A    between atoms: C_10  and  N_11
REMARK    7  A    between atoms: C_12  and  C_14
REMARK    8  A    between atoms: N_18  and  C_19
REMARK    9  A    between atoms: C_19  and  C_20
REMARK   10  A    between atoms: C_23  and  C_24
REMARK                            x       y       z     vdW  Elec       q    Type
REMARK                         _______ _______ _______ _____ _____    ______ ____
ROOT
ATOM      1  N   UNL     1       2.115   8.045  18.830  0.00  0.00    +0.000 N 
ATOM      2  C   UNL     1       1.445   9.253  18.863  0.00  0.00    +0.000 C 
ATOM      3  O   UNL     1       1.734  10.168  18.091  0.00  0.00    +0.000 OA
ATOM      4  H   UNL     1       1.879   7.302  19.478  0.00  0.00    +0.000 HD
ENDROOT
BRANCH   2   5
ATOM      5  C   UNL     1       0.397   9.423  19.971  0.00  0.00    +0.000 C 
ATOM      6  C   UNL     1      -0.922  10.002  19.461  0.00  0.00    +0.000 C 
ATOM      7  C   UNL     1      -0.729  11.487  19.626  0.00  0.00    +0.000 C 
ATOM      8  O   UNL     1      -1.353  12.334  19.014  0.00  0.00    +0.000 OA
ATOM      9  N   UNL     1       0.230  11.686  20.602  0.00  0.00    +0.000 N 
ATOM     10  C   UNL     1       0.818  10.440  21.044  0.00  0.00    +0.000 C 
BRANCH   9  11
ATOM     11  C   UNL     1       0.736  12.987  21.016  0.00  0.00    +0.000 C 
BRANCH  11  12
ATOM     12  C   UNL     1       1.352  13.827  19.911  0.00  0.00    +0.000 A 
ATOM     13  C   UNL     1       0.852  15.108  19.626  0.00  0.00    +0.000 A 
ATOM     14  C   UNL     1       1.508  15.954  18.727  0.00  0.00    +0.000 A 
ATOM     15  C   UNL     1       2.687  15.540  18.089  0.00  0.00    +0.000 A 
ATOM     16  C   UNL     1       3.456  16.465  17.193  0.00  0.00    +0.000 C 
ATOM     17  C   UNL     1       3.167  14.251  18.341  0.00  0.00    +0.000 A 
ATOM     18  C   UNL     1       2.506  13.407  19.242  0.00  0.00    +0.000 A 
ENDBRANCH  11  12
ENDBRANCH   9  11
ENDBRANCH   2   5
BRANCH   1  19
ATOM     19  C   UNL     1       3.153   7.738  17.826  0.00  0.00    +0.000 C 
BRANCH  19  20
ATOM     20  C   UNL     1       3.404   6.196  17.616  0.00  0.00    +0.000 C 
BRANCH  20  26
ATOM     21  C   UNL     1       1.793   4.277  18.378  0.00  0.00    +0.000 A 
ATOM     22  C   UNL     1       0.987   3.702  19.378  0.00  0.00    +0.000 A 
ATOM     23  C   UNL     1       1.221   3.972  20.725  0.00  0.00    +0.000 A 
ATOM     24  C   UNL     1       2.242   4.853  21.052  0.00  0.00    +0.000 A 
ATOM     25  C   UNL     1       2.923   5.567  20.052  0.00  0.00    +0.000 A 
ATOM     26  C   UNL     1       2.706   5.319  18.674  0.00  0.00    +0.000 A 
BRANCH  21  28
ATOM     27  C   UNL     1       2.609   2.177  17.472  0.00  0.00    +0.000 C 
ATOM     28  O   UNL     1       1.924   3.402  17.322  0.00  0.00    +0.000 OA
ENDBRANCH  21  28
ENDBRANCH  20  26
BRANCH  20  29
ATOM     29  N   UNL     1       4.793   5.885  17.240  0.00  0.00    +0.000 NA
ATOM     30  C   UNL     1       5.292   6.425  15.988  0.00  0.00    +0.000 C 
ATOM     31  C   UNL     1       5.566   5.210  15.127  0.00  0.00    +0.000 C 
ATOM     32  C   UNL     1       5.913   4.106  16.113  0.00  0.00    +0.000 C 
ATOM     33  C   UNL     1       5.381   4.576  17.465  0.00  0.00    +0.000 C 
ENDBRANCH  20  29
ENDBRANCH  19  20
ENDBRANCH   1  19
TORSDOF 8
ENDMDL
MODEL 9
REMARK VINA RESULT:      -7.9      2.151      3.252
REMARK  Name = 
REMARK  10 active torsions:
REMARK  status: ('A' for Active; 'I' for Inactive)
REMARK    1  A    between atoms: C_1  and  O_2
REMARK    2  A    between atoms: O_2  and  C_3
REMARK    3  A    between atoms: C_8  and  C_9
REMARK    4  A    between atoms: C_9  and  C_10
REMARK    5  A    between atoms: C_9  and  N_28
REMARK    6  A    between atoms: C_10  and  N_11
REMARK    7  A    between atoms: C_12  and  C_14
REMARK    8  A    between atoms: N_18  and  C_19
REMARK    9  A    between atoms: C_19  and  C_20
REMARK   10  A    between atoms: C_23  and  C_24
REMARK                            x       y       z     vdW  Elec       q    Type
REMARK                         _______ _______ _______ _____ _____    ______ ____
ROOT
ATOM      1  N   UNL     1       1.983   8.023  18.447  0.00  0.00    +0.000 N 
ATOM      2  C   UNL     1       1.461   9.302  18.455  0.00  0.00    +0.000 C 
ATOM      3  O   UNL     1       2.074  10.248  17.960  0.00  0.00    +0.000 OA
ATOM      4  H   UNL     1       1.478   7.251  18.868  0.00  0.00    +0.000 HD
ENDROOT
BRANCH   2   5
ATOM      5  C   UNL     1       0.130   9.492  19.196  0.00  0.00    +0.000 C 
ATOM      6  C   UNL     1      -0.947  10.143  18.330  0.00  0.00    +0.000 C 
ATOM      7  C   UNL     1      -0.760  11.613  18.602  0.00  0.00    +0.000 C 
ATOM      8  O   UNL     1      -1.136  12.503  17.862  0.00  0.00    +0.000 OA
ATOM      9  N   UNL     1      -0.140  11.743  19.830  0.00  0.00    +0.000 N 
ATOM     10  C   UNL     1       0.239  10.461  20.384  0.00  0.00    +0.000 C 
BRANCH   9  11
ATOM     11  C   UNL     1       0.261  13.009  20.428  0.00  0.00    +0.000 C 
BRANCH  11  12
ATOM     12  C   UNL     1       1.118  13.902  19.547  0.00  0.00    +0.000 A 
ATOM     13  C   UNL     1       0.725  15.222  19.274  0.00  0.00    +0.000 A 
ATOM     14  C   UNL     1       1.578  16.103  18.603  0.00  0.00    +0.000 A 
ATOM     15  C   UNL     1       2.851  15.686  18.187  0.00  0.00    +0.000 A 
ATOM     16  C   UNL     1       3.816  16.640  17.548  0.00  0.00    +0.000 C 
ATOM     17  C   UNL     1       3.230  14.361  18.423  0.00  0.00    +0.000 A 
ATOM     18  C   UNL     1       2.373  13.482  19.096  0.00  0.00    +0.000 A 
ENDBRANCH  11  12
ENDBRANCH   9  11
ENDBRANCH   2   5
BRANCH   1  19
ATOM     19  C   UNL     1       3.257   7.687  17.779  0.00  0.00    +0.000 C 
BRANCH  19  20
ATOM     20  C   UNL     1       3.481   6.142  17.568  0.00  0.00    +0.000 C 
BRANCH  20  26
ATOM     21  C   UNL     1       1.874   4.213  18.312  0.00  0.00    +0.000 A 
ATOM     22  C   UNL     1       1.041   3.645  19.295  0.00  0.00    +0.000 A 
ATOM     23  C   UNL     1       1.222   3.947  20.643  0.00  0.00    +0.000 A 
ATOM     24  C   UNL     1       2.217   4.851  20.988  0.00  0.00    +0.000 A 
ATOM     25  C   UNL     1       2.922   5.555  19.998  0.00  0.00    +0.000 A 
ATOM     26  C   UNL     1       2.759   5.275  18.619  0.00  0.00    +0.000 A 
BRANCH  21  28
ATOM     27  C   UNL     1       2.724   2.093  17.489  0.00  0.00    +0.000 C 
ATOM     28  O   UNL     1       2.057   3.318  17.280  0.00  0.00    +0.000 OA
ENDBRANCH  21  28
ENDBRANCH  20  26
BRANCH  20  29
ATOM     29  N   UNL     1       4.867   5.806  17.202  0.00  0.00    +0.000 NA
ATOM     30  C   UNL     1       5.487   4.674  17.867  0.00  0.00    +0.000 C 
ATOM     31  C   UNL     1       6.624   5.274  18.667  0.00  0.00    +0.000 C 
ATOM     32  C   UNL     1       7.043   6.507  17.882  0.00  0.00    +0.000 C 
ATOM     33  C   UNL     1       5.872   6.827  16.957  0.00  0.00    +0.000 C 
ENDBRANCH  20  29
ENDBRANCH  19  20
ENDBRANCH   1  19
TORSDOF 8
ENDMDL
