MODEL 1
REMARK VINA RESULT:      -8.8      0.000      0.000
REMARK  Name = 
REMARK  5 active torsions:
REMARK  status: ('A' for Active; 'I' for Inactive)
REMARK    1  A    between atoms: C_2  and  O_5
REMARK    2  A    between atoms: O_5  and  C_6
REMARK    3  A    between atoms: C_11  and  C_12
REMARK    4  A    between atoms: C_16  and  N_17
REMARK    5  A    between atoms: C_20  and  C_21
REMARK                            x       y       z     vdW  Elec       q    Type
REMARK                         _______ _______ _______ _____ _____    ______ ____
ROOT
ATOM      1  C   UNL     1       4.222   5.237  17.850  0.00  0.00    +0.000 A 
ATOM      2  C   UNL     1       4.017   4.227  18.807  0.00  0.00    +0.000 A 
ATOM      3  C   UNL     1       3.208   4.425  19.934  0.00  0.00    +0.000 A 
ATOM      4  C   UNL     1       2.545   5.633  20.121  0.00  0.00    +0.000 A 
ATOM      5  C   UNL     1       2.674   6.633  19.156  0.00  0.00    +0.000 A 
ATOM      6  C   UNL     1       3.514   6.438  18.040  0.00  0.00    +0.000 A 
ENDROOT
BRANCH   1  12
ATOM      7  C   UNL     1       6.418   5.673  16.613  0.00  0.00    +0.000 A 
ATOM      8  C   UNL     1       7.270   5.415  15.530  0.00  0.00    +0.000 A 
ATOM      9  C   UNL     1       6.827   4.667  14.444  0.00  0.00    +0.000 A 
ATOM     10  C   UNL     1       5.548   4.125  14.456  0.00  0.00    +0.000 A 
ATOM     11  C   UNL     1       4.731   4.297  15.575  0.00  0.00    +0.000 A 
ATOM     12  C   UNL     1       5.138   5.066  16.688  0.00  0.00    +0.000 A 
BRANCH   7  13
ATOM     13  O   UNL     1       6.793   6.482  17.650  0.00  0.00    +0.000 OA
BRANCH  13  15
ATOM     14  F   UNL     1       6.800   5.660  19.827  0.00  0.00    +0.000 F 
ATOM     15  C   UNL     1       7.531   5.909  18.722  0.00  0.00    +0.000 C 
ATOM     16  F   UNL     1       8.547   6.736  19.048  0.00  0.00    +0.000 F 
ATOM     17  F   UNL     1       8.059   4.736  18.303  0.00  0.00    +0.000 F 
ENDBRANCH  13  15
ENDBRANCH   7  13
ENDBRANCH   1  12
BRANCH   5  18
ATOM     18  N   UNL     1       1.940   7.838  19.264  0.00  0.00    +0.000 N 
ATOM     19  N   UNL     1       2.007   8.842  18.362  0.00  0.00    +0.000 NA
ATOM     20  N   UNL     1       1.307   9.837  18.892  0.00  0.00    +0.000 NA
ATOM     21  C   UNL     1       0.842   9.394  20.107  0.00  0.00    +0.000 A 
ATOM     22  N   UNL     1       1.175   8.114  20.348  0.00  0.00    +0.000 NA
BRANCH  21  23
ATOM     23  C   UNL     1       0.117  10.238  21.057  0.00  0.00    +0.000 A 
ATOM     24  C   UNL     1      -0.320   9.711  22.274  0.00  0.00    +0.000 A 
ATOM     25  C   UNL     1      -0.959  10.548  23.185  0.00  0.00    +0.000 A 
ATOM     26  C   UNL     1      -1.143  11.885  22.860  0.00  0.00    +0.000 A 
ATOM     27  C   UNL     1      -0.685  12.331  21.630  0.00  0.00    +0.000 A 
ATOM     28  N   UNL     1      -0.060  11.546  20.728  0.00  0.00    +0.000 NA
ENDBRANCH  21  23
ENDBRANCH   5  18
TORSDOF 5
ENDMDL
MODEL 2
REMARK VINA RESULT:      -8.6      4.864      8.727
REMARK  Name = 
REMARK  5 active torsions:
REMARK  status: ('A' for Active; 'I' for Inactive)
REMARK    1  A    between atoms: C_2  and  O_5
REMARK    2  A    between atoms: O_5  and  C_6
REMARK    3  A    between atoms: C_11  and  C_12
REMARK    4  A    between atoms: C_16  and  N_17
REMARK    5  A    between atoms: C_20  and  C_21
REMARK                            x       y       z     vdW  Elec       q    Type
REMARK                         _______ _______ _______ _____ _____    ______ ____
ROOT
ATOM      1  C   UNL     1       5.043   4.766  19.050  0.00  0.00    +0.000 A 
ATOM      2  C   UNL     1       6.070   5.369  19.797  0.00  0.00    +0.000 A 
ATOM      3  C   UNL     1       7.318   5.671  19.236  0.00  0.00    +0.000 A 
ATOM      4  C   UNL     1       7.566   5.411  17.892  0.00  0.00    +0.000 A 
ATOM      5  C   UNL     1       6.546   4.874  17.106  0.00  0.00    +0.000 A 
ATOM      6  C   UNL     1       5.303   4.544  17.685  0.00  0.00    +0.000 A 
ENDROOT
BRANCH   1  12
ATOM      7  C   UNL     1       2.703   5.298  19.935  0.00  0.00    +0.000 A 
ATOM      8  C   UNL     1       1.467   4.860  20.431  0.00  0.00    +0.000 A 
ATOM      9  C   UNL     1       1.278   3.528  20.786  0.00  0.00    +0.000 A 
ATOM     10  C   UNL     1       2.305   2.612  20.594  0.00  0.00    +0.000 A 
ATOM     11  C   UNL     1       3.504   3.024  20.008  0.00  0.00    +0.000 A 
ATOM     12  C   UNL     1       3.740   4.371  19.653  0.00  0.00    +0.000 A 
BRANCH   7  13
ATOM     13  O   UNL     1       2.948   6.617  19.666  0.00  0.00    +0.000 OA
BRANCH  13  15
ATOM     14  F   UNL     1       1.755   8.187  18.431  0.00  0.00    +0.000 F 
ATOM     15  C   UNL     1       2.586   7.125  18.390  0.00  0.00    +0.000 C 
ATOM     16  F   UNL     1       2.001   6.142  17.673  0.00  0.00    +0.000 F 
ATOM     17  F   UNL     1       3.710   7.507  17.742  0.00  0.00    +0.000 F 
ENDBRANCH  13  15
ENDBRANCH   7  13
ENDBRANCH   1  12
BRANCH   5  18
ATOM     18  N   UNL     1       6.731   4.685  15.716  0.00  0.00    +0.000 N 
ATOM     19  N   UNL     1       7.466   5.508  14.937  0.00  0.00    +0.000 NA
ATOM     20  N   UNL     1       7.269   5.086  13.695  0.00  0.00    +0.000 NA
ATOM     21  C   UNL     1       6.411   4.015  13.771  0.00  0.00    +0.000 A 
ATOM     22  N   UNL     1       6.096   3.698  15.039  0.00  0.00    +0.000 NA
BRANCH  21  23
ATOM     23  C   UNL     1       5.855   3.334  12.600  0.00  0.00    +0.000 A 
ATOM     24  C   UNL     1       6.564   2.299  11.988  0.00  0.00    +0.000 A 
ATOM     25  C   UNL     1       5.990   1.630  10.910  0.00  0.00    +0.000 A 
ATOM     26  C   UNL     1       4.728   2.008  10.475  0.00  0.00    +0.000 A 
ATOM     27  C   UNL     1       4.091   3.048  11.132  0.00  0.00    +0.000 A 
ATOM     28  N   UNL     1       4.619   3.714  12.180  0.00  0.00    +0.000 NA
ENDBRANCH  21  23
ENDBRANCH   5  18
TORSDOF 5
ENDMDL
MODEL 3
REMARK VINA RESULT:      -8.6      2.076      3.721
REMARK  Name = 
REMARK  5 active torsions:
REMARK  status: ('A' for Active; 'I' for Inactive)
REMARK    1  A    between atoms: C_2  and  O_5
REMARK    2  A    between atoms: O_5  and  C_6
REMARK    3  A    between atoms: C_11  and  C_12
REMARK    4  A    between atoms: C_16  and  N_17
REMARK    5  A    between atoms: C_20  and  C_21
REMARK                            x       y       z     vdW  Elec       q    Type
REMARK                         _______ _______ _______ _____ _____    ______ ____
ROOT
ATOM      1  C   UNL     1       2.277   6.545  19.220  0.00  0.00    +0.000 A 
ATOM      2  C   UNL     1       2.471   7.228  18.006  0.00  0.00    +0.000 A 
ATOM      3  C   UNL     1       2.104   8.571  17.843  0.00  0.00    +0.000 A 
ATOM      4  C   UNL     1       1.564   9.287  18.906  0.00  0.00    +0.000 A 
ATOM      5  C   UNL     1       1.420   8.657  20.143  0.00  0.00    +0.000 A 
ATOM      6  C   UNL     1       1.762   7.298  20.292  0.00  0.00    +0.000 A 
ENDROOT
BRANCH   1  12
ATOM      7  C   UNL     1       3.917   4.599  19.482  0.00  0.00    +0.000 A 
ATOM      8  C   UNL     1       4.153   3.237  19.713  0.00  0.00    +0.000 A 
ATOM      9  C   UNL     1       3.100   2.327  19.715  0.00  0.00    +0.000 A 
ATOM     10  C   UNL     1       1.798   2.779  19.543  0.00  0.00    +0.000 A 
ATOM     11  C   UNL     1       1.549   4.146  19.411  0.00  0.00    +0.000 A 
ATOM     12  C   UNL     1       2.593   5.099  19.384  0.00  0.00    +0.000 A 
BRANCH   7  13
ATOM     13  O   UNL     1       4.939   5.502  19.380  0.00  0.00    +0.000 OA
BRANCH  13  15
ATOM     14  F   UNL     1       6.835   4.742  18.266  0.00  0.00    +0.000 F 
ATOM     15  C   UNL     1       5.724   5.504  18.196  0.00  0.00    +0.000 C 
ATOM     16  F   UNL     1       6.084   6.773  17.908  0.00  0.00    +0.000 F 
ATOM     17  F   UNL     1       4.968   5.038  17.175  0.00  0.00    +0.000 F 
ENDBRANCH  13  15
ENDBRANCH   7  13
ENDBRANCH   1  12
BRANCH   5  18
ATOM     18  N   UNL     1       0.963   9.381  21.271  0.00  0.00    +0.000 N 
ATOM     19  N   UNL     1       1.033   8.918  22.538  0.00  0.00    +0.000 NA
ATOM     20  N   UNL     1       0.372   9.804  23.273  0.00  0.00    +0.000 NA
ATOM     21  C   UNL     1      -0.077  10.777  22.412  0.00  0.00    +0.000 A 
ATOM     22  N   UNL     1       0.327  10.570  21.147  0.00  0.00    +0.000 NA
BRANCH  21  23
ATOM     23  C   UNL     1      -0.949  11.881  22.817  0.00  0.00    +0.000 A 
ATOM     24  C   UNL     1      -2.287  11.639  23.133  0.00  0.00    +0.000 A 
ATOM     25  C   UNL     1      -3.082  12.696  23.569  0.00  0.00    +0.000 A 
ATOM     26  C   UNL     1      -2.522  13.961  23.680  0.00  0.00    +0.000 A 
ATOM     27  C   UNL     1      -1.188  14.121  23.343  0.00  0.00    +0.000 A 
ATOM     28  N   UNL     1      -0.391  13.116  22.921  0.00  0.00    +0.000 NA
ENDBRANCH  21  23
ENDBRANCH   5  18
TORSDOF 5
ENDMDL
MODEL 4
REMARK VINA RESULT:      -8.5      1.614      1.924
REMARK  Name = 
REMARK  5 active torsions:
REMARK  status: ('A' for Active; 'I' for Inactive)
REMARK    1  A    between atoms: C_2  and  O_5
REMARK    2  A    between atoms: O_5  and  C_6
REMARK    3  A    between atoms: C_11  and  C_12
REMARK    4  A    between atoms: C_16  and  N_17
REMARK    5  A    between atoms: C_20  and  C_21
REMARK                            x       y       z     vdW  Elec       q    Type
REMARK                         _______ _______ _______ _____ _____    ______ ____
ROOT
ATOM      1  C   UNL     1       4.147   5.027  17.835  0.00  0.00    +0.000 A 
ATOM      2  C   UNL     1       3.805   3.860  18.542  0.00  0.00    +0.000 A 
ATOM      3  C   UNL     1       2.984   3.893  19.677  0.00  0.00    +0.000 A 
ATOM      4  C   UNL     1       2.445   5.097  20.121  0.00  0.00    +0.000 A 
ATOM      5  C   UNL     1       2.710   6.263  19.403  0.00  0.00    +0.000 A 
ATOM      6  C   UNL     1       3.562   6.228  18.280  0.00  0.00    +0.000 A 
ENDROOT
BRANCH   1  12
ATOM      7  C   UNL     1       6.306   5.727  16.655  0.00  0.00    +0.000 A 
ATOM      8  C   UNL     1       7.180   5.618  15.565  0.00  0.00    +0.000 A 
ATOM      9  C   UNL     1       6.803   4.920  14.422  0.00  0.00    +0.000 A 
ATOM     10  C   UNL     1       5.571   4.278  14.381  0.00  0.00    +0.000 A 
ATOM     11  C   UNL     1       4.738   4.302  15.502  0.00  0.00    +0.000 A 
ATOM     12  C   UNL     1       5.078   5.016  16.673  0.00  0.00    +0.000 A 
BRANCH   7  13
ATOM     13  O   UNL     1       6.610   6.483  17.753  0.00  0.00    +0.000 OA
BRANCH  13  15
ATOM     14  F   UNL     1       6.839   5.637  19.909  0.00  0.00    +0.000 F 
ATOM     15  C   UNL     1       7.459   5.923  18.746  0.00  0.00    +0.000 C 
ATOM     16  F   UNL     1       8.473   6.779  18.992  0.00  0.00    +0.000 F 
ATOM     17  F   UNL     1       7.986   4.773  18.265  0.00  0.00    +0.000 F 
ENDBRANCH  13  15
ENDBRANCH   7  13
ENDBRANCH   1  12
BRANCH   5  18
ATOM     18  N   UNL     1       2.103   7.489  19.769  0.00  0.00    +0.000 N 
ATOM     19  N   UNL     1       1.600   7.739  20.997  0.00  0.00    +0.000 NA
ATOM     20  N   UNL     1       0.992   8.914  20.895  0.00  0.00    +0.000 NA
ATOM     21  C   UNL     1       1.152   9.332  19.595  0.00  0.00    +0.000 A 
ATOM     22  N   UNL     1       1.898   8.481  18.870  0.00  0.00    +0.000 NA
BRANCH  21  23
ATOM     23  C   UNL     1       0.528  10.537  19.046  0.00  0.00    +0.000 A 
ATOM     24  C   UNL     1      -0.788  10.497  18.581  0.00  0.00    +0.000 A 
ATOM     25  C   UNL     1      -1.378  11.669  18.115  0.00  0.00    +0.000 A 
ATOM     26  C   UNL     1      -0.643  12.846  18.126  0.00  0.00    +0.000 A 
ATOM     27  C   UNL     1       0.659  12.803  18.598  0.00  0.00    +0.000 A 
ATOM     28  N   UNL     1       1.257  11.684  19.059  0.00  0.00    +0.000 NA
ENDBRANCH  21  23
ENDBRANCH   5  18
TORSDOF 5
ENDMDL
MODEL 5
REMARK VINA RESULT:      -8.5      4.435      6.772
REMARK  Name = 
REMARK  5 active torsions:
REMARK  status: ('A' for Active; 'I' for Inactive)
REMARK    1  A    between atoms: C_2  and  O_5
REMARK    2  A    between atoms: O_5  and  C_6
REMARK    3  A    between atoms: C_11  and  C_12
REMARK    4  A    between atoms: C_16  and  N_17
REMARK    5  A    between atoms: C_20  and  C_21
REMARK                            x       y       z     vdW  Elec       q    Type
REMARK                         _______ _______ _______ _____ _____    ______ ____
ROOT
ATOM      1  C   UNL     1       4.604   4.332  16.855  0.00  0.00    +0.000 A 
ATOM      2  C   UNL     1       4.867   4.076  15.498  0.00  0.00    +0.000 A 
ATOM      3  C   UNL     1       5.883   4.743  14.800  0.00  0.00    +0.000 A 
ATOM      4  C   UNL     1       6.697   5.664  15.452  0.00  0.00    +0.000 A 
ATOM      5  C   UNL     1       6.506   5.891  16.815  0.00  0.00    +0.000 A 
ATOM      6  C   UNL     1       5.461   5.241  17.503  0.00  0.00    +0.000 A 
ENDROOT
BRANCH   1  12
ATOM      7  C   UNL     1       2.385   4.412  18.124  0.00  0.00    +0.000 A 
ATOM      8  C   UNL     1       1.315   3.745  18.737  0.00  0.00    +0.000 A 
ATOM      9  C   UNL     1       1.369   2.371  18.954  0.00  0.00    +0.000 A 
ATOM     10  C   UNL     1       2.467   1.646  18.509  0.00  0.00    +0.000 A 
ATOM     11  C   UNL     1       3.490   2.291  17.810  0.00  0.00    +0.000 A 
ATOM     12  C   UNL     1       3.480   3.687  17.588  0.00  0.00    +0.000 A 
BRANCH   7  13
ATOM     13  O   UNL     1       2.402   5.772  17.983  0.00  0.00    +0.000 OA
BRANCH  13  15
ATOM     14  F   UNL     1       1.517   6.613  19.965  0.00  0.00    +0.000 F 
ATOM     15  C   UNL     1       2.587   6.571  19.144  0.00  0.00    +0.000 C 
ATOM     16  F   UNL     1       2.898   7.829  18.768  0.00  0.00    +0.000 F 
ATOM     17  F   UNL     1       3.628   6.072  19.849  0.00  0.00    +0.000 F 
ENDBRANCH  13  15
ENDBRANCH   7  13
ENDBRANCH   1  12
BRANCH   5  18
ATOM     18  N   UNL     1       7.374   6.750  17.531  0.00  0.00    +0.000 N 
ATOM     19  N   UNL     1       8.015   6.393  18.665  0.00  0.00    +0.000 NA
ATOM     20  N   UNL     1       8.596   7.502  19.105  0.00  0.00    +0.000 NA
ATOM     21  C   UNL     1       8.279   8.497  18.212  0.00  0.00    +0.000 A 
ATOM     22  N   UNL     1       7.555   8.044  17.174  0.00  0.00    +0.000 NA
BRANCH  21  23
ATOM     23  C   UNL     1       8.637   9.903  18.401  0.00  0.00    +0.000 A 
ATOM     24  C   UNL     1       9.500  10.276  19.433  0.00  0.00    +0.000 A 
ATOM     25  C   UNL     1       9.870  11.612  19.559  0.00  0.00    +0.000 A 
ATOM     26  C   UNL     1       9.372  12.538  18.653  0.00  0.00    +0.000 A 
ATOM     27  C   UNL     1       8.517  12.091  17.659  0.00  0.00    +0.000 A 
ATOM     28  N   UNL     1       8.143  10.803  17.509  0.00  0.00    +0.000 NA
ENDBRANCH  21  23
ENDBRANCH   5  18
TORSDOF 5
ENDMDL
MODEL 6
REMARK VINA RESULT:      -8.5      2.142      4.118
REMARK  Name = 
REMARK  5 active torsions:
REMARK  status: ('A' for Active; 'I' for Inactive)
REMARK    1  A    between atoms: C_2  and  O_5
REMARK    2  A    between atoms: O_5  and  C_6
REMARK    3  A    between atoms: C_11  and  C_12
REMARK    4  A    between atoms: C_16  and  N_17
REMARK    5  A    between atoms: C_20  and  C_21
REMARK                            x       y       z     vdW  Elec       q    Type
REMARK                         _______ _______ _______ _____ _____    ______ ____
ROOT
ATOM      1  C   UNL     1       2.229   6.930  19.459  0.00  0.00    +0.000 A 
ATOM      2  C   UNL     1       2.317   7.591  18.221  0.00  0.00    +0.000 A 
ATOM      3  C   UNL     1       1.808   8.883  18.030  0.00  0.00    +0.000 A 
ATOM      4  C   UNL     1       1.226   9.573  19.089  0.00  0.00    +0.000 A 
ATOM      5  C   UNL     1       1.183   8.971  20.347  0.00  0.00    +0.000 A 
ATOM      6  C   UNL     1       1.669   7.660  20.524  0.00  0.00    +0.000 A 
ENDROOT
BRANCH   1  12
ATOM      7  C   UNL     1       3.966   5.068  19.217  0.00  0.00    +0.000 A 
ATOM      8  C   UNL     1       4.386   3.760  19.496  0.00  0.00    +0.000 A 
ATOM      9  C   UNL     1       3.517   2.849  20.088  0.00  0.00    +0.000 A 
ATOM     10  C   UNL     1       2.241   3.253  20.457  0.00  0.00    +0.000 A 
ATOM     11  C   UNL     1       1.851   4.581  20.270  0.00  0.00    +0.000 A 
ATOM     12  C   UNL     1       2.698   5.530  19.655  0.00  0.00    +0.000 A 
BRANCH   7  13
ATOM     13  O   UNL     1       4.764   5.957  18.552  0.00  0.00    +0.000 OA
BRANCH  13  15
ATOM     14  F   UNL     1       6.212   5.007  16.998  0.00  0.00    +0.000 F 
ATOM     15  C   UNL     1       5.071   5.701  17.188  0.00  0.00    +0.000 C 
ATOM     16  F   UNL     1       5.161   6.875  16.528  0.00  0.00    +0.000 F 
ATOM     17  F   UNL     1       4.059   4.987  16.643  0.00  0.00    +0.000 F 
ENDBRANCH  13  15
ENDBRANCH   7  13
ENDBRANCH   1  12
BRANCH   5  18
ATOM     18  N   UNL     1       0.685   9.679  21.467  0.00  0.00    +0.000 N 
ATOM     19  N   UNL     1       0.849   9.273  22.745  0.00  0.00    +0.000 NA
ATOM     20  N   UNL     1       0.117  10.106  23.475  0.00  0.00    +0.000 NA
ATOM     21  C   UNL     1      -0.468  10.990  22.601  0.00  0.00    +0.000 A 
ATOM     22  N   UNL     1      -0.086  10.785  21.329  0.00  0.00    +0.000 NA
BRANCH  21  23
ATOM     23  C   UNL     1      -1.445  12.004  23.002  0.00  0.00    +0.000 A 
ATOM     24  C   UNL     1      -1.130  13.360  22.906  0.00  0.00    +0.000 A 
ATOM     25  C   UNL     1      -2.096  14.306  23.242  0.00  0.00    +0.000 A 
ATOM     26  C   UNL     1      -3.346  13.874  23.661  0.00  0.00    +0.000 A 
ATOM     27  C   UNL     1      -3.580  12.511  23.734  0.00  0.00    +0.000 A 
ATOM     28  N   UNL     1      -2.667  11.571  23.413  0.00  0.00    +0.000 NA
ENDBRANCH  21  23
ENDBRANCH   5  18
TORSDOF 5
ENDMDL
MODEL 7
REMARK VINA RESULT:      -8.5      0.936      1.084
REMARK  Name = 
REMARK  5 active torsions:
REMARK  status: ('A' for Active; 'I' for Inactive)
REMARK    1  A    between atoms: C_2  and  O_5
REMARK    2  A    between atoms: O_5  and  C_6
REMARK    3  A    between atoms: C_11  and  C_12
REMARK    4  A    between atoms: C_16  and  N_17
REMARK    5  A    between atoms: C_20  and  C_21
REMARK                            x       y       z     vdW  Elec       q    Type
REMARK                         _______ _______ _______ _____ _____    ______ ____
ROOT
ATOM      1  C   UNL     1       4.538   4.996  17.654  0.00  0.00    +0.000 A 
ATOM      2  C   UNL     1       4.453   3.996  18.639  0.00  0.00    +0.000 A 
ATOM      3  C   UNL     1       3.706   4.170  19.812  0.00  0.00    +0.000 A 
ATOM      4  C   UNL     1       2.985   5.342  20.019  0.00  0.00    +0.000 A 
ATOM      5  C   UNL     1       2.994   6.326  19.030  0.00  0.00    +0.000 A 
ATOM      6  C   UNL     1       3.773   6.158  17.867  0.00  0.00    +0.000 A 
ENDROOT
BRANCH   1  12
ATOM      7  C   UNL     1       6.764   5.200  16.410  0.00  0.00    +0.000 A 
ATOM      8  C   UNL     1       7.535   4.972  15.262  0.00  0.00    +0.000 A 
ATOM      9  C   UNL     1       6.939   4.529  14.085  0.00  0.00    +0.000 A 
ATOM     10  C   UNL     1       5.577   4.257  14.063  0.00  0.00    +0.000 A 
ATOM     11  C   UNL     1       4.823   4.388  15.231  0.00  0.00    +0.000 A 
ATOM     12  C   UNL     1       5.388   4.854  16.439  0.00  0.00    +0.000 A 
BRANCH   7  13
ATOM     13  O   UNL     1       7.305   5.724  17.552  0.00  0.00    +0.000 OA
BRANCH  13  15
ATOM     14  F   UNL     1       6.351   7.844  17.656  0.00  0.00    +0.000 F 
ATOM     15  C   UNL     1       7.495   7.130  17.626  0.00  0.00    +0.000 C 
ATOM     16  F   UNL     1       8.231   7.531  16.568  0.00  0.00    +0.000 F 
ATOM     17  F   UNL     1       8.188   7.414  18.753  0.00  0.00    +0.000 F 
ENDBRANCH  13  15
ENDBRANCH   7  13
ENDBRANCH   1  12
BRANCH   5  18
ATOM     18  N   UNL     1       2.198   7.489  19.164  0.00  0.00    +0.000 N 
ATOM     19  N   UNL     1       2.143   8.472  18.239  0.00  0.00    +0.000 NA
ATOM     20  N   UNL     1       1.422   9.438  18.795  0.00  0.00    +0.000 NA
ATOM     21  C   UNL     1       1.067   8.998  20.048  0.00  0.00    +0.000 A 
ATOM     22  N   UNL     1       1.493   7.746  20.292  0.00  0.00    +0.000 NA
BRANCH  21  23
ATOM     23  C   UNL     1       0.359   9.822  21.028  0.00  0.00    +0.000 A 
ATOM     24  C   UNL     1      -0.138   9.248  22.200  0.00  0.00    +0.000 A 
ATOM     25  C   UNL     1      -0.760  10.063  23.143  0.00  0.00    +0.000 A 
ATOM     26  C   UNL     1      -0.868  11.423  22.893  0.00  0.00    +0.000 A 
ATOM     27  C   UNL     1      -0.354  11.916  21.704  0.00  0.00    +0.000 A 
ATOM     28  N   UNL     1       0.256  11.153  20.773  0.00  0.00    +0.000 NA
ENDBRANCH  21  23
ENDBRANCH   5  18
TORSDOF 5
ENDMDL
MODEL 8
REMARK VINA RESULT:      -8.4      4.894      8.739
REMARK  Name = 
REMARK  5 active torsions:
REMARK  status: ('A' for Active; 'I' for Inactive)
REMARK    1  A    between atoms: C_2  and  O_5
REMARK    2  A    between atoms: O_5  and  C_6
REMARK    3  A    between atoms: C_11  and  C_12
REMARK    4  A    between atoms: C_16  and  N_17
REMARK    5  A    between atoms: C_20  and  C_21
REMARK                            x       y       z     vdW  Elec       q    Type
REMARK                         _______ _______ _______ _____ _____    ______ ____
ROOT
ATOM      1  C   UNL     1       5.098   4.786  19.081  0.00  0.00    +0.000 A 
ATOM      2  C   UNL     1       6.136   5.406  19.800  0.00  0.00    +0.000 A 
ATOM      3  C   UNL     1       7.371   5.706  19.211  0.00  0.00    +0.000 A 
ATOM      4  C   UNL     1       7.596   5.428  17.867  0.00  0.00    +0.000 A 
ATOM      5  C   UNL     1       6.564   4.875  17.108  0.00  0.00    +0.000 A 
ATOM      6  C   UNL     1       5.334   4.546  17.715  0.00  0.00    +0.000 A 
ENDROOT
BRANCH   1  12
ATOM      7  C   UNL     1       2.748   5.307  19.946  0.00  0.00    +0.000 A 
ATOM      8  C   UNL     1       1.527   4.867  20.475  0.00  0.00    +0.000 A 
ATOM      9  C   UNL     1       1.376   3.553  20.909  0.00  0.00    +0.000 A 
ATOM     10  C   UNL     1       2.426   2.655  20.765  0.00  0.00    +0.000 A 
ATOM     11  C   UNL     1       3.611   3.064  20.149  0.00  0.00    +0.000 A 
ATOM     12  C   UNL     1       3.808   4.394  19.714  0.00  0.00    +0.000 A 
BRANCH   7  13
ATOM     13  O   UNL     1       2.956   6.614  19.599  0.00  0.00    +0.000 OA
BRANCH  13  15
ATOM     14  F   UNL     1       3.650   7.385  17.516  0.00  0.00    +0.000 F 
ATOM     15  C   UNL     1       2.602   7.029  18.287  0.00  0.00    +0.000 C 
ATOM     16  F   UNL     1       1.749   8.072  18.371  0.00  0.00    +0.000 F 
ATOM     17  F   UNL     1       1.963   6.010  17.669  0.00  0.00    +0.000 F 
ENDBRANCH  13  15
ENDBRANCH   7  13
ENDBRANCH   1  12
BRANCH   5  18
ATOM     18  N   UNL     1       6.724   4.666  15.717  0.00  0.00    +0.000 N 
ATOM     19  N   UNL     1       7.472   5.460  14.920  0.00  0.00    +0.000 NA
ATOM     20  N   UNL     1       7.245   5.032  13.685  0.00  0.00    +0.000 NA
ATOM     21  C   UNL     1       6.357   3.987  13.783  0.00  0.00    +0.000 A 
ATOM     22  N   UNL     1       6.051   3.692  15.058  0.00  0.00    +0.000 NA
BRANCH  21  23
ATOM     23  C   UNL     1       5.766   3.312  12.628  0.00  0.00    +0.000 A 
ATOM     24  C   UNL     1       4.533   3.732  12.123  0.00  0.00    +0.000 A 
ATOM     25  C   UNL     1       4.017   3.110  10.990  0.00  0.00    +0.000 A 
ATOM     26  C   UNL     1       4.742   2.090  10.390  0.00  0.00    +0.000 A 
ATOM     27  C   UNL     1       5.955   1.727  10.953  0.00  0.00    +0.000 A 
ATOM     28  N   UNL     1       6.483   2.313  12.048  0.00  0.00    +0.000 NA
ENDBRANCH  21  23
ENDBRANCH   5  18
TORSDOF 5
ENDMDL
MODEL 9
REMARK VINA RESULT:      -8.4      1.572      2.128
REMARK  Name = 
REMARK  5 active torsions:
REMARK  status: ('A' for Active; 'I' for Inactive)
REMARK    1  A    between atoms: C_2  and  O_5
REMARK    2  A    between atoms: O_5  and  C_6
REMARK    3  A    between atoms: C_11  and  C_12
REMARK    4  A    between atoms: C_16  and  N_17
REMARK    5  A    between atoms: C_20  and  C_21
REMARK                            x       y       z     vdW  Elec       q    Type
REMARK                         _______ _______ _______ _____ _____    ______ ____
ROOT
ATOM      1  C   UNL     1       4.078   4.993  18.052  0.00  0.00    +0.000 A 
ATOM      2  C   UNL     1       3.796   3.831  18.792  0.00  0.00    +0.000 A 
ATOM      3  C   UNL     1       3.002   3.860  19.947  0.00  0.00    +0.000 A 
ATOM      4  C   UNL     1       2.432   5.053  20.379  0.00  0.00    +0.000 A 
ATOM      5  C   UNL     1       2.637   6.212  19.630  0.00  0.00    +0.000 A 
ATOM      6  C   UNL     1       3.463   6.182  18.487  0.00  0.00    +0.000 A 
ENDROOT
BRANCH   1  12
ATOM      7  C   UNL     1       6.219   5.680  16.833  0.00  0.00    +0.000 A 
ATOM      8  C   UNL     1       7.065   5.578  15.720  0.00  0.00    +0.000 A 
ATOM      9  C   UNL     1       6.648   4.909  14.573  0.00  0.00    +0.000 A 
ATOM     10  C   UNL     1       5.405   4.288  14.551  0.00  0.00    +0.000 A 
ATOM     11  C   UNL     1       4.600   4.303  15.692  0.00  0.00    +0.000 A 
ATOM     12  C   UNL     1       4.981   4.989  16.868  0.00  0.00    +0.000 A 
BRANCH   7  13
ATOM     13  O   UNL     1       6.563   6.410  17.937  0.00  0.00    +0.000 OA
BRANCH  13  15
ATOM     14  F   UNL     1       8.116   4.737  18.392  0.00  0.00    +0.000 F 
ATOM     15  C   UNL     1       7.539   5.877  18.823  0.00  0.00    +0.000 C 
ATOM     16  F   UNL     1       6.966   5.649  20.023  0.00  0.00    +0.000 F 
ATOM     17  F   UNL     1       8.518   6.796  18.991  0.00  0.00    +0.000 F 
ENDBRANCH  13  15
ENDBRANCH   7  13
ENDBRANCH   1  12
BRANCH   5  18
ATOM     18  N   UNL     1       1.997   7.423  19.986  0.00  0.00    +0.000 N 
ATOM     19  N   UNL     1       1.347   7.613  21.154  0.00  0.00    +0.000 NA
ATOM     20  N   UNL     1       0.763   8.799  21.043  0.00  0.00    +0.000 NA
ATOM     21  C   UNL     1       1.083   9.284  19.797  0.00  0.00    +0.000 A 
ATOM     22  N   UNL     1       1.909   8.465  19.124  0.00  0.00    +0.000 NA
BRANCH  21  23
ATOM     23  C   UNL     1       0.538  10.524  19.243  0.00  0.00    +0.000 A 
ATOM     24  C   UNL     1       1.363  11.636  19.063  0.00  0.00    +0.000 A 
ATOM     25  C   UNL     1       0.834  12.786  18.483  0.00  0.00    +0.000 A 
ATOM     26  C   UNL     1      -0.499  12.796  18.097  0.00  0.00    +0.000 A 
ATOM     27  C   UNL     1      -1.254  11.654  18.312  0.00  0.00    +0.000 A 
ATOM     28  N   UNL     1      -0.770  10.524  18.869  0.00  0.00    +0.000 NA
ENDBRANCH  21  23
ENDBRANCH   5  18
TORSDOF 5
ENDMDL
