MODEL 1
REMARK VINA RESULT:      -6.9      0.000      0.000
REMARK  Name = 
REMARK  3 active torsions:
REMARK  status: ('A' for Active; 'I' for Inactive)
REMARK    1  A    between atoms: N_3  and  C_4
REMARK    2  A    between atoms: N_13  and  C_14
REMARK    3  A    between atoms: C_14  and  C_15
REMARK                            x       y       z     vdW  Elec       q    Type
REMARK                         _______ _______ _______ _____ _____    ______ ____
ROOT
ATOM      1  O   UNL     1       1.709   5.768  20.897  0.00  0.00    +0.000 OA
ATOM      2  C   UNL     1       2.198   6.430  19.982  0.00  0.00    +0.000 C 
ATOM      3  N   UNL     1       1.925   7.759  19.761  0.00  0.00    +0.000 N 
ATOM      4  N   UNL     1       3.092   5.856  19.088  0.00  0.00    +0.000 N 
ATOM      5  C   UNL     1       3.793   6.525  17.984  0.00  0.00    +0.000 C 
ATOM      6  C   UNL     1       5.288   6.138  17.930  0.00  0.00    +0.000 C 
ATOM      7  N   UNL     1       5.555   4.682  17.969  0.00  0.00    +0.000 NA
ATOM      8  C   UNL     1       4.871   4.128  19.163  0.00  0.00    +0.000 C 
ATOM      9  C   UNL     1       3.364   4.421  19.220  0.00  0.00    +0.000 C 
ATOM     10  H   UNL     1       2.061   8.093  18.823  0.00  0.00    +0.000 HD
ENDROOT
BRANCH   3  11
ATOM     11  C   UNL     1       1.192   8.621  20.603  0.00  0.00    +0.000 A 
ATOM     12  C   UNL     1       1.232   8.558  21.998  0.00  0.00    +0.000 A 
ATOM     13  C   UNL     1       0.440   9.412  22.767  0.00  0.00    +0.000 A 
ATOM     14  C   UNL     1      -0.380  10.351  22.148  0.00  0.00    +0.000 A 
ATOM     15  C   UNL     1      -0.393  10.453  20.759  0.00  0.00    +0.000 A 
ATOM     16  C   UNL     1       0.396   9.595  19.990  0.00  0.00    +0.000 A 
ENDBRANCH   3  11
BRANCH   7  17
ATOM     17  C   UNL     1       5.130   4.047  16.708  0.00  0.00    +0.000 C 
BRANCH  17  18
ATOM     18  C   UNL     1       5.999   4.406  15.545  0.00  0.00    +0.000 A 
ATOM     19  C   UNL     1       7.165   5.146  15.518  0.00  0.00    +0.000 A 
ATOM     20  N   UNL     1       7.746   5.309  14.276  0.00  0.00    +0.000 NA
ATOM     21  C   UNL     1       7.017   4.688  13.373  0.00  0.00    +0.000 A 
ATOM     22  S   UNL     1       5.609   3.901  13.950  0.00  0.00    +0.000 S 
ENDBRANCH  17  18
ENDBRANCH   7  17
TORSDOF 3
ENDMDL
MODEL 2
REMARK VINA RESULT:      -6.8      4.404      9.418
REMARK  Name = 
REMARK  3 active torsions:
REMARK  status: ('A' for Active; 'I' for Inactive)
REMARK    1  A    between atoms: N_3  and  C_4
REMARK    2  A    between atoms: N_13  and  C_14
REMARK    3  A    between atoms: C_14  and  C_15
REMARK                            x       y       z     vdW  Elec       q    Type
REMARK                         _______ _______ _______ _____ _____    ______ ____
ROOT
ATOM      1  O   UNL     1       2.183   9.144  17.388  0.00  0.00    +0.000 OA
ATOM      2  C   UNL     1       1.906   8.620  18.466  0.00  0.00    +0.000 C 
ATOM      3  N   UNL     1       2.242   7.331  18.806  0.00  0.00    +0.000 N 
ATOM      4  N   UNL     1       1.217   9.325  19.443  0.00  0.00    +0.000 N 
ATOM      5  C   UNL     1       0.861   8.856  20.789  0.00  0.00    +0.000 C 
ATOM      6  C   UNL     1       1.151   9.923  21.868  0.00  0.00    +0.000 C 
ATOM      7  N   UNL     1       0.606  11.268  21.576  0.00  0.00    +0.000 NA
ATOM      8  C   UNL     1       1.094  11.674  20.235  0.00  0.00    +0.000 C 
ATOM      9  C   UNL     1       0.758  10.679  19.113  0.00  0.00    +0.000 C 
ATOM     10  H   UNL     1       1.674   6.892  19.508  0.00  0.00    +0.000 HD
ENDROOT
BRANCH   3  11
ATOM     11  C   UNL     1       3.076   6.457  18.078  0.00  0.00    +0.000 A 
ATOM     12  C   UNL     1       4.243   6.865  17.426  0.00  0.00    +0.000 A 
ATOM     13  C   UNL     1       4.993   5.952  16.682  0.00  0.00    +0.000 A 
ATOM     14  C   UNL     1       4.595   4.622  16.603  0.00  0.00    +0.000 A 
ATOM     15  C   UNL     1       3.459   4.194  17.286  0.00  0.00    +0.000 A 
ATOM     16  C   UNL     1       2.706   5.108  18.026  0.00  0.00    +0.000 A 
ENDBRANCH   3  11
BRANCH   7  17
ATOM     17  C   UNL     1      -0.865  11.261  21.682  0.00  0.00    +0.000 C 
BRANCH  17  18
ATOM     18  C   UNL     1      -1.400  12.372  22.527  0.00  0.00    +0.000 A 
ATOM     19  C   UNL     1      -0.801  13.563  22.892  0.00  0.00    +0.000 A 
ATOM     20  N   UNL     1      -1.557  14.397  23.692  0.00  0.00    +0.000 NA
ATOM     21  C   UNL     1      -2.724  13.833  23.924  0.00  0.00    +0.000 A 
ATOM     22  S   UNL     1      -2.969  12.290  23.222  0.00  0.00    +0.000 S 
ENDBRANCH  17  18
ENDBRANCH   7  17
TORSDOF 3
ENDMDL
MODEL 3
REMARK VINA RESULT:      -6.7      4.170      9.106
REMARK  Name = 
REMARK  3 active torsions:
REMARK  status: ('A' for Active; 'I' for Inactive)
REMARK    1  A    between atoms: N_3  and  C_4
REMARK    2  A    between atoms: N_13  and  C_14
REMARK    3  A    between atoms: C_14  and  C_15
REMARK                            x       y       z     vdW  Elec       q    Type
REMARK                         _______ _______ _______ _____ _____    ______ ____
ROOT
ATOM      1  O   UNL     1       2.216   8.932  17.426  0.00  0.00    +0.000 OA
ATOM      2  C   UNL     1       2.042   8.359  18.499  0.00  0.00    +0.000 C 
ATOM      3  N   UNL     1       2.495   7.091  18.778  0.00  0.00    +0.000 N 
ATOM      4  N   UNL     1       1.360   8.981  19.536  0.00  0.00    +0.000 N 
ATOM      5  C   UNL     1       1.119   8.449  20.884  0.00  0.00    +0.000 C 
ATOM      6  C   UNL     1       1.389   9.504  21.979  0.00  0.00    +0.000 C 
ATOM      7  N   UNL     1       0.728  10.810  21.761  0.00  0.00    +0.000 NA
ATOM      8  C   UNL     1       1.105  11.290  20.409  0.00  0.00    +0.000 C 
ATOM      9  C   UNL     1       0.781  10.304  19.276  0.00  0.00    +0.000 C 
ATOM     10  H   UNL     1       2.003   6.590  19.497  0.00  0.00    +0.000 HD
ENDROOT
BRANCH   3  11
ATOM     11  C   UNL     1       3.349   6.305  17.977  0.00  0.00    +0.000 A 
ATOM     12  C   UNL     1       4.481   6.807  17.331  0.00  0.00    +0.000 A 
ATOM     13  C   UNL     1       5.253   5.980  16.513  0.00  0.00    +0.000 A 
ATOM     14  C   UNL     1       4.912   4.640  16.354  0.00  0.00    +0.000 A 
ATOM     15  C   UNL     1       3.812   4.118  17.030  0.00  0.00    +0.000 A 
ATOM     16  C   UNL     1       3.037   4.947  17.844  0.00  0.00    +0.000 A 
ENDBRANCH   3  11
BRANCH   7  17
ATOM     17  C   UNL     1      -0.730  10.686  21.948  0.00  0.00    +0.000 C 
BRANCH  17  18
ATOM     18  C   UNL     1      -1.454  11.988  21.816  0.00  0.00    +0.000 A 
ATOM     19  C   UNL     1      -2.310  12.418  20.821  0.00  0.00    +0.000 A 
ATOM     20  N   UNL     1      -2.829  13.689  20.980  0.00  0.00    +0.000 NA
ATOM     21  C   UNL     1      -2.363  14.209  22.096  0.00  0.00    +0.000 A 
ATOM     22  S   UNL     1      -1.283  13.228  22.994  0.00  0.00    +0.000 S 
ENDBRANCH  17  18
ENDBRANCH   7  17
TORSDOF 3
ENDMDL
MODEL 4
REMARK VINA RESULT:      -6.7      4.282      9.260
REMARK  Name = 
REMARK  3 active torsions:
REMARK  status: ('A' for Active; 'I' for Inactive)
REMARK    1  A    between atoms: N_3  and  C_4
REMARK    2  A    between atoms: N_13  and  C_14
REMARK    3  A    between atoms: C_14  and  C_15
REMARK                            x       y       z     vdW  Elec       q    Type
REMARK                         _______ _______ _______ _____ _____    ______ ____
ROOT
ATOM      1  O   UNL     1       2.248   8.288  18.049  0.00  0.00    +0.000 OA
ATOM      2  C   UNL     1       1.952   7.875  19.168  0.00  0.00    +0.000 C 
ATOM      3  N   UNL     1       2.264   6.620  19.635  0.00  0.00    +0.000 N 
ATOM      4  N   UNL     1       1.265   8.682  20.065  0.00  0.00    +0.000 N 
ATOM      5  C   UNL     1       0.888   8.351  21.446  0.00  0.00    +0.000 C 
ATOM      6  C   UNL     1       1.185   9.513  22.420  0.00  0.00    +0.000 C 
ATOM      7  N   UNL     1       0.664  10.831  21.993  0.00  0.00    +0.000 NA
ATOM      8  C   UNL     1       1.172  11.098  20.626  0.00  0.00    +0.000 C 
ATOM      9  C   UNL     1       0.831  10.004  19.601  0.00  0.00    +0.000 C 
ATOM     10  H   UNL     1       1.682   6.260  20.370  0.00  0.00    +0.000 HD
ENDROOT
BRANCH   3  11
ATOM     11  C   UNL     1       3.092   5.667  19.005  0.00  0.00    +0.000 A 
ATOM     12  C   UNL     1       4.456   5.531  19.271  0.00  0.00    +0.000 A 
ATOM     13  C   UNL     1       5.223   4.598  18.571  0.00  0.00    +0.000 A 
ATOM     14  C   UNL     1       4.627   3.779  17.617  0.00  0.00    +0.000 A 
ATOM     15  C   UNL     1       3.258   3.875  17.376  0.00  0.00    +0.000 A 
ATOM     16  C   UNL     1       2.493   4.812  18.073  0.00  0.00    +0.000 A 
ENDBRANCH   3  11
BRANCH   7  17
ATOM     17  C   UNL     1      -0.807  10.856  22.082  0.00  0.00    +0.000 C 
BRANCH  17  18
ATOM     18  C   UNL     1      -1.339  12.112  22.697  0.00  0.00    +0.000 A 
ATOM     19  C   UNL     1      -0.720  13.335  22.865  0.00  0.00    +0.000 A 
ATOM     20  N   UNL     1      -1.478  14.315  23.475  0.00  0.00    +0.000 NA
ATOM     21  C   UNL     1      -2.667  13.826  23.762  0.00  0.00    +0.000 A 
ATOM     22  S   UNL     1      -2.932  12.188  23.337  0.00  0.00    +0.000 S 
ENDBRANCH  17  18
ENDBRANCH   7  17
TORSDOF 3
ENDMDL
MODEL 5
REMARK VINA RESULT:      -6.7      4.338      9.337
REMARK  Name = 
REMARK  3 active torsions:
REMARK  status: ('A' for Active; 'I' for Inactive)
REMARK    1  A    between atoms: N_3  and  C_4
REMARK    2  A    between atoms: N_13  and  C_14
REMARK    3  A    between atoms: C_14  and  C_15
REMARK                            x       y       z     vdW  Elec       q    Type
REMARK                         _______ _______ _______ _____ _____    ______ ____
ROOT
ATOM      1  O   UNL     1       2.145   8.995  17.383  0.00  0.00    +0.000 OA
ATOM      2  C   UNL     1       1.931   8.475  18.476  0.00  0.00    +0.000 C 
ATOM      3  N   UNL     1       2.318   7.198  18.811  0.00  0.00    +0.000 N 
ATOM      4  N   UNL     1       1.269   9.171  19.478  0.00  0.00    +0.000 N 
ATOM      5  C   UNL     1       0.988   8.705  20.843  0.00  0.00    +0.000 C 
ATOM      6  C   UNL     1       1.299   9.790  21.899  0.00  0.00    +0.000 C 
ATOM      7  N   UNL     1       0.705  11.117  21.621  0.00  0.00    +0.000 NA
ATOM      8  C   UNL     1       1.120  11.523  20.256  0.00  0.00    +0.000 C 
ATOM      9  C   UNL     1       0.760  10.509  19.159  0.00  0.00    +0.000 C 
ATOM     10  H   UNL     1       1.794   6.751  19.543  0.00  0.00    +0.000 HD
ENDROOT
BRANCH   3  11
ATOM     11  C   UNL     1       3.141   6.340  18.053  0.00  0.00    +0.000 A 
ATOM     12  C   UNL     1       2.851   4.992  17.825  0.00  0.00    +0.000 A 
ATOM     13  C   UNL     1       3.739   4.190  17.105  0.00  0.00    +0.000 A 
ATOM     14  C   UNL     1       4.910   4.735  16.589  0.00  0.00    +0.000 A 
ATOM     15  C   UNL     1       5.187   6.088  16.771  0.00  0.00    +0.000 A 
ATOM     16  C   UNL     1       4.301   6.888  17.495  0.00  0.00    +0.000 A 
ENDBRANCH   3  11
BRANCH   7  17
ATOM     17  C   UNL     1      -0.759  11.072  21.794  0.00  0.00    +0.000 C 
BRANCH  17  18
ATOM     18  C   UNL     1      -1.298  12.243  22.552  0.00  0.00    +0.000 A 
ATOM     19  C   UNL     1      -0.720  13.475  22.789  0.00  0.00    +0.000 A 
ATOM     20  N   UNL     1      -1.475  14.362  23.533  0.00  0.00    +0.000 NA
ATOM     21  C   UNL     1      -2.620  13.794  23.850  0.00  0.00    +0.000 A 
ATOM     22  S   UNL     1      -2.845  12.188  23.298  0.00  0.00    +0.000 S 
ENDBRANCH  17  18
ENDBRANCH   7  17
TORSDOF 3
ENDMDL
MODEL 6
REMARK VINA RESULT:      -6.5      1.977      2.912
REMARK  Name = 
REMARK  3 active torsions:
REMARK  status: ('A' for Active; 'I' for Inactive)
REMARK    1  A    between atoms: N_3  and  C_4
REMARK    2  A    between atoms: N_13  and  C_14
REMARK    3  A    between atoms: C_14  and  C_15
REMARK                            x       y       z     vdW  Elec       q    Type
REMARK                         _______ _______ _______ _____ _____    ______ ____
ROOT
ATOM      1  O   UNL     1       1.771   8.990  19.113  0.00  0.00    +0.000 OA
ATOM      2  C   UNL     1       1.701   8.145  20.003  0.00  0.00    +0.000 C 
ATOM      3  N   UNL     1       1.149   8.374  21.242  0.00  0.00    +0.000 N 
ATOM      4  N   UNL     1       2.187   6.860  19.805  0.00  0.00    +0.000 N 
ATOM      5  C   UNL     1       2.130   5.735  20.749  0.00  0.00    +0.000 C 
ATOM      6  C   UNL     1       1.690   4.425  20.059  0.00  0.00    +0.000 C 
ATOM      7  N   UNL     1       2.436   4.090  18.826  0.00  0.00    +0.000 NA
ATOM      8  C   UNL     1       2.359   5.259  17.917  0.00  0.00    +0.000 C 
ATOM      9  C   UNL     1       2.862   6.573  18.535  0.00  0.00    +0.000 C 
ATOM     10  H   UNL     1       1.464   7.780  21.988  0.00  0.00    +0.000 HD
ENDROOT
BRANCH   3  11
ATOM     11  C   UNL     1       0.440   9.524  21.649  0.00  0.00    +0.000 A 
ATOM     12  C   UNL     1       0.545  10.763  21.013  0.00  0.00    +0.000 A 
ATOM     13  C   UNL     1      -0.150  11.870  21.504  0.00  0.00    +0.000 A 
ATOM     14  C   UNL     1      -0.972  11.740  22.619  0.00  0.00    +0.000 A 
ATOM     15  C   UNL     1      -1.120  10.499  23.233  0.00  0.00    +0.000 A 
ATOM     16  C   UNL     1      -0.421   9.393  22.746  0.00  0.00    +0.000 A 
ENDBRANCH   3  11
BRANCH   7  17
ATOM     17  C   UNL     1       3.820   3.698  19.152  0.00  0.00    +0.000 C 
BRANCH  17  18
ATOM     18  C   UNL     1       4.775   3.909  18.021  0.00  0.00    +0.000 A 
ATOM     19  C   UNL     1       4.690   3.481  16.711  0.00  0.00    +0.000 A 
ATOM     20  N   UNL     1       5.743   3.837  15.890  0.00  0.00    +0.000 NA
ATOM     21  C   UNL     1       6.615   4.536  16.586  0.00  0.00    +0.000 A 
ATOM     22  S   UNL     1       6.236   4.787  18.238  0.00  0.00    +0.000 S 
ENDBRANCH  17  18
ENDBRANCH   7  17
TORSDOF 3
ENDMDL
MODEL 7
REMARK VINA RESULT:      -6.5      4.097      8.233
REMARK  Name = 
REMARK  3 active torsions:
REMARK  status: ('A' for Active; 'I' for Inactive)
REMARK    1  A    between atoms: N_3  and  C_4
REMARK    2  A    between atoms: N_13  and  C_14
REMARK    3  A    between atoms: C_14  and  C_15
REMARK                            x       y       z     vdW  Elec       q    Type
REMARK                         _______ _______ _______ _____ _____    ______ ____
ROOT
ATOM      1  O   UNL     1       1.758   6.078  20.891  0.00  0.00    +0.000 OA
ATOM      2  C   UNL     1       2.080   6.647  19.850  0.00  0.00    +0.000 C 
ATOM      3  N   UNL     1       2.724   6.033  18.802  0.00  0.00    +0.000 N 
ATOM      4  N   UNL     1       1.796   7.992  19.658  0.00  0.00    +0.000 N 
ATOM      5  C   UNL     1       2.068   8.793  18.456  0.00  0.00    +0.000 C 
ATOM      6  C   UNL     1       0.863   9.677  18.066  0.00  0.00    +0.000 C 
ATOM      7  N   UNL     1       0.303  10.489  19.170  0.00  0.00    +0.000 NA
ATOM      8  C   UNL     1      -0.011   9.572  20.292  0.00  0.00    +0.000 C 
ATOM      9  C   UNL     1       1.181   8.727  20.769  0.00  0.00    +0.000 C 
ATOM     10  H   UNL     1       3.256   6.629  18.194  0.00  0.00    +0.000 HD
ENDROOT
BRANCH   3  11
ATOM     11  C   UNL     1       2.981   4.653  18.663  0.00  0.00    +0.000 A 
ATOM     12  C   UNL     1       3.987   3.980  19.360  0.00  0.00    +0.000 A 
ATOM     13  C   UNL     1       4.216   2.621  19.133  0.00  0.00    +0.000 A 
ATOM     14  C   UNL     1       3.426   1.922  18.226  0.00  0.00    +0.000 A 
ATOM     15  C   UNL     1       2.390   2.573  17.560  0.00  0.00    +0.000 A 
ATOM     16  C   UNL     1       2.165   3.932  17.783  0.00  0.00    +0.000 A 
ENDBRANCH   3  11
BRANCH   7  17
ATOM     17  C   UNL     1       1.239  11.566  19.543  0.00  0.00    +0.000 C 
BRANCH  17  18
ATOM     18  C   UNL     1       0.625  12.928  19.477  0.00  0.00    +0.000 A 
ATOM     19  C   UNL     1       0.948  13.997  18.664  0.00  0.00    +0.000 A 
ATOM     20  N   UNL     1       0.191  15.139  18.840  0.00  0.00    +0.000 NA
ATOM     21  C   UNL     1      -0.701  14.924  19.784  0.00  0.00    +0.000 A 
ATOM     22  S   UNL     1      -0.673  13.373  20.511  0.00  0.00    +0.000 S 
ENDBRANCH  17  18
ENDBRANCH   7  17
TORSDOF 3
ENDMDL
MODEL 8
REMARK VINA RESULT:      -6.5      1.393      2.148
REMARK  Name = 
REMARK  3 active torsions:
REMARK  status: ('A' for Active; 'I' for Inactive)
REMARK    1  A    between atoms: N_3  and  C_4
REMARK    2  A    between atoms: N_13  and  C_14
REMARK    3  A    between atoms: C_14  and  C_15
REMARK                            x       y       z     vdW  Elec       q    Type
REMARK                         _______ _______ _______ _____ _____    ______ ____
ROOT
ATOM      1  O   UNL     1       1.961   8.771  18.583  0.00  0.00    +0.000 OA
ATOM      2  C   UNL     1       2.159   7.938  19.466  0.00  0.00    +0.000 C 
ATOM      3  N   UNL     1       1.666   8.039  20.746  0.00  0.00    +0.000 N 
ATOM      4  N   UNL     1       2.915   6.801  19.215  0.00  0.00    +0.000 N 
ATOM      5  C   UNL     1       3.195   5.700  20.146  0.00  0.00    +0.000 C 
ATOM      6  C   UNL     1       3.021   4.319  19.476  0.00  0.00    +0.000 C 
ATOM      7  N   UNL     1       3.727   4.160  18.185  0.00  0.00    +0.000 NA
ATOM      8  C   UNL     1       3.309   5.273  17.299  0.00  0.00    +0.000 C 
ATOM      9  C   UNL     1       3.537   6.673  17.893  0.00  0.00    +0.000 C 
ATOM     10  H   UNL     1       2.169   7.540  21.458  0.00  0.00    +0.000 HD
ENDROOT
BRANCH   3  11
ATOM     11  C   UNL     1       0.742   8.994  21.221  0.00  0.00    +0.000 A 
ATOM     12  C   UNL     1       0.091   9.916  20.398  0.00  0.00    +0.000 A 
ATOM     13  C   UNL     1      -0.773  10.865  20.947  0.00  0.00    +0.000 A 
ATOM     14  C   UNL     1      -1.011  10.883  22.317  0.00  0.00    +0.000 A 
ATOM     15  C   UNL     1      -0.402   9.940  23.141  0.00  0.00    +0.000 A 
ATOM     16  C   UNL     1       0.467   8.994  22.593  0.00  0.00    +0.000 A 
ENDBRANCH   3  11
BRANCH   7  17
ATOM     17  C   UNL     1       5.185   4.104  18.400  0.00  0.00    +0.000 C 
BRANCH  17  18
ATOM     18  C   UNL     1       5.974   4.509  17.195  0.00  0.00    +0.000 A 
ATOM     19  C   UNL     1       6.924   5.503  17.063  0.00  0.00    +0.000 A 
ATOM     20  N   UNL     1       7.484   5.638  15.808  0.00  0.00    +0.000 NA
ATOM     21  C   UNL     1       6.955   4.743  15.000  0.00  0.00    +0.000 A 
ATOM     22  S   UNL     1       5.766   3.717  15.685  0.00  0.00    +0.000 S 
ENDBRANCH  17  18
ENDBRANCH   7  17
TORSDOF 3
ENDMDL
MODEL 9
REMARK VINA RESULT:      -6.5      3.910      8.205
REMARK  Name = 
REMARK  3 active torsions:
REMARK  status: ('A' for Active; 'I' for Inactive)
REMARK    1  A    between atoms: N_3  and  C_4
REMARK    2  A    between atoms: N_13  and  C_14
REMARK    3  A    between atoms: C_14  and  C_15
REMARK                            x       y       z     vdW  Elec       q    Type
REMARK                         _______ _______ _______ _____ _____    ______ ____
ROOT
ATOM      1  O   UNL     1       1.822   6.154  20.719  0.00  0.00    +0.000 OA
ATOM      2  C   UNL     1       2.010   6.744  19.657  0.00  0.00    +0.000 C 
ATOM      3  N   UNL     1       2.439   6.135  18.501  0.00  0.00    +0.000 N 
ATOM      4  N   UNL     1       1.787   8.111  19.554  0.00  0.00    +0.000 N 
ATOM      5  C   UNL     1       1.916   8.941  18.349  0.00  0.00    +0.000 C 
ATOM      6  C   UNL     1       0.724   9.910  18.184  0.00  0.00    +0.000 C 
ATOM      7  N   UNL     1       0.400  10.708  19.387  0.00  0.00    +0.000 NA
ATOM      8  C   UNL     1       0.210   9.767  20.518  0.00  0.00    +0.000 C 
ATOM      9  C   UNL     1       1.406   8.835  20.771  0.00  0.00    +0.000 C 
ATOM     10  H   UNL     1       2.905   6.723  17.833  0.00  0.00    +0.000 HD
ENDROOT
BRANCH   3  11
ATOM     11  C   UNL     1       2.580   4.749  18.281  0.00  0.00    +0.000 A 
ATOM     12  C   UNL     1       1.520   3.843  18.350  0.00  0.00    +0.000 A 
ATOM     13  C   UNL     1       1.744   2.477  18.170  0.00  0.00    +0.000 A 
ATOM     14  C   UNL     1       3.026   2.010  17.896  0.00  0.00    +0.000 A 
ATOM     15  C   UNL     1       4.083   2.910  17.780  0.00  0.00    +0.000 A 
ATOM     16  C   UNL     1       3.859   4.275  17.966  0.00  0.00    +0.000 A 
ENDBRANCH   3  11
BRANCH   7  17
ATOM     17  C   UNL     1       1.451  11.712  19.637  0.00  0.00    +0.000 C 
BRANCH  17  18
ATOM     18  C   UNL     1       1.009  13.112  19.350  0.00  0.00    +0.000 A 
ATOM     19  C   UNL     1      -0.216  13.570  18.903  0.00  0.00    +0.000 A 
ATOM     20  N   UNL     1      -0.321  14.936  18.729  0.00  0.00    +0.000 NA
ATOM     21  C   UNL     1       0.824  15.502  19.048  0.00  0.00    +0.000 A 
ATOM     22  S   UNL     1       2.075  14.444  19.551  0.00  0.00    +0.000 S 
ENDBRANCH  17  18
ENDBRANCH   7  17
TORSDOF 3
ENDMDL
