MODEL 1
REMARK VINA RESULT:      -7.4      0.000      0.000
REMARK  Name = 
REMARK  1 active torsions:
REMARK  status: ('A' for Active; 'I' for Inactive)
REMARK    1  A    between atoms: C_2  and  C_3
REMARK                            x       y       z     vdW  Elec       q    Type
REMARK                         _______ _______ _______ _____ _____    ______ ____
ROOT
ATOM      1  C   UNL     1       5.299   5.868  17.597  0.00  0.00    +0.000 A 
ATOM      2  C   UNL     1       4.117   6.577  17.474  0.00  0.00    +0.000 A 
ATOM      3  F   UNL     1       4.085   7.718  16.770  0.00  0.00    +0.000 F 
ATOM      4  C   UNL     1       2.950   6.113  18.080  0.00  0.00    +0.000 A 
ATOM      5  F   UNL     1       1.829   6.838  17.932  0.00  0.00    +0.000 F 
ATOM      6  C   UNL     1       2.916   4.934  18.826  0.00  0.00    +0.000 A 
ATOM      7  N   UNL     1       1.773   4.519  19.392  0.00  0.00    +0.000 NA
ATOM      8  C   UNL     1       1.794   3.383  20.089  0.00  0.00    +0.000 A 
ATOM      9  N   UNL     1       0.625   2.966  20.650  0.00  0.00    +0.000 N 
ATOM     10  N   UNL     1       2.876   2.628  20.268  0.00  0.00    +0.000 NA
ATOM     11  C   UNL     1       4.019   3.041  19.706  0.00  0.00    +0.000 A 
ATOM     12  N   UNL     1       5.114   2.243  19.952  0.00  0.00    +0.000 N 
ATOM     13  C   UNL     1       4.106   4.215  18.954  0.00  0.00    +0.000 A 
ATOM     14  C   UNL     1       5.287   4.692  18.336  0.00  0.00    +0.000 A 
ATOM     15  F   UNL     1       6.429   3.994  18.457  0.00  0.00    +0.000 F 
ATOM     16  H   UNL     1      -0.189   3.546  20.541  0.00  0.00    +0.000 HD
ATOM     17  H   UNL     1       0.635   2.127  21.204  0.00  0.00    +0.000 HD
ATOM     18  H   UNL     1       4.955   1.396  20.480  0.00  0.00    +0.000 HD
ATOM     19  H   UNL     1       6.013   2.420  19.529  0.00  0.00    +0.000 HD
ENDROOT
BRANCH   1  21
ATOM     20  N   UNL     1       7.490   6.701  16.501  0.00  0.00    +0.000 NA
ATOM     21  C   UNL     1       6.500   6.326  16.985  0.00  0.00    +0.000 C 
ENDBRANCH   1  21
TORSDOF 1
ENDMDL
MODEL 2
REMARK VINA RESULT:      -7.3      1.799      3.060
REMARK  Name = 
REMARK  1 active torsions:
REMARK  status: ('A' for Active; 'I' for Inactive)
REMARK    1  A    between atoms: C_2  and  C_3
REMARK                            x       y       z     vdW  Elec       q    Type
REMARK                         _______ _______ _______ _____ _____    ______ ____
ROOT
ATOM      1  C   UNL     1       4.400   5.207  17.125  0.00  0.00    +0.000 A 
ATOM      2  C   UNL     1       4.510   3.829  17.063  0.00  0.00    +0.000 A 
ATOM      3  F   UNL     1       5.174   3.250  16.051  0.00  0.00    +0.000 F 
ATOM      4  C   UNL     1       3.933   3.030  18.050  0.00  0.00    +0.000 A 
ATOM      5  F   UNL     1       4.068   1.697  17.943  0.00  0.00    +0.000 F 
ATOM      6  C   UNL     1       3.231   3.569  19.128  0.00  0.00    +0.000 A 
ATOM      7  N   UNL     1       2.691   2.768  20.059  0.00  0.00    +0.000 NA
ATOM      8  C   UNL     1       2.035   3.335  21.070  0.00  0.00    +0.000 A 
ATOM      9  N   UNL     1       1.502   2.511  22.015  0.00  0.00    +0.000 N 
ATOM     10  N   UNL     1       1.871   4.647  21.222  0.00  0.00    +0.000 NA
ATOM     11  C   UNL     1       2.406   5.449  20.294  0.00  0.00    +0.000 A 
ATOM     12  N   UNL     1       2.176   6.794  20.479  0.00  0.00    +0.000 N 
ATOM     13  C   UNL     1       3.115   4.959  19.195  0.00  0.00    +0.000 A 
ATOM     14  C   UNL     1       3.703   5.764  18.189  0.00  0.00    +0.000 A 
ATOM     15  F   UNL     1       3.594   7.102  18.260  0.00  0.00    +0.000 F 
ATOM     16  H   UNL     1       1.598   1.519  21.891  0.00  0.00    +0.000 HD
ATOM     17  H   UNL     1       0.978   2.925  22.767  0.00  0.00    +0.000 HD
ATOM     18  H   UNL     1       1.681   7.064  21.318  0.00  0.00    +0.000 HD
ATOM     19  H   UNL     1       2.584   7.496  19.879  0.00  0.00    +0.000 HD
ENDROOT
BRANCH   1  21
ATOM     20  N   UNL     1       5.467   6.702  15.303  0.00  0.00    +0.000 NA
ATOM     21  C   UNL     1       4.983   6.038  16.126  0.00  0.00    +0.000 C 
ENDBRANCH   1  21
TORSDOF 1
ENDMDL
MODEL 3
REMARK VINA RESULT:      -7.3      1.411      1.450
REMARK  Name = 
REMARK  1 active torsions:
REMARK  status: ('A' for Active; 'I' for Inactive)
REMARK    1  A    between atoms: C_2  and  C_3
REMARK                            x       y       z     vdW  Elec       q    Type
REMARK                         _______ _______ _______ _____ _____    ______ ____
ROOT
ATOM      1  C   UNL     1       4.221   5.882  17.416  0.00  0.00    +0.000 A 
ATOM      2  C   UNL     1       3.481   6.748  18.202  0.00  0.00    +0.000 A 
ATOM      3  F   UNL     1       3.390   8.046  17.876  0.00  0.00    +0.000 F 
ATOM      4  C   UNL     1       2.823   6.280  19.340  0.00  0.00    +0.000 A 
ATOM      5  F   UNL     1       2.118   7.161  20.069  0.00  0.00    +0.000 F 
ATOM      6  C   UNL     1       2.876   4.943  19.734  0.00  0.00    +0.000 A 
ATOM      7  N   UNL     1       2.228   4.531  20.833  0.00  0.00    +0.000 NA
ATOM      8  C   UNL     1       2.307   3.242  21.163  0.00  0.00    +0.000 A 
ATOM      9  N   UNL     1       1.635   2.833  22.275  0.00  0.00    +0.000 N 
ATOM     10  N   UNL     1       2.991   2.329  20.477  0.00  0.00    +0.000 NA
ATOM     11  C   UNL     1       3.641   2.738  19.380  0.00  0.00    +0.000 A 
ATOM     12  N   UNL     1       4.362   1.762  18.729  0.00  0.00    +0.000 N 
ATOM     13  C   UNL     1       3.623   4.065  18.946  0.00  0.00    +0.000 A 
ATOM     14  C   UNL     1       4.288   4.547  17.793  0.00  0.00    +0.000 A 
ATOM     15  F   UNL     1       5.001   3.698  17.033  0.00  0.00    +0.000 F 
ATOM     16  H   UNL     1       1.140   3.523  22.812  0.00  0.00    +0.000 HD
ATOM     17  H   UNL     1       1.712   1.870  22.551  0.00  0.00    +0.000 HD
ATOM     18  H   UNL     1       4.295   0.822  19.093  0.00  0.00    +0.000 HD
ATOM     19  H   UNL     1       4.840   1.939  17.857  0.00  0.00    +0.000 HD
ENDROOT
BRANCH   1  21
ATOM     20  N   UNL     1       5.466   6.703  15.302  0.00  0.00    +0.000 NA
ATOM     21  C   UNL     1       4.899   6.342  16.252  0.00  0.00    +0.000 C 
ENDBRANCH   1  21
TORSDOF 1
ENDMDL
MODEL 4
REMARK VINA RESULT:      -7.1      1.399      1.399
REMARK  Name = 
REMARK  1 active torsions:
REMARK  status: ('A' for Active; 'I' for Inactive)
REMARK    1  A    between atoms: C_2  and  C_3
REMARK                            x       y       z     vdW  Elec       q    Type
REMARK                         _______ _______ _______ _____ _____    ______ ____
ROOT
ATOM      1  C   UNL     1       4.780   5.178  16.656  0.00  0.00    +0.000 A 
ATOM      2  C   UNL     1       4.094   6.213  17.268  0.00  0.00    +0.000 A 
ATOM      3  F   UNL     1       4.333   7.484  16.912  0.00  0.00    +0.000 F 
ATOM      4  C   UNL     1       3.149   5.945  18.258  0.00  0.00    +0.000 A 
ATOM      5  F   UNL     1       2.510   6.985  18.821  0.00  0.00    +0.000 F 
ATOM      6  C   UNL     1       2.852   4.646  18.673  0.00  0.00    +0.000 A 
ATOM      7  N   UNL     1       1.935   4.428  19.627  0.00  0.00    +0.000 NA
ATOM      8  C   UNL     1       1.687   3.169  19.983  0.00  0.00    +0.000 A 
ATOM      9  N   UNL     1       0.745   2.959  20.945  0.00  0.00    +0.000 N 
ATOM     10  N   UNL     1       2.290   2.104  19.460  0.00  0.00    +0.000 NA
ATOM     11  C   UNL     1       3.208   2.318  18.508  0.00  0.00    +0.000 A 
ATOM     12  N   UNL     1       3.827   1.186  18.027  0.00  0.00    +0.000 N 
ATOM     13  C   UNL     1       3.543   3.598  18.061  0.00  0.00    +0.000 A 
ATOM     14  C   UNL     1       4.501   3.878  17.057  0.00  0.00    +0.000 A 
ATOM     15  F   UNL     1       5.159   2.866  16.466  0.00  0.00    +0.000 F 
ATOM     16  H   UNL     1       0.306   3.760  21.363  0.00  0.00    +0.000 HD
ATOM     17  H   UNL     1       0.571   2.015  21.243  0.00  0.00    +0.000 HD
ATOM     18  H   UNL     1       3.502   0.299  18.383  0.00  0.00    +0.000 HD
ATOM     19  H   UNL     1       4.489   1.219  17.265  0.00  0.00    +0.000 HD
ENDROOT
BRANCH   1  21
ATOM     20  N   UNL     1       6.552   5.643  14.830  0.00  0.00    +0.000 NA
ATOM     21  C   UNL     1       5.748   5.433  15.645  0.00  0.00    +0.000 C 
ENDBRANCH   1  21
TORSDOF 1
ENDMDL
MODEL 5
REMARK VINA RESULT:      -7.0      1.702      3.404
REMARK  Name = 
REMARK  1 active torsions:
REMARK  status: ('A' for Active; 'I' for Inactive)
REMARK    1  A    between atoms: C_2  and  C_3
REMARK                            x       y       z     vdW  Elec       q    Type
REMARK                         _______ _______ _______ _____ _____    ______ ____
ROOT
ATOM      1  C   UNL     1       3.220   6.909  18.079  0.00  0.00    +0.000 A 
ATOM      2  C   UNL     1       4.324   6.472  17.369  0.00  0.00    +0.000 A 
ATOM      3  F   UNL     1       4.839   7.231  16.389  0.00  0.00    +0.000 F 
ATOM      4  C   UNL     1       4.911   5.242  17.663  0.00  0.00    +0.000 A 
ATOM      5  F   UNL     1       5.981   4.864  16.944  0.00  0.00    +0.000 F 
ATOM      6  C   UNL     1       4.425   4.407  18.670  0.00  0.00    +0.000 A 
ATOM      7  N   UNL     1       5.018   3.232  18.925  0.00  0.00    +0.000 NA
ATOM      8  C   UNL     1       4.517   2.474  19.900  0.00  0.00    +0.000 A 
ATOM      9  N   UNL     1       5.135   1.288  20.158  0.00  0.00    +0.000 N 
ATOM     10  N   UNL     1       3.460   2.800  20.641  0.00  0.00    +0.000 NA
ATOM     11  C   UNL     1       2.864   3.972  20.387  0.00  0.00    +0.000 A 
ATOM     12  N   UNL     1       1.756   4.244  21.157  0.00  0.00    +0.000 N 
ATOM     13  C   UNL     1       3.310   4.841  19.389  0.00  0.00    +0.000 A 
ATOM     14  C   UNL     1       2.719   6.091  19.084  0.00  0.00    +0.000 A 
ATOM     15  F   UNL     1       1.649   6.509  19.782  0.00  0.00    +0.000 F 
ATOM     16  H   UNL     1       5.917   1.024  19.584  0.00  0.00    +0.000 HD
ATOM     17  H   UNL     1       4.748   0.694  20.870  0.00  0.00    +0.000 HD
ATOM     18  H   UNL     1       1.521   3.575  21.877  0.00  0.00    +0.000 HD
ATOM     19  H   UNL     1       1.264   5.124  21.098  0.00  0.00    +0.000 HD
ENDROOT
BRANCH   1  21
ATOM     20  N   UNL     1       2.090   9.178  17.560  0.00  0.00    +0.000 NA
ATOM     21  C   UNL     1       2.607   8.162  17.792  0.00  0.00    +0.000 C 
ENDBRANCH   1  21
TORSDOF 1
ENDMDL
MODEL 6
REMARK VINA RESULT:      -6.9      2.088      3.675
REMARK  Name = 
REMARK  1 active torsions:
REMARK  status: ('A' for Active; 'I' for Inactive)
REMARK    1  A    between atoms: C_2  and  C_3
REMARK                            x       y       z     vdW  Elec       q    Type
REMARK                         _______ _______ _______ _____ _____    ______ ____
ROOT
ATOM      1  C   UNL     1       2.366   6.766  19.233  0.00  0.00    +0.000 A 
ATOM      2  C   UNL     1       3.315   6.674  18.230  0.00  0.00    +0.000 A 
ATOM      3  F   UNL     1       3.765   7.782  17.623  0.00  0.00    +0.000 F 
ATOM      4  C   UNL     1       3.815   5.431  17.843  0.00  0.00    +0.000 A 
ATOM      5  F   UNL     1       4.735   5.396  16.865  0.00  0.00    +0.000 F 
ATOM      6  C   UNL     1       3.390   4.240  18.435  0.00  0.00    +0.000 A 
ATOM      7  N   UNL     1       3.895   3.064  18.036  0.00  0.00    +0.000 NA
ATOM      8  C   UNL     1       3.460   1.957  18.638  0.00  0.00    +0.000 A 
ATOM      9  N   UNL     1       3.989   0.769  18.232  0.00  0.00    +0.000 N 
ATOM     10  N   UNL     1       2.550   1.936  19.609  0.00  0.00    +0.000 NA
ATOM     11  C   UNL     1       2.042   3.109  20.008  0.00  0.00    +0.000 A 
ATOM     12  N   UNL     1       1.080   3.027  20.989  0.00  0.00    +0.000 N 
ATOM     13  C   UNL     1       2.431   4.326  19.445  0.00  0.00    +0.000 A 
ATOM     14  C   UNL     1       1.929   5.592  19.833  0.00  0.00    +0.000 A 
ATOM     15  F   UNL     1       1.009   5.671  20.811  0.00  0.00    +0.000 F 
ATOM     16  H   UNL     1       4.655   0.777  17.480  0.00  0.00    +0.000 HD
ATOM     17  H   UNL     1       3.645  -0.075  18.657  0.00  0.00    +0.000 HD
ATOM     18  H   UNL     1       0.881   2.109  21.362  0.00  0.00    +0.000 HD
ATOM     19  H   UNL     1       0.673   3.848  21.412  0.00  0.00    +0.000 HD
ENDROOT
BRANCH   1  21
ATOM     20  N   UNL     1       1.414   9.049  19.991  0.00  0.00    +0.000 NA
ATOM     21  C   UNL     1       1.845   8.026  19.641  0.00  0.00    +0.000 C 
ENDBRANCH   1  21
TORSDOF 1
ENDMDL
MODEL 7
REMARK VINA RESULT:      -6.8      2.619      4.550
REMARK  Name = 
REMARK  1 active torsions:
REMARK  status: ('A' for Active; 'I' for Inactive)
REMARK    1  A    between atoms: C_2  and  C_3
REMARK                            x       y       z     vdW  Elec       q    Type
REMARK                         _______ _______ _______ _____ _____    ______ ____
ROOT
ATOM      1  C   UNL     1       4.072   4.349  19.101  0.00  0.00    +0.000 A 
ATOM      2  C   UNL     1       4.529   4.749  17.858  0.00  0.00    +0.000 A 
ATOM      3  F   UNL     1       5.336   3.947  17.146  0.00  0.00    +0.000 F 
ATOM      4  C   UNL     1       4.156   5.986  17.333  0.00  0.00    +0.000 A 
ATOM      5  F   UNL     1       4.628   6.327  16.122  0.00  0.00    +0.000 F 
ATOM      6  C   UNL     1       3.320   6.865  18.021  0.00  0.00    +0.000 A 
ATOM      7  N   UNL     1       2.981   8.046  17.483  0.00  0.00    +0.000 NA
ATOM      8  C   UNL     1       2.176   8.846  18.180  0.00  0.00    +0.000 A 
ATOM      9  N   UNL     1       1.830  10.038  17.617  0.00  0.00    +0.000 N 
ATOM     10  N   UNL     1       1.683   8.558  19.382  0.00  0.00    +0.000 NA
ATOM     11  C   UNL     1       2.020   7.381  19.924  0.00  0.00    +0.000 A 
ATOM     12  N   UNL     1       1.513   7.149  21.182  0.00  0.00    +0.000 N 
ATOM     13  C   UNL     1       2.856   6.468  19.277  0.00  0.00    +0.000 A 
ATOM     14  C   UNL     1       3.240   5.211  19.803  0.00  0.00    +0.000 A 
ATOM     15  F   UNL     1       2.787   4.830  21.010  0.00  0.00    +0.000 F 
ATOM     16  H   UNL     1       2.222  10.273  16.722  0.00  0.00    +0.000 HD
ATOM     17  H   UNL     1       1.248  10.663  18.146  0.00  0.00    +0.000 HD
ATOM     18  H   UNL     1       0.891   7.849  21.563  0.00  0.00    +0.000 HD
ATOM     19  H   UNL     1       1.648   6.271  21.662  0.00  0.00    +0.000 HD
ENDROOT
BRANCH   1  21
ATOM     20  N   UNL     1       4.759   2.069  20.112  0.00  0.00    +0.000 NA
ATOM     21  C   UNL     1       4.442   3.090  19.652  0.00  0.00    +0.000 C 
ENDBRANCH   1  21
TORSDOF 1
ENDMDL
MODEL 8
REMARK VINA RESULT:      -6.8      2.191      4.676
REMARK  Name = 
REMARK  1 active torsions:
REMARK  status: ('A' for Active; 'I' for Inactive)
REMARK    1  A    between atoms: C_2  and  C_3
REMARK                            x       y       z     vdW  Elec       q    Type
REMARK                         _______ _______ _______ _____ _____    ______ ____
ROOT
ATOM      1  C   UNL     1       2.451   4.156  20.253  0.00  0.00    +0.000 A 
ATOM      2  C   UNL     1       2.260   5.526  20.280  0.00  0.00    +0.000 A 
ATOM      3  F   UNL     1       1.543   6.089  21.264  0.00  0.00    +0.000 F 
ATOM      4  C   UNL     1       2.811   6.335  19.286  0.00  0.00    +0.000 A 
ATOM      5  F   UNL     1       2.597   7.660  19.358  0.00  0.00    +0.000 F 
ATOM      6  C   UNL     1       3.568   5.814  18.236  0.00  0.00    +0.000 A 
ATOM      7  N   UNL     1       4.083   6.624  17.300  0.00  0.00    +0.000 NA
ATOM      8  C   UNL     1       4.802   6.076  16.321  0.00  0.00    +0.000 A 
ATOM      9  N   UNL     1       5.330   6.910  15.383  0.00  0.00    +0.000 N 
ATOM     10  N   UNL     1       5.043   4.772  16.202  0.00  0.00    +0.000 NA
ATOM     11  C   UNL     1       4.528   3.960  17.134  0.00  0.00    +0.000 A 
ATOM     12  N   UNL     1       4.777   2.619  16.944  0.00  0.00    +0.000 N 
ATOM     13  C   UNL     1       3.762   4.432  18.202  0.00  0.00    +0.000 A 
ATOM     14  C   UNL     1       3.199   3.617  19.214  0.00  0.00    +0.000 A 
ATOM     15  F   UNL     1       3.393   2.287  19.181  0.00  0.00    +0.000 F 
ATOM     16  H   UNL     1       5.129   7.892  15.452  0.00  0.00    +0.000 HD
ATOM     17  H   UNL     1       5.848   6.505  14.623  0.00  0.00    +0.000 HD
ATOM     18  H   UNL     1       5.366   2.368  16.163  0.00  0.00    +0.000 HD
ATOM     19  H   UNL     1       4.493   1.920  17.615  0.00  0.00    +0.000 HD
ENDROOT
BRANCH   1  21
ATOM     20  N   UNL     1       1.437   2.615  22.067  0.00  0.00    +0.000 NA
ATOM     21  C   UNL     1       1.895   3.315  21.258  0.00  0.00    +0.000 C 
ENDBRANCH   1  21
TORSDOF 1
ENDMDL
MODEL 9
REMARK VINA RESULT:      -6.7      2.317      3.694
REMARK  Name = 
REMARK  1 active torsions:
REMARK  status: ('A' for Active; 'I' for Inactive)
REMARK    1  A    between atoms: C_2  and  C_3
REMARK                            x       y       z     vdW  Elec       q    Type
REMARK                         _______ _______ _______ _____ _____    ______ ____
ROOT
ATOM      1  C   UNL     1       2.607   7.676  18.476  0.00  0.00    +0.000 A 
ATOM      2  C   UNL     1       2.087   7.188  19.662  0.00  0.00    +0.000 A 
ATOM      3  F   UNL     1       1.221   7.925  20.373  0.00  0.00    +0.000 F 
ATOM      4  C   UNL     1       2.455   5.926  20.127  0.00  0.00    +0.000 A 
ATOM      5  F   UNL     1       1.921   5.498  21.284  0.00  0.00    +0.000 F 
ATOM      6  C   UNL     1       3.349   5.108  19.435  0.00  0.00    +0.000 A 
ATOM      7  N   UNL     1       3.678   3.899  19.914  0.00  0.00    +0.000 NA
ATOM      8  C   UNL     1       4.533   3.157  19.211  0.00  0.00    +0.000 A 
ATOM      9  N   UNL     1       4.849   1.926  19.702  0.00  0.00    +0.000 N 
ATOM     10  N   UNL     1       5.090   3.532  18.063  0.00  0.00    +0.000 NA
ATOM     11  C   UNL     1       4.766   4.739  17.583  0.00  0.00    +0.000 A 
ATOM     12  N   UNL     1       5.398   5.093  16.412  0.00  0.00    +0.000 N 
ATOM     13  C   UNL     1       3.880   5.596  18.239  0.00  0.00    +0.000 A 
ATOM     14  C   UNL     1       3.501   6.878  17.773  0.00  0.00    +0.000 A 
ATOM     15  F   UNL     1       4.009   7.342  16.618  0.00  0.00    +0.000 F 
ATOM     16  H   UNL     1       4.453   1.648  20.583  0.00  0.00    +0.000 HD
ATOM     17  H   UNL     1       5.517   1.369  19.197  0.00  0.00    +0.000 HD
ATOM     18  H   UNL     1       6.000   4.401  15.988  0.00  0.00    +0.000 HD
ATOM     19  H   UNL     1       5.185   5.952  15.925  0.00  0.00    +0.000 HD
ENDROOT
BRANCH   1  21
ATOM     20  N   UNL     1       1.927  10.008  17.587  0.00  0.00    +0.000 NA
ATOM     21  C   UNL     1       2.243   8.961  17.986  0.00  0.00    +0.000 C 
ENDBRANCH   1  21
TORSDOF 1
ENDMDL
