MODEL 1
REMARK VINA RESULT:      -7.9      0.000      0.000
REMARK  Name = 
REMARK  5 active torsions:
REMARK  status: ('A' for Active; 'I' for Inactive)
REMARK    1  A    between atoms: C_1  and  C_2
REMARK    2  A    between atoms: C_8  and  C_9
REMARK    3  A    between atoms: C_17  and  C_18
REMARK    4  A    between atoms: C_18  and  N_19
REMARK    5  A    between atoms: N_22  and  C_23
REMARK                            x       y       z     vdW  Elec       q    Type
REMARK                         _______ _______ _______ _____ _____    ______ ____
ROOT
ATOM      1  C   UNL     1       3.609   4.069  18.931  0.00  0.00    +0.000 A 
ATOM      2  C   UNL     1       3.201   2.726  18.811  0.00  0.00    +0.000 A 
ATOM      3  C   UNL     1       1.951   2.306  19.275  0.00  0.00    +0.000 A 
ATOM      4  F   UNL     1       1.597   1.021  19.138  0.00  0.00    +0.000 F 
ATOM      5  C   UNL     1       1.068   3.191  19.881  0.00  0.00    +0.000 A 
ATOM      6  C   UNL     1       1.473   4.506  20.013  0.00  0.00    +0.000 A 
ATOM      7  C   UNL     1       2.707   4.945  19.535  0.00  0.00    +0.000 A 
ATOM      8  O   UNL     1       2.862   6.308  19.712  0.00  0.00    +0.000 OA
ATOM      9  C   UNL     1       1.881   6.621  20.743  0.00  0.00    +0.000 C 
ATOM     10  C   UNL     1       0.714   5.644  20.584  0.00  0.00    +0.000 C 
ENDROOT
BRANCH   1  18
ATOM     11  C   UNL     1       5.236   3.827  13.352  0.00  0.00    +0.000 C 
ATOM     12  C   UNL     1       5.775   4.239  14.692  0.00  0.00    +0.000 A 
ATOM     13  C   UNL     1       7.093   4.680  14.838  0.00  0.00    +0.000 A 
ATOM     14  C   UNL     1       7.605   5.039  16.089  0.00  0.00    +0.000 A 
ATOM     15  C   UNL     1       6.756   4.912  17.198  0.00  0.00    +0.000 A 
ATOM     16  C   UNL     1       5.443   4.457  17.098  0.00  0.00    +0.000 A 
ATOM     17  C   UNL     1       4.942   4.145  15.818  0.00  0.00    +0.000 A 
ATOM     18  C   UNL     1       4.937   4.448  18.439  0.00  0.00    +0.000 A 
ATOM     19  N   UNL     1       5.864   4.923  19.294  0.00  0.00    +0.000 NA
ATOM     20  N   UNL     1       6.943   5.163  18.531  0.00  0.00    +0.000 N 
ATOM     21  C   UNL     1       8.160   5.634  19.148  0.00  0.00    +0.000 C 
ENDBRANCH   1  18
BRANCH   9  22
ATOM     22  C   UNL     1       1.462   8.102  20.729  0.00  0.00    +0.000 C 
BRANCH  22  23
ATOM     23  N   UNL     1       1.565   8.776  22.024  0.00  0.00    +0.000 NA
ATOM     24  H   UNL     1       0.626   8.898  22.407  0.00  0.00    +0.000 HD
ATOM     25  H   UNL     1       1.943   9.714  21.889  0.00  0.00    +0.000 HD
ENDBRANCH  22  23
ENDBRANCH   9  22
TORSDOF 3
ENDMDL
MODEL 2
REMARK VINA RESULT:      -7.7      2.890      6.977
REMARK  Name = 
REMARK  5 active torsions:
REMARK  status: ('A' for Active; 'I' for Inactive)
REMARK    1  A    between atoms: C_1  and  C_2
REMARK    2  A    between atoms: C_8  and  C_9
REMARK    3  A    between atoms: C_17  and  C_18
REMARK    4  A    between atoms: C_18  and  N_19
REMARK    5  A    between atoms: N_22  and  C_23
REMARK                            x       y       z     vdW  Elec       q    Type
REMARK                         _______ _______ _______ _____ _____    ______ ____
ROOT
ATOM      1  C   UNL     1       5.412   4.941  17.748  0.00  0.00    +0.000 A 
ATOM      2  C   UNL     1       6.271   5.719  18.549  0.00  0.00    +0.000 A 
ATOM      3  C   UNL     1       7.430   6.296  18.019  0.00  0.00    +0.000 A 
ATOM      4  F   UNL     1       8.218   7.034  18.811  0.00  0.00    +0.000 F 
ATOM      5  C   UNL     1       7.784   6.116  16.688  0.00  0.00    +0.000 A 
ATOM      6  C   UNL     1       6.951   5.340  15.904  0.00  0.00    +0.000 A 
ATOM      7  C   UNL     1       5.781   4.778  16.413  0.00  0.00    +0.000 A 
ATOM      8  O   UNL     1       5.074   4.109  15.431  0.00  0.00    +0.000 OA
ATOM      9  C   UNL     1       6.079   3.873  14.402  0.00  0.00    +0.000 C 
ATOM     10  C   UNL     1       7.083   5.026  14.462  0.00  0.00    +0.000 C 
ENDROOT
BRANCH   1  18
ATOM     11  C   UNL     1       1.501   7.920  20.856  0.00  0.00    +0.000 C 
ATOM     12  C   UNL     1       1.750   6.530  20.347  0.00  0.00    +0.000 A 
ATOM     13  C   UNL     1       0.895   5.475  20.676  0.00  0.00    +0.000 A 
ATOM     14  C   UNL     1       1.139   4.173  20.224  0.00  0.00    +0.000 A 
ATOM     15  C   UNL     1       2.291   3.959  19.454  0.00  0.00    +0.000 A 
ATOM     16  C   UNL     1       3.179   4.979  19.121  0.00  0.00    +0.000 A 
ATOM     17  C   UNL     1       2.883   6.288  19.553  0.00  0.00    +0.000 A 
ATOM     18  C   UNL     1       4.220   4.350  18.363  0.00  0.00    +0.000 A 
ATOM     19  N   UNL     1       3.952   3.040  18.194  0.00  0.00    +0.000 NA
ATOM     20  N   UNL     1       2.815   2.833  18.878  0.00  0.00    +0.000 N 
ATOM     21  C   UNL     1       2.266   1.501  18.957  0.00  0.00    +0.000 C 
ENDBRANCH   1  18
BRANCH   9  22
ATOM     22  C   UNL     1       5.460   3.655  13.010  0.00  0.00    +0.000 C 
BRANCH  22  23
ATOM     23  N   UNL     1       6.167   2.684  12.174  0.00  0.00    +0.000 NA
ATOM     24  H   UNL     1       5.934   1.743  12.494  0.00  0.00    +0.000 HD
ATOM     25  H   UNL     1       7.173   2.791  12.307  0.00  0.00    +0.000 HD
ENDBRANCH  22  23
ENDBRANCH   9  22
TORSDOF 3
ENDMDL
MODEL 3
REMARK VINA RESULT:      -7.5      3.696      6.242
REMARK  Name = 
REMARK  5 active torsions:
REMARK  status: ('A' for Active; 'I' for Inactive)
REMARK    1  A    between atoms: C_1  and  C_2
REMARK    2  A    between atoms: C_8  and  C_9
REMARK    3  A    between atoms: C_17  and  C_18
REMARK    4  A    between atoms: C_18  and  N_19
REMARK    5  A    between atoms: N_22  and  C_23
REMARK                            x       y       z     vdW  Elec       q    Type
REMARK                         _______ _______ _______ _____ _____    ______ ____
ROOT
ATOM      1  C   UNL     1       1.097   8.660  20.512  0.00  0.00    +0.000 A 
ATOM      2  C   UNL     1       1.199   8.627  21.917  0.00  0.00    +0.000 A 
ATOM      3  C   UNL     1       0.451   9.497  22.717  0.00  0.00    +0.000 A 
ATOM      4  F   UNL     1       0.572   9.431  24.050  0.00  0.00    +0.000 F 
ATOM      5  C   UNL     1      -0.411  10.433  22.160  0.00  0.00    +0.000 A 
ATOM      6  C   UNL     1      -0.501  10.477  20.781  0.00  0.00    +0.000 A 
ATOM      7  C   UNL     1       0.220   9.601  19.971  0.00  0.00    +0.000 A 
ATOM      8  O   UNL     1      -0.085   9.781  18.635  0.00  0.00    +0.000 OA
ATOM      9  C   UNL     1      -0.668  11.117  18.606  0.00  0.00    +0.000 C 
ATOM     10  C   UNL     1      -1.363  11.348  19.949  0.00  0.00    +0.000 C 
ENDROOT
BRANCH   1  18
ATOM     11  C   UNL     1       1.564   2.963  21.588  0.00  0.00    +0.000 C 
ATOM     12  C   UNL     1       2.042   3.992  20.604  0.00  0.00    +0.000 A 
ATOM     13  C   UNL     1       2.936   3.659  19.584  0.00  0.00    +0.000 A 
ATOM     14  C   UNL     1       3.403   4.621  18.682  0.00  0.00    +0.000 A 
ATOM     15  C   UNL     1       2.963   5.941  18.857  0.00  0.00    +0.000 A 
ATOM     16  C   UNL     1       2.089   6.319  19.874  0.00  0.00    +0.000 A 
ATOM     17  C   UNL     1       1.601   5.319  20.739  0.00  0.00    +0.000 A 
ATOM     18  C   UNL     1       1.916   7.733  19.725  0.00  0.00    +0.000 A 
ATOM     19  N   UNL     1       2.596   8.180  18.650  0.00  0.00    +0.000 NA
ATOM     20  N   UNL     1       3.231   7.097  18.173  0.00  0.00    +0.000 N 
ATOM     21  C   UNL     1       4.111   7.231  17.038  0.00  0.00    +0.000 C 
ENDBRANCH   1  18
BRANCH   9  22
ATOM     22  C   UNL     1      -1.577  11.338  17.384  0.00  0.00    +0.000 C 
BRANCH  22  23
ATOM     23  N   UNL     1      -2.846  12.004  17.683  0.00  0.00    +0.000 NA
ATOM     24  H   UNL     1      -2.868  12.902  17.196  0.00  0.00    +0.000 HD
ATOM     25  H   UNL     1      -2.892  12.217  18.679  0.00  0.00    +0.000 HD
ENDBRANCH  22  23
ENDBRANCH   9  22
TORSDOF 3
ENDMDL
MODEL 4
REMARK VINA RESULT:      -7.2      2.238      6.723
REMARK  Name = 
REMARK  5 active torsions:
REMARK  status: ('A' for Active; 'I' for Inactive)
REMARK    1  A    between atoms: C_1  and  C_2
REMARK    2  A    between atoms: C_8  and  C_9
REMARK    3  A    between atoms: C_17  and  C_18
REMARK    4  A    between atoms: C_18  and  N_19
REMARK    5  A    between atoms: N_22  and  C_23
REMARK                            x       y       z     vdW  Elec       q    Type
REMARK                         _______ _______ _______ _____ _____    ______ ____
ROOT
ATOM      1  C   UNL     1       2.393   5.982  19.858  0.00  0.00    +0.000 A 
ATOM      2  C   UNL     1       1.460   5.150  20.507  0.00  0.00    +0.000 A 
ATOM      3  C   UNL     1       1.740   3.802  20.753  0.00  0.00    +0.000 A 
ATOM      4  F   UNL     1       0.829   3.045  21.378  0.00  0.00    +0.000 F 
ATOM      5  C   UNL     1       2.942   3.229  20.358  0.00  0.00    +0.000 A 
ATOM      6  C   UNL     1       3.853   4.039  19.707  0.00  0.00    +0.000 A 
ATOM      7  C   UNL     1       3.598   5.390  19.476  0.00  0.00    +0.000 A 
ATOM      8  O   UNL     1       4.678   6.013  18.879  0.00  0.00    +0.000 OA
ATOM      9  C   UNL     1       5.434   4.901  18.318  0.00  0.00    +0.000 C 
ATOM     10  C   UNL     1       5.207   3.685  19.220  0.00  0.00    +0.000 C 
ENDROOT
BRANCH   1  18
ATOM     11  C   UNL     1      -0.254   9.419  23.731  0.00  0.00    +0.000 C 
ATOM     12  C   UNL     1       0.320   9.476  22.345  0.00  0.00    +0.000 A 
ATOM     13  C   UNL     1       0.229  10.634  21.569  0.00  0.00    +0.000 A 
ATOM     14  C   UNL     1       0.740  10.680  20.268  0.00  0.00    +0.000 A 
ATOM     15  C   UNL     1       1.322   9.511  19.757  0.00  0.00    +0.000 A 
ATOM     16  C   UNL     1       1.415   8.330  20.490  0.00  0.00    +0.000 A 
ATOM     17  C   UNL     1       0.931   8.327  21.814  0.00  0.00    +0.000 A 
ATOM     18  C   UNL     1       2.038   7.383  19.614  0.00  0.00    +0.000 A 
ATOM     19  N   UNL     1       2.358   7.966  18.442  0.00  0.00    +0.000 NA
ATOM     20  N   UNL     1       1.894   9.222  18.547  0.00  0.00    +0.000 N 
ATOM     21  C   UNL     1       2.019  10.123  17.427  0.00  0.00    +0.000 C 
ENDBRANCH   1  18
BRANCH   9  22
ATOM     22  C   UNL     1       6.917   5.246  18.096  0.00  0.00    +0.000 C 
BRANCH  22  23
ATOM     23  N   UNL     1       7.767   4.099  17.771  0.00  0.00    +0.000 NA
ATOM     24  H   UNL     1       8.625   4.161  18.320  0.00  0.00    +0.000 HD
ATOM     25  H   UNL     1       8.049   4.153  16.792  0.00  0.00    +0.000 HD
ENDBRANCH  22  23
ENDBRANCH   9  22
TORSDOF 3
ENDMDL
MODEL 5
REMARK VINA RESULT:      -6.8      2.539      6.177
REMARK  Name = 
REMARK  5 active torsions:
REMARK  status: ('A' for Active; 'I' for Inactive)
REMARK    1  A    between atoms: C_1  and  C_2
REMARK    2  A    between atoms: C_8  and  C_9
REMARK    3  A    between atoms: C_17  and  C_18
REMARK    4  A    between atoms: C_18  and  N_19
REMARK    5  A    between atoms: N_22  and  C_23
REMARK                            x       y       z     vdW  Elec       q    Type
REMARK                         _______ _______ _______ _____ _____    ______ ____
ROOT
ATOM      1  C   UNL     1       4.588   4.277  16.738  0.00  0.00    +0.000 A 
ATOM      2  C   UNL     1       4.413   3.953  15.378  0.00  0.00    +0.000 A 
ATOM      3  C   UNL     1       5.370   4.305  14.422  0.00  0.00    +0.000 A 
ATOM      4  F   UNL     1       5.170   3.974  13.139  0.00  0.00    +0.000 F 
ATOM      5  C   UNL     1       6.523   4.996  14.771  0.00  0.00    +0.000 A 
ATOM      6  C   UNL     1       6.690   5.328  16.102  0.00  0.00    +0.000 A 
ATOM      7  C   UNL     1       5.755   4.964  17.071  0.00  0.00    +0.000 A 
ATOM      8  O   UNL     1       6.168   5.338  18.337  0.00  0.00    +0.000 OA
ATOM      9  C   UNL     1       7.167   6.365  18.070  0.00  0.00    +0.000 C 
ATOM     10  C   UNL     1       7.834   6.025  16.735  0.00  0.00    +0.000 C 
ENDROOT
BRANCH   1  18
ATOM     11  C   UNL     1       1.944   7.974  20.366  0.00  0.00    +0.000 C 
ATOM     12  C   UNL     1       1.910   6.525  19.972  0.00  0.00    +0.000 A 
ATOM     13  C   UNL     1       1.069   5.618  20.621  0.00  0.00    +0.000 A 
ATOM     14  C   UNL     1       1.055   4.263  20.273  0.00  0.00    +0.000 A 
ATOM     15  C   UNL     1       1.937   3.842  19.268  0.00  0.00    +0.000 A 
ATOM     16  C   UNL     1       2.806   4.711  18.611  0.00  0.00    +0.000 A 
ATOM     17  C   UNL     1       2.766   6.077  18.953  0.00  0.00    +0.000 A 
ATOM     18  C   UNL     1       3.544   3.894  17.693  0.00  0.00    +0.000 A 
ATOM     19  N   UNL     1       3.111   2.619  17.746  0.00  0.00    +0.000 NA
ATOM     20  N   UNL     1       2.177   2.614  18.711  0.00  0.00    +0.000 N 
ATOM     21  C   UNL     1       1.536   1.373  19.074  0.00  0.00    +0.000 C 
ENDBRANCH   1  18
BRANCH   9  22
ATOM     22  C   UNL     1       8.156   6.544  19.235  0.00  0.00    +0.000 C 
BRANCH  22  23
ATOM     23  N   UNL     1       8.066   5.517  20.274  0.00  0.00    +0.000 NA
ATOM     24  H   UNL     1       8.918   5.544  20.836  0.00  0.00    +0.000 HD
ATOM     25  H   UNL     1       8.040   4.595  19.838  0.00  0.00    +0.000 HD
ENDBRANCH  22  23
ENDBRANCH   9  22
TORSDOF 3
ENDMDL
MODEL 6
REMARK VINA RESULT:      -6.8      3.629      7.285
REMARK  Name = 
REMARK  5 active torsions:
REMARK  status: ('A' for Active; 'I' for Inactive)
REMARK    1  A    between atoms: C_1  and  C_2
REMARK    2  A    between atoms: C_8  and  C_9
REMARK    3  A    between atoms: C_17  and  C_18
REMARK    4  A    between atoms: C_18  and  N_19
REMARK    5  A    between atoms: N_22  and  C_23
REMARK                            x       y       z     vdW  Elec       q    Type
REMARK                         _______ _______ _______ _____ _____    ______ ____
ROOT
ATOM      1  C   UNL     1       2.053   7.617  19.466  0.00  0.00    +0.000 A 
ATOM      2  C   UNL     1       2.670   8.117  18.303  0.00  0.00    +0.000 A 
ATOM      3  C   UNL     1       3.465   7.296  17.496  0.00  0.00    +0.000 A 
ATOM      4  F   UNL     1       4.031   7.808  16.395  0.00  0.00    +0.000 F 
ATOM      5  C   UNL     1       3.685   5.963  17.814  0.00  0.00    +0.000 A 
ATOM      6  C   UNL     1       3.092   5.474  18.963  0.00  0.00    +0.000 A 
ATOM      7  C   UNL     1       2.279   6.273  19.765  0.00  0.00    +0.000 A 
ATOM      8  O   UNL     1       1.739   5.552  20.814  0.00  0.00    +0.000 OA
ATOM      9  C   UNL     1       2.619   4.394  20.908  0.00  0.00    +0.000 C 
ATOM     10  C   UNL     1       3.140   4.094  19.500  0.00  0.00    +0.000 C 
ENDROOT
BRANCH   1  18
ATOM     11  C   UNL     1      -1.501  11.679  17.300  0.00  0.00    +0.000 C 
ATOM     12  C   UNL     1      -1.068  11.116  18.622  0.00  0.00    +0.000 A 
ATOM     13  C   UNL     1      -1.525  11.657  19.826  0.00  0.00    +0.000 A 
ATOM     14  C   UNL     1      -1.102  11.151  21.059  0.00  0.00    +0.000 A 
ATOM     15  C   UNL     1      -0.178  10.097  21.045  0.00  0.00    +0.000 A 
ATOM     16  C   UNL     1       0.319   9.542  19.867  0.00  0.00    +0.000 A 
ATOM     17  C   UNL     1      -0.159  10.044  18.640  0.00  0.00    +0.000 A 
ATOM     18  C   UNL     1       1.242   8.527  20.281  0.00  0.00    +0.000 A 
ATOM     19  N   UNL     1       1.264   8.431  21.625  0.00  0.00    +0.000 NA
ATOM     20  N   UNL     1       0.432   9.395  22.051  0.00  0.00    +0.000 N 
ATOM     21  C   UNL     1       0.261   9.613  23.467  0.00  0.00    +0.000 C 
ENDBRANCH   1  18
BRANCH   9  22
ATOM     22  C   UNL     1       1.945   3.193  21.594  0.00  0.00    +0.000 C 
BRANCH  22  23
ATOM     23  N   UNL     1       0.762   2.681  20.901  0.00  0.00    +0.000 NA
ATOM     24  H   UNL     1       1.010   1.810  20.427  0.00  0.00    +0.000 HD
ATOM     25  H   UNL     1       0.486   3.336  20.170  0.00  0.00    +0.000 HD
ENDBRANCH  22  23
ENDBRANCH   9  22
TORSDOF 3
ENDMDL
MODEL 7
REMARK VINA RESULT:      -6.6      3.167      5.042
REMARK  Name = 
REMARK  5 active torsions:
REMARK  status: ('A' for Active; 'I' for Inactive)
REMARK    1  A    between atoms: C_1  and  C_2
REMARK    2  A    between atoms: C_8  and  C_9
REMARK    3  A    between atoms: C_17  and  C_18
REMARK    4  A    between atoms: C_18  and  N_19
REMARK    5  A    between atoms: N_22  and  C_23
REMARK                            x       y       z     vdW  Elec       q    Type
REMARK                         _______ _______ _______ _____ _____    ______ ____
ROOT
ATOM      1  C   UNL     1       1.985   8.201  19.268  0.00  0.00    +0.000 A 
ATOM      2  C   UNL     1       2.416   8.960  18.162  0.00  0.00    +0.000 A 
ATOM      3  C   UNL     1       2.047  10.302  18.020  0.00  0.00    +0.000 A 
ATOM      4  F   UNL     1       2.481  10.993  16.957  0.00  0.00    +0.000 F 
ATOM      5  C   UNL     1       1.237  10.934  18.953  0.00  0.00    +0.000 A 
ATOM      6  C   UNL     1       0.801  10.186  20.031  0.00  0.00    +0.000 A 
ATOM      7  C   UNL     1       1.179   8.854  20.199  0.00  0.00    +0.000 A 
ATOM      8  O   UNL     1       0.685   8.335  21.382  0.00  0.00    +0.000 OA
ATOM      9  C   UNL     1      -0.404   9.244  21.714  0.00  0.00    +0.000 C 
ATOM     10  C   UNL     1      -0.034  10.627  21.173  0.00  0.00    +0.000 C 
ENDROOT
BRANCH   1  18
ATOM     11  C   UNL     1       5.506   5.552  15.471  0.00  0.00    +0.000 C 
ATOM     12  C   UNL     1       4.762   5.267  16.743  0.00  0.00    +0.000 A 
ATOM     13  C   UNL     1       4.762   3.990  17.312  0.00  0.00    +0.000 A 
ATOM     14  C   UNL     1       4.048   3.716  18.483  0.00  0.00    +0.000 A 
ATOM     15  C   UNL     1       3.309   4.763  19.052  0.00  0.00    +0.000 A 
ATOM     16  C   UNL     1       3.266   6.043  18.506  0.00  0.00    +0.000 A 
ATOM     17  C   UNL     1       4.030   6.301  17.350  0.00  0.00    +0.000 A 
ATOM     18  C   UNL     1       2.391   6.794  19.357  0.00  0.00    +0.000 A 
ATOM     19  N   UNL     1       1.973   6.035  20.389  0.00  0.00    +0.000 NA
ATOM     20  N   UNL     1       2.512   4.826  20.164  0.00  0.00    +0.000 N 
ATOM     21  C   UNL     1       2.215   3.737  21.063  0.00  0.00    +0.000 C 
ENDBRANCH   1  18
BRANCH   9  22
ATOM     22  C   UNL     1      -0.748   9.232  23.213  0.00  0.00    +0.000 C 
BRANCH  22  23
ATOM     23  N   UNL     1       0.379   9.525  24.100  0.00  0.00    +0.000 NA
ATOM     24  H   UNL     1       0.442  10.536  24.227  0.00  0.00    +0.000 HD
ATOM     25  H   UNL     1       1.248   9.238  23.650  0.00  0.00    +0.000 HD
ENDBRANCH  22  23
ENDBRANCH   9  22
TORSDOF 3
ENDMDL
MODEL 8
REMARK VINA RESULT:      -6.6      3.518      6.010
REMARK  Name = 
REMARK  5 active torsions:
REMARK  status: ('A' for Active; 'I' for Inactive)
REMARK    1  A    between atoms: C_1  and  C_2
REMARK    2  A    between atoms: C_8  and  C_9
REMARK    3  A    between atoms: C_17  and  C_18
REMARK    4  A    between atoms: C_18  and  N_19
REMARK    5  A    between atoms: N_22  and  C_23
REMARK                            x       y       z     vdW  Elec       q    Type
REMARK                         _______ _______ _______ _____ _____    ______ ____
ROOT
ATOM      1  C   UNL     1       1.324   8.560  20.098  0.00  0.00    +0.000 A 
ATOM      2  C   UNL     1       0.541   8.142  21.192  0.00  0.00    +0.000 A 
ATOM      3  C   UNL     1      -0.271   9.044  21.887  0.00  0.00    +0.000 A 
ATOM      4  F   UNL     1      -1.005   8.606  22.918  0.00  0.00    +0.000 F 
ATOM      5  C   UNL     1      -0.329  10.386  21.534  0.00  0.00    +0.000 A 
ATOM      6  C   UNL     1       0.451  10.801  20.471  0.00  0.00    +0.000 A 
ATOM      7  C   UNL     1       1.247   9.909  19.754  0.00  0.00    +0.000 A 
ATOM      8  O   UNL     1       1.876  10.535  18.693  0.00  0.00    +0.000 OA
ATOM      9  C   UNL     1       1.815  11.945  19.057  0.00  0.00    +0.000 C 
ATOM     10  C   UNL     1       0.542  12.156  19.879  0.00  0.00    +0.000 C 
ENDROOT
BRANCH   1  18
ATOM     11  C   UNL     1       1.705   2.959  21.621  0.00  0.00    +0.000 C 
ATOM     12  C   UNL     1       2.230   3.908  20.582  0.00  0.00    +0.000 A 
ATOM     13  C   UNL     1       3.161   3.494  19.627  0.00  0.00    +0.000 A 
ATOM     14  C   UNL     1       3.670   4.383  18.675  0.00  0.00    +0.000 A 
ATOM     15  C   UNL     1       3.235   5.714  18.731  0.00  0.00    +0.000 A 
ATOM     16  C   UNL     1       2.323   6.172  19.680  0.00  0.00    +0.000 A 
ATOM     17  C   UNL     1       1.794   5.244  20.599  0.00  0.00    +0.000 A 
ATOM     18  C   UNL     1       2.167   7.572  19.417  0.00  0.00    +0.000 A 
ATOM     19  N   UNL     1       2.893   7.932  18.340  0.00  0.00    +0.000 NA
ATOM     20  N   UNL     1       3.538   6.813  17.972  0.00  0.00    +0.000 N 
ATOM     21  C   UNL     1       4.463   6.856  16.866  0.00  0.00    +0.000 C 
ENDBRANCH   1  18
BRANCH   9  22
ATOM     22  C   UNL     1       1.933  12.875  17.837  0.00  0.00    +0.000 C 
BRANCH  22  23
ATOM     23  N   UNL     1       3.111  13.744  17.845  0.00  0.00    +0.000 NA
ATOM     24  H   UNL     1       3.141  14.265  16.967  0.00  0.00    +0.000 HD
ATOM     25  H   UNL     1       3.955  13.171  17.867  0.00  0.00    +0.000 HD
ENDBRANCH  22  23
ENDBRANCH   9  22
TORSDOF 3
ENDMDL
MODEL 9
REMARK VINA RESULT:      -6.6      3.507      7.070
REMARK  Name = 
REMARK  5 active torsions:
REMARK  status: ('A' for Active; 'I' for Inactive)
REMARK    1  A    between atoms: C_1  and  C_2
REMARK    2  A    between atoms: C_8  and  C_9
REMARK    3  A    between atoms: C_17  and  C_18
REMARK    4  A    between atoms: C_18  and  N_19
REMARK    5  A    between atoms: N_22  and  C_23
REMARK                            x       y       z     vdW  Elec       q    Type
REMARK                         _______ _______ _______ _____ _____    ______ ____
ROOT
ATOM      1  C   UNL     1       2.205   7.742  18.848  0.00  0.00    +0.000 A 
ATOM      2  C   UNL     1       2.972   8.084  17.717  0.00  0.00    +0.000 A 
ATOM      3  C   UNL     1       3.851   7.165  17.135  0.00  0.00    +0.000 A 
ATOM      4  F   UNL     1       4.559   7.526  16.056  0.00  0.00    +0.000 F 
ATOM      5  C   UNL     1       4.009   5.886  17.653  0.00  0.00    +0.000 A 
ATOM      6  C   UNL     1       3.269   5.554  18.772  0.00  0.00    +0.000 A 
ATOM      7  C   UNL     1       2.372   6.451  19.350  0.00  0.00    +0.000 A 
ATOM      8  O   UNL     1       1.694   5.875  20.408  0.00  0.00    +0.000 OA
ATOM      9  C   UNL     1       2.538   4.743  20.766  0.00  0.00    +0.000 C 
ATOM     10  C   UNL     1       3.229   4.259  19.490  0.00  0.00    +0.000 C 
ENDROOT
BRANCH   1  18
ATOM     11  C   UNL     1      -2.288  10.138  16.038  0.00  0.00    +0.000 C 
ATOM     12  C   UNL     1      -1.623  10.169  17.384  0.00  0.00    +0.000 A 
ATOM     13  C   UNL     1      -2.061  11.035  18.388  0.00  0.00    +0.000 A 
ATOM     14  C   UNL     1      -1.427  11.085  19.634  0.00  0.00    +0.000 A 
ATOM     15  C   UNL     1      -0.315  10.253  19.829  0.00  0.00    +0.000 A 
ATOM     16  C   UNL     1       0.166   9.391  18.847  0.00  0.00    +0.000 A 
ATOM     17  C   UNL     1      -0.520   9.331  17.617  0.00  0.00    +0.000 A 
ATOM     18  C   UNL     1       1.311   8.751  19.425  0.00  0.00    +0.000 A 
ATOM     19  N   UNL     1       1.483   9.156  20.699  0.00  0.00    +0.000 NA
ATOM     20  N   UNL     1       0.518  10.069  20.900  0.00  0.00    +0.000 N 
ATOM     21  C   UNL     1       0.446  10.760  22.165  0.00  0.00    +0.000 C 
ENDBRANCH   1  18
BRANCH   9  22
ATOM     22  C   UNL     1       1.766   3.643  21.515  0.00  0.00    +0.000 C 
BRANCH  22  23
ATOM     23  N   UNL     1       2.590   2.524  21.974  0.00  0.00    +0.000 NA
ATOM     24  H   UNL     1       1.978   1.746  22.225  0.00  0.00    +0.000 HD
ATOM     25  H   UNL     1       3.079   2.791  22.828  0.00  0.00    +0.000 HD
ENDBRANCH  22  23
ENDBRANCH   9  22
TORSDOF 3
ENDMDL
