MODEL 1
REMARK VINA RESULT:      -6.4      0.000      0.000
REMARK  Name = 
REMARK  7 active torsions:
REMARK  status: ('A' for Active; 'I' for Inactive)
REMARK    1  A    between atoms: C_1  and  C_2
REMARK    2  A    between atoms: C_2  and  C_3
REMARK    3  A    between atoms: C_3  and  N_4
REMARK    4  A    between atoms: N_4  and  C_5
REMARK    5  A    between atoms: N_4  and  C_9
REMARK    6  A    between atoms: C_5  and  C_6
REMARK    7  A    between atoms: C_16  and  O_17
REMARK                            x       y       z     vdW  Elec       q    Type
REMARK                         _______ _______ _______ _____ _____    ______ ____
ROOT
ATOM      1  C   UNL     1       4.835   5.060  18.119  0.00  0.00    +0.000 A 
ATOM      2  C   UNL     1       4.166   6.298  18.032  0.00  0.00    +0.000 A 
ATOM      3  C   UNL     1       2.773   6.390  18.011  0.00  0.00    +0.000 A 
ATOM      4 CL   UNL     1       2.026   7.939  17.891  0.00  0.00    +0.000 Cl
ATOM      5  C   UNL     1       1.980   5.253  18.073  0.00  0.00    +0.000 A 
ATOM      6  C   UNL     1       2.605   4.017  18.170  0.00  0.00    +0.000 A 
ATOM      7 CL   UNL     1       1.623   2.595  18.247  0.00  0.00    +0.000 Cl
ATOM      8  C   UNL     1       4.006   3.916  18.203  0.00  0.00    +0.000 A 
ENDROOT
BRANCH   8   9
ATOM      9  O   UNL     1       4.574   2.669  18.351  0.00  0.00    +0.000 OA
ATOM     10  H   UNL     1       4.054   2.046  17.811  0.00  0.00    +0.000 HD
ENDBRANCH   8   9
BRANCH   1  11
ATOM     11  N   UNL     1       6.228   5.013  18.095  0.00  0.00    +0.000 N 
BRANCH  11  12
ATOM     12  C   UNL     1       7.044   5.674  19.128  0.00  0.00    +0.000 C 
BRANCH  12  14
ATOM     13  C   UNL     1       7.588   7.772  17.753  0.00  0.00    +0.000 C 
ATOM     14  C   UNL     1       8.130   6.599  18.560  0.00  0.00    +0.000 C 
ENDBRANCH  12  14
ENDBRANCH  11  12
BRANCH  11  15
ATOM     15  C   UNL     1       6.938   4.468  16.926  0.00  0.00    +0.000 C 
BRANCH  15  16
ATOM     16  C   UNL     1       6.381   4.933  15.601  0.00  0.00    +0.000 C 
ATOM     17  C   UNL     1       7.115   4.860  14.284  0.00  0.00    +0.000 C 
ATOM     18  C   UNL     1       6.001   3.898  14.567  0.00  0.00    +0.000 C 
ENDBRANCH  15  16
ENDBRANCH  11  15
ENDBRANCH   1  11
TORSDOF 6
ENDMDL
MODEL 2
REMARK VINA RESULT:      -6.4      1.186      1.364
REMARK  Name = 
REMARK  7 active torsions:
REMARK  status: ('A' for Active; 'I' for Inactive)
REMARK    1  A    between atoms: C_1  and  C_2
REMARK    2  A    between atoms: C_2  and  C_3
REMARK    3  A    between atoms: C_3  and  N_4
REMARK    4  A    between atoms: N_4  and  C_5
REMARK    5  A    between atoms: N_4  and  C_9
REMARK    6  A    between atoms: C_5  and  C_6
REMARK    7  A    between atoms: C_16  and  O_17
REMARK                            x       y       z     vdW  Elec       q    Type
REMARK                         _______ _______ _______ _____ _____    ______ ____
ROOT
ATOM      1  C   UNL     1       4.940   4.915  17.800  0.00  0.00    +0.000 A 
ATOM      2  C   UNL     1       4.283   6.126  17.501  0.00  0.00    +0.000 A 
ATOM      3  C   UNL     1       3.168   6.564  18.219  0.00  0.00    +0.000 A 
ATOM      4 CL   UNL     1       2.411   8.051  17.786  0.00  0.00    +0.000 Cl
ATOM      5  C   UNL     1       2.655   5.816  19.268  0.00  0.00    +0.000 A 
ATOM      6  C   UNL     1       3.284   4.623  19.598  0.00  0.00    +0.000 A 
ATOM      7 CL   UNL     1       2.648   3.685  20.904  0.00  0.00    +0.000 Cl
ATOM      8  C   UNL     1       4.411   4.180  18.887  0.00  0.00    +0.000 A 
ENDROOT
BRANCH   8   9
ATOM      9  O   UNL     1       5.028   3.014  19.288  0.00  0.00    +0.000 OA
ATOM     10  H   UNL     1       4.348   2.455  19.708  0.00  0.00    +0.000 HD
ENDBRANCH   8   9
BRANCH   1  11
ATOM     11  N   UNL     1       6.024   4.496  17.029  0.00  0.00    +0.000 N 
BRANCH  11  12
ATOM     12  C   UNL     1       7.388   4.996  17.273  0.00  0.00    +0.000 C 
BRANCH  12  14
ATOM     13  C   UNL     1       8.087   7.162  18.462  0.00  0.00    +0.000 C 
ATOM     14  C   UNL     1       7.543   5.746  18.605  0.00  0.00    +0.000 C 
ENDBRANCH  12  14
ENDBRANCH  11  12
BRANCH  11  15
ATOM     15  C   UNL     1       5.811   3.691  15.816  0.00  0.00    +0.000 C 
BRANCH  15  16
ATOM     16  C   UNL     1       5.849   4.492  14.535  0.00  0.00    +0.000 C 
ATOM     17  C   UNL     1       7.095   4.774  13.731  0.00  0.00    +0.000 C 
ATOM     18  C   UNL     1       6.100   3.769  13.231  0.00  0.00    +0.000 C 
ENDBRANCH  15  16
ENDBRANCH  11  15
ENDBRANCH   1  11
TORSDOF 6
ENDMDL
MODEL 3
REMARK VINA RESULT:      -6.4      1.383      1.545
REMARK  Name = 
REMARK  7 active torsions:
REMARK  status: ('A' for Active; 'I' for Inactive)
REMARK    1  A    between atoms: C_1  and  C_2
REMARK    2  A    between atoms: C_2  and  C_3
REMARK    3  A    between atoms: C_3  and  N_4
REMARK    4  A    between atoms: N_4  and  C_5
REMARK    5  A    between atoms: N_4  and  C_9
REMARK    6  A    between atoms: C_5  and  C_6
REMARK    7  A    between atoms: C_16  and  O_17
REMARK                            x       y       z     vdW  Elec       q    Type
REMARK                         _______ _______ _______ _____ _____    ______ ____
ROOT
ATOM      1  C   UNL     1       4.442   4.881  18.471  0.00  0.00    +0.000 A 
ATOM      2  C   UNL     1       3.775   6.109  18.657  0.00  0.00    +0.000 A 
ATOM      3  C   UNL     1       2.717   6.252  19.557  0.00  0.00    +0.000 A 
ATOM      4 CL   UNL     1       1.942   7.782  19.721  0.00  0.00    +0.000 Cl
ATOM      5  C   UNL     1       2.272   5.176  20.313  0.00  0.00    +0.000 A 
ATOM      6  C   UNL     1       2.913   3.954  20.163  0.00  0.00    +0.000 A 
ATOM      7 CL   UNL     1       2.363   2.609  21.101  0.00  0.00    +0.000 Cl
ATOM      8  C   UNL     1       3.985   3.805  19.267  0.00  0.00    +0.000 A 
ENDROOT
BRANCH   8   9
ATOM      9  O   UNL     1       4.619   2.583  19.195  0.00  0.00    +0.000 OA
ATOM     10  H   UNL     1       4.801   2.295  20.108  0.00  0.00    +0.000 HD
ENDBRANCH   8   9
BRANCH   1  11
ATOM     11  N   UNL     1       5.466   4.775  17.531  0.00  0.00    +0.000 N 
BRANCH  11  12
ATOM     12  C   UNL     1       6.884   4.762  17.928  0.00  0.00    +0.000 C 
BRANCH  12  14
ATOM     13  C   UNL     1       7.665   7.165  17.473  0.00  0.00    +0.000 C 
ATOM     14  C   UNL     1       7.375   6.093  18.516  0.00  0.00    +0.000 C 
ENDBRANCH  12  14
ENDBRANCH  11  12
BRANCH  11  15
ATOM     15  C   UNL     1       5.173   4.874  16.092  0.00  0.00    +0.000 C 
BRANCH  15  16
ATOM     16  C   UNL     1       6.150   4.126  15.215  0.00  0.00    +0.000 C 
ATOM     17  C   UNL     1       5.924   3.791  13.761  0.00  0.00    +0.000 C 
ATOM     18  C   UNL     1       6.883   4.883  14.131  0.00  0.00    +0.000 C 
ENDBRANCH  15  16
ENDBRANCH  11  15
ENDBRANCH   1  11
TORSDOF 6
ENDMDL
MODEL 4
REMARK VINA RESULT:      -6.4      1.543      2.960
REMARK  Name = 
REMARK  7 active torsions:
REMARK  status: ('A' for Active; 'I' for Inactive)
REMARK    1  A    between atoms: C_1  and  C_2
REMARK    2  A    between atoms: C_2  and  C_3
REMARK    3  A    between atoms: C_3  and  N_4
REMARK    4  A    between atoms: N_4  and  C_5
REMARK    5  A    between atoms: N_4  and  C_9
REMARK    6  A    between atoms: C_5  and  C_6
REMARK    7  A    between atoms: C_16  and  O_17
REMARK                            x       y       z     vdW  Elec       q    Type
REMARK                         _______ _______ _______ _____ _____    ______ ____
ROOT
ATOM      1  C   UNL     1       4.634   4.646  18.562  0.00  0.00    +0.000 A 
ATOM      2  C   UNL     1       3.946   5.875  18.607  0.00  0.00    +0.000 A 
ATOM      3  C   UNL     1       2.877   6.098  19.478  0.00  0.00    +0.000 A 
ATOM      4 CL   UNL     1       2.076   7.624  19.467  0.00  0.00    +0.000 Cl
ATOM      5  C   UNL     1       2.443   5.105  20.344  0.00  0.00    +0.000 A 
ATOM      6  C   UNL     1       3.105   3.884  20.335  0.00  0.00    +0.000 A 
ATOM      7 CL   UNL     1       2.568   2.642  21.411  0.00  0.00    +0.000 Cl
ATOM      8  C   UNL     1       4.187   3.656  19.469  0.00  0.00    +0.000 A 
ENDROOT
BRANCH   8   9
ATOM      9  O   UNL     1       4.841   2.445  19.536  0.00  0.00    +0.000 OA
ATOM     10  H   UNL     1       5.456   2.487  20.292  0.00  0.00    +0.000 HD
ENDBRANCH   8   9
BRANCH   1  11
ATOM     11  N   UNL     1       5.668   4.454  17.647  0.00  0.00    +0.000 N 
BRANCH  11  12
ATOM     12  C   UNL     1       5.457   3.737  16.377  0.00  0.00    +0.000 C 
BRANCH  12  14
ATOM     13  C   UNL     1       6.160   4.129  13.939  0.00  0.00    +0.000 C 
ATOM     14  C   UNL     1       5.399   4.658  15.149  0.00  0.00    +0.000 C 
ENDBRANCH  12  14
ENDBRANCH  11  12
BRANCH  11  15
ATOM     15  C   UNL     1       7.055   4.789  18.006  0.00  0.00    +0.000 C 
BRANCH  15  16
ATOM     16  C   UNL     1       7.562   6.062  17.370  0.00  0.00    +0.000 C 
ATOM     17  C   UNL     1       6.803   7.366  17.326  0.00  0.00    +0.000 C 
ATOM     18  C   UNL     1       7.962   7.214  18.265  0.00  0.00    +0.000 C 
ENDBRANCH  15  16
ENDBRANCH  11  15
ENDBRANCH   1  11
TORSDOF 6
ENDMDL
MODEL 5
REMARK VINA RESULT:      -6.4      2.904      5.395
REMARK  Name = 
REMARK  7 active torsions:
REMARK  status: ('A' for Active; 'I' for Inactive)
REMARK    1  A    between atoms: C_1  and  C_2
REMARK    2  A    between atoms: C_2  and  C_3
REMARK    3  A    between atoms: C_3  and  N_4
REMARK    4  A    between atoms: N_4  and  C_5
REMARK    5  A    between atoms: N_4  and  C_9
REMARK    6  A    between atoms: C_5  and  C_6
REMARK    7  A    between atoms: C_16  and  O_17
REMARK                            x       y       z     vdW  Elec       q    Type
REMARK                         _______ _______ _______ _____ _____    ______ ____
ROOT
ATOM      1  C   UNL     1       4.451   4.414  17.715  0.00  0.00    +0.000 A 
ATOM      2  C   UNL     1       4.760   4.080  16.380  0.00  0.00    +0.000 A 
ATOM      3  C   UNL     1       6.049   4.212  15.859  0.00  0.00    +0.000 A 
ATOM      4 CL   UNL     1       6.347   3.796  14.214  0.00  0.00    +0.000 Cl
ATOM      5  C   UNL     1       7.091   4.685  16.644  0.00  0.00    +0.000 A 
ATOM      6  C   UNL     1       6.826   5.013  17.966  0.00  0.00    +0.000 A 
ATOM      7 CL   UNL     1       8.120   5.604  18.950  0.00  0.00    +0.000 Cl
ATOM      8  C   UNL     1       5.534   4.873  18.501  0.00  0.00    +0.000 A 
ENDROOT
BRANCH   8   9
ATOM      9  O   UNL     1       5.337   5.164  19.833  0.00  0.00    +0.000 OA
ATOM     10  H   UNL     1       4.726   5.923  19.878  0.00  0.00    +0.000 HD
ENDBRANCH   8   9
BRANCH   1  11
ATOM     11  N   UNL     1       3.142   4.305  18.180  0.00  0.00    +0.000 N 
BRANCH  11  12
ATOM     12  C   UNL     1       2.160   5.387  17.991  0.00  0.00    +0.000 C 
BRANCH  12  14
ATOM     13  C   UNL     1       2.935   7.827  17.802  0.00  0.00    +0.000 C 
ATOM     14  C   UNL     1       2.523   6.687  18.724  0.00  0.00    +0.000 C 
ENDBRANCH  12  14
ENDBRANCH  11  12
BRANCH  11  15
ATOM     15  C   UNL     1       2.748   3.186  19.052  0.00  0.00    +0.000 C 
BRANCH  15  16
ATOM     16  C   UNL     1       1.707   3.551  20.083  0.00  0.00    +0.000 C 
ATOM     17  C   UNL     1       1.345   2.706  21.281  0.00  0.00    +0.000 C 
ATOM     18  C   UNL     1       2.163   3.949  21.469  0.00  0.00    +0.000 C 
ENDBRANCH  15  16
ENDBRANCH  11  15
ENDBRANCH   1  11
TORSDOF 6
ENDMDL
MODEL 6
REMARK VINA RESULT:      -6.3      0.979      1.526
REMARK  Name = 
REMARK  7 active torsions:
REMARK  status: ('A' for Active; 'I' for Inactive)
REMARK    1  A    between atoms: C_1  and  C_2
REMARK    2  A    between atoms: C_2  and  C_3
REMARK    3  A    between atoms: C_3  and  N_4
REMARK    4  A    between atoms: N_4  and  C_5
REMARK    5  A    between atoms: N_4  and  C_9
REMARK    6  A    between atoms: C_5  and  C_6
REMARK    7  A    between atoms: C_16  and  O_17
REMARK                            x       y       z     vdW  Elec       q    Type
REMARK                         _______ _______ _______ _____ _____    ______ ____
ROOT
ATOM      1  C   UNL     1       4.647   4.976  17.084  0.00  0.00    +0.000 A 
ATOM      2  C   UNL     1       4.064   6.234  17.340  0.00  0.00    +0.000 A 
ATOM      3  C   UNL     1       2.851   6.367  18.020  0.00  0.00    +0.000 A 
ATOM      4 CL   UNL     1       2.194   7.938  18.284  0.00  0.00    +0.000 Cl
ATOM      5  C   UNL     1       2.162   5.253  18.476  0.00  0.00    +0.000 A 
ATOM      6  C   UNL     1       2.712   3.998  18.251  0.00  0.00    +0.000 A 
ATOM      7 CL   UNL     1       1.858   2.605  18.817  0.00  0.00    +0.000 Cl
ATOM      8  C   UNL     1       3.936   3.856  17.577  0.00  0.00    +0.000 A 
ENDROOT
BRANCH   8   9
ATOM      9  O   UNL     1       4.464   2.592  17.426  0.00  0.00    +0.000 OA
ATOM     10  H   UNL     1       3.715   1.968  17.379  0.00  0.00    +0.000 HD
ENDBRANCH   8   9
BRANCH   1  11
ATOM     11  N   UNL     1       5.837   4.889  16.365  0.00  0.00    +0.000 N 
BRANCH  11  12
ATOM     12  C   UNL     1       7.141   4.747  17.037  0.00  0.00    +0.000 C 
BRANCH  12  14
ATOM     13  C   UNL     1       7.771   5.752  19.314  0.00  0.00    +0.000 C 
ATOM     14  C   UNL     1       7.571   5.994  17.823  0.00  0.00    +0.000 C 
ENDBRANCH  12  14
ENDBRANCH  11  12
BRANCH  11  15
ATOM     15  C   UNL     1       5.854   5.136  14.914  0.00  0.00    +0.000 C 
BRANCH  15  16
ATOM     16  C   UNL     1       6.164   3.910  14.088  0.00  0.00    +0.000 C 
ATOM     17  C   UNL     1       5.478   3.545  12.794  0.00  0.00    +0.000 C 
ATOM     18  C   UNL     1       6.877   4.084  12.766  0.00  0.00    +0.000 C 
ENDBRANCH  15  16
ENDBRANCH  11  15
ENDBRANCH   1  11
TORSDOF 6
ENDMDL
MODEL 7
REMARK VINA RESULT:      -6.2      1.405      1.618
REMARK  Name = 
REMARK  7 active torsions:
REMARK  status: ('A' for Active; 'I' for Inactive)
REMARK    1  A    between atoms: C_1  and  C_2
REMARK    2  A    between atoms: C_2  and  C_3
REMARK    3  A    between atoms: C_3  and  N_4
REMARK    4  A    between atoms: N_4  and  C_5
REMARK    5  A    between atoms: N_4  and  C_9
REMARK    6  A    between atoms: C_5  and  C_6
REMARK    7  A    between atoms: C_16  and  O_17
REMARK                            x       y       z     vdW  Elec       q    Type
REMARK                         _______ _______ _______ _____ _____    ______ ____
ROOT
ATOM      1  C   UNL     1       4.541   5.689  17.974  0.00  0.00    +0.000 A 
ATOM      2  C   UNL     1       3.869   6.897  17.700  0.00  0.00    +0.000 A 
ATOM      3  C   UNL     1       2.791   7.339  18.471  0.00  0.00    +0.000 A 
ATOM      4 CL   UNL     1       2.010   8.822  18.068  0.00  0.00    +0.000 Cl
ATOM      5  C   UNL     1       2.332   6.597  19.550  0.00  0.00    +0.000 A 
ATOM      6  C   UNL     1       2.978   5.406  19.855  0.00  0.00    +0.000 A 
ATOM      7 CL   UNL     1       2.411   4.476  21.197  0.00  0.00    +0.000 Cl
ATOM      8  C   UNL     1       4.069   4.960  19.091  0.00  0.00    +0.000 A 
ENDROOT
BRANCH   8   9
ATOM      9  O   UNL     1       4.706   3.798  19.467  0.00  0.00    +0.000 OA
ATOM     10  H   UNL     1       4.174   3.390  20.175  0.00  0.00    +0.000 HD
ENDBRANCH   8   9
BRANCH   1  11
ATOM     11  N   UNL     1       5.585   5.267  17.152  0.00  0.00    +0.000 N 
BRANCH  11  12
ATOM     12  C   UNL     1       6.930   4.993  17.686  0.00  0.00    +0.000 C 
BRANCH  12  14
ATOM     13  C   UNL     1       7.655   7.455  17.600  0.00  0.00    +0.000 C 
ATOM     14  C   UNL     1       7.553   6.182  18.432  0.00  0.00    +0.000 C 
ENDBRANCH  12  14
ENDBRANCH  11  12
BRANCH  11  15
ATOM     15  C   UNL     1       5.432   5.270  15.688  0.00  0.00    +0.000 C 
BRANCH  15  16
ATOM     16  C   UNL     1       6.368   4.324  14.973  0.00  0.00    +0.000 C 
ATOM     17  C   UNL     1       6.174   3.820  13.563  0.00  0.00    +0.000 C 
ATOM     18  C   UNL     1       7.220   4.857  13.844  0.00  0.00    +0.000 C 
ENDBRANCH  15  16
ENDBRANCH  11  15
ENDBRANCH   1  11
TORSDOF 6
ENDMDL
MODEL 8
REMARK VINA RESULT:      -6.2      2.819      5.372
REMARK  Name = 
REMARK  7 active torsions:
REMARK  status: ('A' for Active; 'I' for Inactive)
REMARK    1  A    between atoms: C_1  and  C_2
REMARK    2  A    between atoms: C_2  and  C_3
REMARK    3  A    between atoms: C_3  and  N_4
REMARK    4  A    between atoms: N_4  and  C_5
REMARK    5  A    between atoms: N_4  and  C_9
REMARK    6  A    between atoms: C_5  and  C_6
REMARK    7  A    between atoms: C_16  and  O_17
REMARK                            x       y       z     vdW  Elec       q    Type
REMARK                         _______ _______ _______ _____ _____    ______ ____
ROOT
ATOM      1  C   UNL     1       4.479   4.423  17.729  0.00  0.00    +0.000 A 
ATOM      2  C   UNL     1       4.772   4.097  16.389  0.00  0.00    +0.000 A 
ATOM      3  C   UNL     1       6.059   4.212  15.860  0.00  0.00    +0.000 A 
ATOM      4 CL   UNL     1       6.338   3.807  14.209  0.00  0.00    +0.000 Cl
ATOM      5  C   UNL     1       7.116   4.657  16.642  0.00  0.00    +0.000 A 
ATOM      6  C   UNL     1       6.866   4.977  17.970  0.00  0.00    +0.000 A 
ATOM      7 CL   UNL     1       8.177   5.533  18.950  0.00  0.00    +0.000 Cl
ATOM      8  C   UNL     1       5.575   4.854  18.512  0.00  0.00    +0.000 A 
ENDROOT
BRANCH   8   9
ATOM      9  O   UNL     1       5.392   5.135  19.849  0.00  0.00    +0.000 OA
ATOM     10  H   UNL     1       4.513   4.796  20.100  0.00  0.00    +0.000 HD
ENDBRANCH   8   9
BRANCH   1  11
ATOM     11  N   UNL     1       3.171   4.333  18.202  0.00  0.00    +0.000 N 
BRANCH  11  12
ATOM     12  C   UNL     1       2.629   3.078  18.751  0.00  0.00    +0.000 C 
BRANCH  12  14
ATOM     13  C   UNL     1       1.270   3.330  20.915  0.00  0.00    +0.000 C 
ATOM     14  C   UNL     1       2.624   3.025  20.286  0.00  0.00    +0.000 C 
ENDBRANCH  12  14
ENDBRANCH  11  12
BRANCH  11  15
ATOM     15  C   UNL     1       2.220   5.436  17.987  0.00  0.00    +0.000 C 
BRANCH  15  16
ATOM     16  C   UNL     1       2.796   6.804  18.270  0.00  0.00    +0.000 C 
ATOM     17  C   UNL     1       2.116   8.112  17.943  0.00  0.00    +0.000 C 
ATOM     18  C   UNL     1       2.178   7.642  19.366  0.00  0.00    +0.000 C 
ENDBRANCH  15  16
ENDBRANCH  11  15
ENDBRANCH   1  11
TORSDOF 6
ENDMDL
MODEL 9
REMARK VINA RESULT:      -6.2      1.508      1.640
REMARK  Name = 
REMARK  7 active torsions:
REMARK  status: ('A' for Active; 'I' for Inactive)
REMARK    1  A    between atoms: C_1  and  C_2
REMARK    2  A    between atoms: C_2  and  C_3
REMARK    3  A    between atoms: C_3  and  N_4
REMARK    4  A    between atoms: N_4  and  C_5
REMARK    5  A    between atoms: N_4  and  C_9
REMARK    6  A    between atoms: C_5  and  C_6
REMARK    7  A    between atoms: C_16  and  O_17
REMARK                            x       y       z     vdW  Elec       q    Type
REMARK                         _______ _______ _______ _____ _____    ______ ____
ROOT
ATOM      1  C   UNL     1       4.316   4.594  19.117  0.00  0.00    +0.000 A 
ATOM      2  C   UNL     1       3.641   5.725  19.620  0.00  0.00    +0.000 A 
ATOM      3  C   UNL     1       2.323   5.661  20.079  0.00  0.00    +0.000 A 
ATOM      4 CL   UNL     1       1.560   7.089  20.668  0.00  0.00    +0.000 Cl
ATOM      5  C   UNL     1       1.616   4.468  20.057  0.00  0.00    +0.000 A 
ATOM      6  C   UNL     1       2.254   3.331  19.578  0.00  0.00    +0.000 A 
ATOM      7 CL   UNL     1       1.378   1.840  19.547  0.00  0.00    +0.000 Cl
ATOM      8  C   UNL     1       3.582   3.385  19.124  0.00  0.00    +0.000 A 
ENDROOT
BRANCH   8   9
ATOM      9  O   UNL     1       4.185   2.217  18.707  0.00  0.00    +0.000 OA
ATOM     10  H   UNL     1       5.032   2.140  19.184  0.00  0.00    +0.000 HD
ENDBRANCH   8   9
BRANCH   1  11
ATOM     11  N   UNL     1       5.617   4.714  18.631  0.00  0.00    +0.000 N 
BRANCH  11  12
ATOM     12  C   UNL     1       6.654   5.461  19.364  0.00  0.00    +0.000 C 
BRANCH  12  14
ATOM     13  C   UNL     1       7.839   7.343  18.082  0.00  0.00    +0.000 C 
ATOM     14  C   UNL     1       7.849   5.876  18.494  0.00  0.00    +0.000 C 
ENDBRANCH  12  14
ENDBRANCH  11  12
BRANCH  11  15
ATOM     15  C   UNL     1       5.951   4.266  17.269  0.00  0.00    +0.000 C 
BRANCH  15  16
ATOM     16  C   UNL     1       5.103   4.900  16.191  0.00  0.00    +0.000 C 
ATOM     17  C   UNL     1       5.119   6.367  15.833  0.00  0.00    +0.000 C 
ATOM     18  C   UNL     1       5.774   5.372  14.921  0.00  0.00    +0.000 C 
ENDBRANCH  15  16
ENDBRANCH  11  15
ENDBRANCH   1  11
TORSDOF 6
ENDMDL
