MODEL 1
REMARK VINA RESULT:      -7.7      0.000      0.000
REMARK  Name = 
REMARK  7 active torsions:
REMARK  status: ('A' for Active; 'I' for Inactive)
REMARK    1  A    between atoms: C_1  and  O_2
REMARK    2  A    between atoms: O_2  and  C_3
REMARK    3  A    between atoms: C_9  and  C_10
REMARK    4  A    between atoms: C_9  and  C_15
REMARK    5  A    between atoms: C_11  and  C_12
REMARK    6  A    between atoms: C_12  and  C_13
REMARK    7  A    between atoms: C_12  and  C_14
REMARK                            x       y       z     vdW  Elec       q    Type
REMARK                         _______ _______ _______ _____ _____    ______ ____
ROOT
ATOM      1  C   UNL     1       5.624   4.204  14.233  0.00  0.00    +0.000 A 
ATOM      2  C   UNL     1       6.980   4.519  14.305  0.00  0.00    +0.000 A 
ATOM      3  C   UNL     1       7.546   4.872  15.528  0.00  0.00    +0.000 A 
ATOM      4  C   UNL     1       6.767   4.867  16.683  0.00  0.00    +0.000 A 
ATOM      5  C   UNL     1       5.419   4.504  16.644  0.00  0.00    +0.000 A 
ATOM      6  C   UNL     1       4.842   4.231  15.389  0.00  0.00    +0.000 A 
ATOM      7  C   UNL     1       4.621   4.466  17.944  0.00  0.00    +0.000 C 
ATOM      8  N   UNL     1       5.531   4.528  19.104  0.00  0.00    +0.000 N 
ATOM      9  C   UNL     1       6.734   5.130  19.095  0.00  0.00    +0.000 C 
ATOM     10  O   UNL     1       7.283   5.485  20.136  0.00  0.00    +0.000 OA
ATOM     11  N   UNL     1       7.344   5.259  17.890  0.00  0.00    +0.000 N 
ATOM     12  H   UNL     1       5.121   4.451  20.020  0.00  0.00    +0.000 HD
ATOM     13  H   UNL     1       8.288   5.623  17.916  0.00  0.00    +0.000 HD
ENDROOT
BRANCH   7  14
ATOM     14  C   UNL     1       3.703   3.177  18.068  0.00  0.00    +0.000 C 
ATOM     15  F   UNL     1       4.235   2.060  17.515  0.00  0.00    +0.000 F 
ATOM     16  F   UNL     1       3.466   2.871  19.375  0.00  0.00    +0.000 F 
ATOM     17  F   UNL     1       2.482   3.343  17.498  0.00  0.00    +0.000 F 
ENDBRANCH   7  14
BRANCH   1  19
ATOM     18  C   UNL     1       5.709   3.186  12.106  0.00  0.00    +0.000 C 
ATOM     19  O   UNL     1       4.949   3.885  13.088  0.00  0.00    +0.000 OA
ENDBRANCH   1  19
BRANCH   7  20
ATOM     20  C   UNL     1       3.784   5.698  18.052  0.00  0.00    +0.000 C 
ATOM     21  C   UNL     1       2.918   6.638  18.311  0.00  0.00    +0.000 C 
BRANCH  21  22
ATOM     22  C   UNL     1       1.908   7.733  18.612  0.00  0.00    +0.000 C 
ATOM     23  C   UNL     1       1.840   7.968  20.118  0.00  0.00    +0.000 C 
ATOM     24  C   UNL     1       2.304   9.011  17.878  0.00  0.00    +0.000 C 
ENDBRANCH  21  22
ENDBRANCH   7  20
TORSDOF 4
ENDMDL
MODEL 2
REMARK VINA RESULT:      -7.5      2.878      5.446
REMARK  Name = 
REMARK  7 active torsions:
REMARK  status: ('A' for Active; 'I' for Inactive)
REMARK    1  A    between atoms: C_1  and  O_2
REMARK    2  A    between atoms: O_2  and  C_3
REMARK    3  A    between atoms: C_9  and  C_10
REMARK    4  A    between atoms: C_9  and  C_15
REMARK    5  A    between atoms: C_11  and  C_12
REMARK    6  A    between atoms: C_12  and  C_13
REMARK    7  A    between atoms: C_12  and  C_14
REMARK                            x       y       z     vdW  Elec       q    Type
REMARK                         _______ _______ _______ _____ _____    ______ ____
ROOT
ATOM      1  C   UNL     1       2.425   3.917  18.507  0.00  0.00    +0.000 A 
ATOM      2  C   UNL     1       3.077   3.231  19.531  0.00  0.00    +0.000 A 
ATOM      3  C   UNL     1       4.469   3.190  19.562  0.00  0.00    +0.000 A 
ATOM      4  C   UNL     1       5.207   3.872  18.597  0.00  0.00    +0.000 A 
ATOM      5  C   UNL     1       4.577   4.611  17.593  0.00  0.00    +0.000 A 
ATOM      6  C   UNL     1       3.171   4.573  17.526  0.00  0.00    +0.000 A 
ATOM      7  C   UNL     1       5.430   5.381  16.590  0.00  0.00    +0.000 C 
ATOM      8  N   UNL     1       6.826   5.459  17.060  0.00  0.00    +0.000 N 
ATOM      9  C   UNL     1       7.416   4.542  17.848  0.00  0.00    +0.000 C 
ATOM     10  O   UNL     1       8.639   4.438  17.910  0.00  0.00    +0.000 OA
ATOM     11  N   UNL     1       6.599   3.788  18.625  0.00  0.00    +0.000 N 
ATOM     12  H   UNL     1       7.473   5.997  16.507  0.00  0.00    +0.000 HD
ATOM     13  H   UNL     1       7.065   3.175  19.282  0.00  0.00    +0.000 HD
ENDROOT
BRANCH   7  14
ATOM     14  C   UNL     1       4.887   6.847  16.315  0.00  0.00    +0.000 C 
ATOM     15  F   UNL     1       3.713   7.130  16.929  0.00  0.00    +0.000 F 
ATOM     16  F   UNL     1       5.773   7.785  16.753  0.00  0.00    +0.000 F 
ATOM     17  F   UNL     1       4.702   7.101  14.994  0.00  0.00    +0.000 F 
ENDBRANCH   7  14
BRANCH   1  19
ATOM     18  C   UNL     1       0.337   2.861  18.809  0.00  0.00    +0.000 C 
ATOM     19  O   UNL     1       1.070   3.992  18.347  0.00  0.00    +0.000 OA
ENDBRANCH   1  19
BRANCH   7  20
ATOM     20  C   UNL     1       5.504   4.617  15.308  0.00  0.00    +0.000 C 
ATOM     21  C   UNL     1       5.776   4.089  14.147  0.00  0.00    +0.000 C 
BRANCH  21  22
ATOM     22  C   UNL     1       6.093   3.475  12.794  0.00  0.00    +0.000 C 
ATOM     23  C   UNL     1       4.822   3.405  11.952  0.00  0.00    +0.000 C 
ATOM     24  C   UNL     1       7.165   4.304  12.093  0.00  0.00    +0.000 C 
ENDBRANCH  21  22
ENDBRANCH   7  20
TORSDOF 4
ENDMDL
MODEL 3
REMARK VINA RESULT:      -7.4      2.675      5.681
REMARK  Name = 
REMARK  7 active torsions:
REMARK  status: ('A' for Active; 'I' for Inactive)
REMARK    1  A    between atoms: C_1  and  O_2
REMARK    2  A    between atoms: O_2  and  C_3
REMARK    3  A    between atoms: C_9  and  C_10
REMARK    4  A    between atoms: C_9  and  C_15
REMARK    5  A    between atoms: C_11  and  C_12
REMARK    6  A    between atoms: C_12  and  C_13
REMARK    7  A    between atoms: C_12  and  C_14
REMARK                            x       y       z     vdW  Elec       q    Type
REMARK                         _______ _______ _______ _____ _____    ______ ____
ROOT
ATOM      1  C   UNL     1       2.995   7.636  17.730  0.00  0.00    +0.000 A 
ATOM      2  C   UNL     1       1.837   7.024  18.208  0.00  0.00    +0.000 A 
ATOM      3  C   UNL     1       1.793   5.640  18.353  0.00  0.00    +0.000 A 
ATOM      4  C   UNL     1       2.920   4.873  18.063  0.00  0.00    +0.000 A 
ATOM      5  C   UNL     1       4.109   5.468  17.634  0.00  0.00    +0.000 A 
ATOM      6  C   UNL     1       4.111   6.859  17.412  0.00  0.00    +0.000 A 
ATOM      7  C   UNL     1       5.329   4.591  17.377  0.00  0.00    +0.000 C 
ATOM      8  N   UNL     1       5.119   3.245  17.943  0.00  0.00    +0.000 N 
ATOM      9  C   UNL     1       3.916   2.661  18.090  0.00  0.00    +0.000 C 
ATOM     10  O   UNL     1       3.802   1.442  18.203  0.00  0.00    +0.000 OA
ATOM     11  N   UNL     1       2.843   3.486  18.180  0.00  0.00    +0.000 N 
ATOM     12  H   UNL     1       5.884   2.593  17.887  0.00  0.00    +0.000 HD
ATOM     13  H   UNL     1       1.962   3.034  18.389  0.00  0.00    +0.000 HD
ENDROOT
BRANCH   7  14
ATOM     14  C   UNL     1       6.668   5.205  17.970  0.00  0.00    +0.000 C 
ATOM     15  F   UNL     1       6.560   5.643  19.248  0.00  0.00    +0.000 F 
ATOM     16  F   UNL     1       7.668   4.280  17.975  0.00  0.00    +0.000 F 
ATOM     17  F   UNL     1       7.134   6.252  17.243  0.00  0.00    +0.000 F 
ENDBRANCH   7  14
BRANCH   1  19
ATOM     18  C   UNL     1       2.030   9.784  17.878  0.00  0.00    +0.000 C 
ATOM     19  O   UNL     1       3.144   8.977  17.507  0.00  0.00    +0.000 OA
ENDBRANCH   1  19
BRANCH   7  20
ATOM     20  C   UNL     1       5.481   4.365  15.909  0.00  0.00    +0.000 C 
ATOM     21  C   UNL     1       5.842   4.078  14.688  0.00  0.00    +0.000 C 
BRANCH  21  22
ATOM     22  C   UNL     1       6.264   3.744  13.267  0.00  0.00    +0.000 C 
ATOM     23  C   UNL     1       5.028   3.640  12.377  0.00  0.00    +0.000 C 
ATOM     24  C   UNL     1       7.218   4.817  12.750  0.00  0.00    +0.000 C 
ENDBRANCH  21  22
ENDBRANCH   7  20
TORSDOF 4
ENDMDL
MODEL 4
REMARK VINA RESULT:      -7.1      6.971      9.644
REMARK  Name = 
REMARK  7 active torsions:
REMARK  status: ('A' for Active; 'I' for Inactive)
REMARK    1  A    between atoms: C_1  and  O_2
REMARK    2  A    between atoms: O_2  and  C_3
REMARK    3  A    between atoms: C_9  and  C_10
REMARK    4  A    between atoms: C_9  and  C_15
REMARK    5  A    between atoms: C_11  and  C_12
REMARK    6  A    between atoms: C_12  and  C_13
REMARK    7  A    between atoms: C_12  and  C_14
REMARK                            x       y       z     vdW  Elec       q    Type
REMARK                         _______ _______ _______ _____ _____    ______ ____
ROOT
ATOM      1  C   UNL     1      -0.687  10.320  22.517  0.00  0.00    +0.000 A 
ATOM      2  C   UNL     1       0.180   9.254  22.757  0.00  0.00    +0.000 A 
ATOM      3  C   UNL     1       0.942   8.732  21.715  0.00  0.00    +0.000 A 
ATOM      4  C   UNL     1       0.871   9.303  20.446  0.00  0.00    +0.000 A 
ATOM      5  C   UNL     1       0.051  10.405  20.194  0.00  0.00    +0.000 A 
ATOM      6  C   UNL     1      -0.775  10.868  21.236  0.00  0.00    +0.000 A 
ATOM      7  C   UNL     1       0.046  11.026  18.801  0.00  0.00    +0.000 C 
ATOM      8  N   UNL     1       1.186  10.520  18.013  0.00  0.00    +0.000 N 
ATOM      9  C   UNL     1       1.755   9.313  18.187  0.00  0.00    +0.000 C 
ATOM     10  O   UNL     1       2.425   8.785  17.302  0.00  0.00    +0.000 OA
ATOM     11  N   UNL     1       1.616   8.742  19.409  0.00  0.00    +0.000 N 
ATOM     12  H   UNL     1       1.322  10.905  17.092  0.00  0.00    +0.000 HD
ATOM     13  H   UNL     1       2.133   7.884  19.551  0.00  0.00    +0.000 HD
ENDROOT
BRANCH   7  14
ATOM     14  C   UNL     1       0.094  12.612  18.831  0.00  0.00    +0.000 C 
ATOM     15  F   UNL     1       0.718  13.170  17.765  0.00  0.00    +0.000 F 
ATOM     16  F   UNL     1      -1.163  13.138  18.846  0.00  0.00    +0.000 F 
ATOM     17  F   UNL     1       0.713  13.099  19.937  0.00  0.00    +0.000 F 
ENDBRANCH   7  14
BRANCH   1  19
ATOM     18  C   UNL     1      -2.225  12.041  23.005  0.00  0.00    +0.000 C 
ATOM     19  O   UNL     1      -1.513  10.888  23.446  0.00  0.00    +0.000 OA
ENDBRANCH   1  19
BRANCH   7  20
ATOM     20  C   UNL     1      -1.163  10.568  18.055  0.00  0.00    +0.000 C 
ATOM     21  C   UNL     1      -2.177  10.370  17.257  0.00  0.00    +0.000 C 
BRANCH  21  22
ATOM     22  C   UNL     1      -3.358  10.141  16.329  0.00  0.00    +0.000 C 
ATOM     23  C   UNL     1      -4.410  11.222  16.560  0.00  0.00    +0.000 C 
ATOM     24  C   UNL     1      -2.879  10.147  14.880  0.00  0.00    +0.000 C 
ENDBRANCH  21  22
ENDBRANCH   7  20
TORSDOF 4
ENDMDL
MODEL 5
REMARK VINA RESULT:      -7.0      2.865      5.628
REMARK  Name = 
REMARK  7 active torsions:
REMARK  status: ('A' for Active; 'I' for Inactive)
REMARK    1  A    between atoms: C_1  and  O_2
REMARK    2  A    between atoms: O_2  and  C_3
REMARK    3  A    between atoms: C_9  and  C_10
REMARK    4  A    between atoms: C_9  and  C_15
REMARK    5  A    between atoms: C_11  and  C_12
REMARK    6  A    between atoms: C_12  and  C_13
REMARK    7  A    between atoms: C_12  and  C_14
REMARK                            x       y       z     vdW  Elec       q    Type
REMARK                         _______ _______ _______ _____ _____    ______ ____
ROOT
ATOM      1  C   UNL     1       2.948   7.737  17.740  0.00  0.00    +0.000 A 
ATOM      2  C   UNL     1       2.027   7.101  18.570  0.00  0.00    +0.000 A 
ATOM      3  C   UNL     1       2.293   5.821  19.051  0.00  0.00    +0.000 A 
ATOM      4  C   UNL     1       3.499   5.197  18.740  0.00  0.00    +0.000 A 
ATOM      5  C   UNL     1       4.462   5.836  17.954  0.00  0.00    +0.000 A 
ATOM      6  C   UNL     1       4.142   7.093  17.406  0.00  0.00    +0.000 A 
ATOM      7  C   UNL     1       5.786   5.131  17.682  0.00  0.00    +0.000 C 
ATOM      8  N   UNL     1       5.946   3.977  18.587  0.00  0.00    +0.000 N 
ATOM      9  C   UNL     1       4.926   3.269  19.105  0.00  0.00    +0.000 C 
ATOM     10  O   UNL     1       5.086   2.128  19.530  0.00  0.00    +0.000 OA
ATOM     11  N   UNL     1       3.731   3.902  19.202  0.00  0.00    +0.000 N 
ATOM     12  H   UNL     1       6.813   3.468  18.541  0.00  0.00    +0.000 HD
ATOM     13  H   UNL     1       3.003   3.389  19.683  0.00  0.00    +0.000 HD
ENDROOT
BRANCH   7  14
ATOM     14  C   UNL     1       7.040   6.093  17.833  0.00  0.00    +0.000 C 
ATOM     15  F   UNL     1       8.059   5.568  18.556  0.00  0.00    +0.000 F 
ATOM     16  F   UNL     1       7.567   6.403  16.615  0.00  0.00    +0.000 F 
ATOM     17  F   UNL     1       6.727   7.279  18.415  0.00  0.00    +0.000 F 
ENDBRANCH   7  14
BRANCH   1  19
ATOM     18  C   UNL     1       1.961   9.873  17.911  0.00  0.00    +0.000 C 
ATOM     19  O   UNL     1       2.781   8.969  17.174  0.00  0.00    +0.000 OA
ENDBRANCH   1  19
BRANCH   7  20
ATOM     20  C   UNL     1       5.764   4.537  16.312  0.00  0.00    +0.000 C 
ATOM     21  C   UNL     1       5.968   4.134  15.088  0.00  0.00    +0.000 C 
BRANCH  21  22
ATOM     22  C   UNL     1       6.205   3.665  13.662  0.00  0.00    +0.000 C 
ATOM     23  C   UNL     1       4.881   3.643  12.903  0.00  0.00    +0.000 C 
ATOM     24  C   UNL     1       7.209   4.590  12.979  0.00  0.00    +0.000 C 
ENDBRANCH  21  22
ENDBRANCH   7  20
TORSDOF 4
ENDMDL
MODEL 6
REMARK VINA RESULT:      -7.0      2.670      5.692
REMARK  Name = 
REMARK  7 active torsions:
REMARK  status: ('A' for Active; 'I' for Inactive)
REMARK    1  A    between atoms: C_1  and  O_2
REMARK    2  A    between atoms: O_2  and  C_3
REMARK    3  A    between atoms: C_9  and  C_10
REMARK    4  A    between atoms: C_9  and  C_15
REMARK    5  A    between atoms: C_11  and  C_12
REMARK    6  A    between atoms: C_12  and  C_13
REMARK    7  A    between atoms: C_12  and  C_14
REMARK                            x       y       z     vdW  Elec       q    Type
REMARK                         _______ _______ _______ _____ _____    ______ ____
ROOT
ATOM      1  C   UNL     1       2.987   7.661  17.750  0.00  0.00    +0.000 A 
ATOM      2  C   UNL     1       1.806   7.037  18.151  0.00  0.00    +0.000 A 
ATOM      3  C   UNL     1       1.754   5.649  18.252  0.00  0.00    +0.000 A 
ATOM      4  C   UNL     1       2.894   4.889  17.998  0.00  0.00    +0.000 A 
ATOM      5  C   UNL     1       4.103   5.495  17.648  0.00  0.00    +0.000 A 
ATOM      6  C   UNL     1       4.117   6.891  17.467  0.00  0.00    +0.000 A 
ATOM      7  C   UNL     1       5.335   4.623  17.428  0.00  0.00    +0.000 C 
ATOM      8  N   UNL     1       5.096   3.262  17.943  0.00  0.00    +0.000 N 
ATOM      9  C   UNL     1       3.887   2.675  18.011  0.00  0.00    +0.000 C 
ATOM     10  O   UNL     1       3.768   1.455  18.083  0.00  0.00    +0.000 OA
ATOM     11  N   UNL     1       2.811   3.499  18.070  0.00  0.00    +0.000 N 
ATOM     12  H   UNL     1       5.863   2.610  17.907  0.00  0.00    +0.000 HD
ATOM     13  H   UNL     1       1.921   3.043  18.221  0.00  0.00    +0.000 HD
ENDROOT
BRANCH   7  14
ATOM     14  C   UNL     1       6.642   5.218  18.106  0.00  0.00    +0.000 C 
ATOM     15  F   UNL     1       7.701   4.373  18.108  0.00  0.00    +0.000 F 
ATOM     16  F   UNL     1       7.060   6.341  17.458  0.00  0.00    +0.000 F 
ATOM     17  F   UNL     1       6.443   5.588  19.397  0.00  0.00    +0.000 F 
ENDBRANCH   7  14
BRANCH   1  19
ATOM     18  C   UNL     1       2.016   9.805  17.913  0.00  0.00    +0.000 C 
ATOM     19  O   UNL     1       3.147   9.007  17.575  0.00  0.00    +0.000 OA
ENDBRANCH   1  19
BRANCH   7  20
ATOM     20  C   UNL     1       5.562   4.440  15.963  0.00  0.00    +0.000 C 
ATOM     21  C   UNL     1       5.851   4.515  14.693  0.00  0.00    +0.000 C 
BRANCH  21  22
ATOM     22  C   UNL     1       6.187   4.603  13.214  0.00  0.00    +0.000 C 
ATOM     23  C   UNL     1       7.651   5.002  13.044  0.00  0.00    +0.000 C 
ATOM     24  C   UNL     1       5.907   3.261  12.544  0.00  0.00    +0.000 C 
ENDBRANCH  21  22
ENDBRANCH   7  20
TORSDOF 4
ENDMDL
MODEL 7
REMARK VINA RESULT:      -7.0      2.727      4.223
REMARK  Name = 
REMARK  7 active torsions:
REMARK  status: ('A' for Active; 'I' for Inactive)
REMARK    1  A    between atoms: C_1  and  O_2
REMARK    2  A    between atoms: O_2  and  C_3
REMARK    3  A    between atoms: C_9  and  C_10
REMARK    4  A    between atoms: C_9  and  C_15
REMARK    5  A    between atoms: C_11  and  C_12
REMARK    6  A    between atoms: C_12  and  C_13
REMARK    7  A    between atoms: C_12  and  C_14
REMARK                            x       y       z     vdW  Elec       q    Type
REMARK                         _______ _______ _______ _____ _____    ______ ____
ROOT
ATOM      1  C   UNL     1       8.037   7.724  18.110  0.00  0.00    +0.000 A 
ATOM      2  C   UNL     1       8.475   6.984  19.207  0.00  0.00    +0.000 A 
ATOM      3  C   UNL     1       7.773   5.848  19.604  0.00  0.00    +0.000 A 
ATOM      4  C   UNL     1       6.662   5.427  18.875  0.00  0.00    +0.000 A 
ATOM      5  C   UNL     1       6.236   6.120  17.740  0.00  0.00    +0.000 A 
ATOM      6  C   UNL     1       6.904   7.313  17.403  0.00  0.00    +0.000 A 
ATOM      7  C   UNL     1       5.045   5.591  16.949  0.00  0.00    +0.000 C 
ATOM      8  N   UNL     1       4.728   4.211  17.365  0.00  0.00    +0.000 N 
ATOM      9  C   UNL     1       4.969   3.712  18.591  0.00  0.00    +0.000 C 
ATOM     10  O   UNL     1       4.373   2.723  19.012  0.00  0.00    +0.000 OA
ATOM     11  N   UNL     1       5.953   4.307  19.310  0.00  0.00    +0.000 N 
ATOM     12  H   UNL     1       3.994   3.734  16.869  0.00  0.00    +0.000 HD
ATOM     13  H   UNL     1       6.187   3.857  20.186  0.00  0.00    +0.000 HD
ENDROOT
BRANCH   7  14
ATOM     14  C   UNL     1       5.283   5.622  15.379  0.00  0.00    +0.000 C 
ATOM     15  F   UNL     1       6.575   5.450  15.010  0.00  0.00    +0.000 F 
ATOM     16  F   UNL     1       4.582   4.630  14.760  0.00  0.00    +0.000 F 
ATOM     17  F   UNL     1       4.869   6.781  14.807  0.00  0.00    +0.000 F 
ENDBRANCH   7  14
BRANCH   1  19
ATOM     18  C   UNL     1       8.865   9.867  18.644  0.00  0.00    +0.000 C 
ATOM     19  O   UNL     1       8.615   8.875  17.653  0.00  0.00    +0.000 OA
ENDBRANCH   1  19
BRANCH   7  20
ATOM     20  C   UNL     1       3.825   6.381  17.294  0.00  0.00    +0.000 C 
ATOM     21  C   UNL     1       2.889   7.132  17.803  0.00  0.00    +0.000 C 
BRANCH  21  22
ATOM     22  C   UNL     1       1.798   8.008  18.397  0.00  0.00    +0.000 C 
ATOM     23  C   UNL     1       1.876   7.959  19.921  0.00  0.00    +0.000 C 
ATOM     24  C   UNL     1       1.955   9.438  17.889  0.00  0.00    +0.000 C 
ENDBRANCH  21  22
ENDBRANCH   7  20
TORSDOF 4
ENDMDL
MODEL 8
REMARK VINA RESULT:      -6.8      2.569      5.141
REMARK  Name = 
REMARK  7 active torsions:
REMARK  status: ('A' for Active; 'I' for Inactive)
REMARK    1  A    between atoms: C_1  and  O_2
REMARK    2  A    between atoms: O_2  and  C_3
REMARK    3  A    between atoms: C_9  and  C_10
REMARK    4  A    between atoms: C_9  and  C_15
REMARK    5  A    between atoms: C_11  and  C_12
REMARK    6  A    between atoms: C_12  and  C_13
REMARK    7  A    between atoms: C_12  and  C_14
REMARK                            x       y       z     vdW  Elec       q    Type
REMARK                         _______ _______ _______ _____ _____    ______ ____
ROOT
ATOM      1  C   UNL     1       2.730   3.030  18.268  0.00  0.00    +0.000 A 
ATOM      2  C   UNL     1       3.412   2.483  19.354  0.00  0.00    +0.000 A 
ATOM      3  C   UNL     1       4.670   2.970  19.700  0.00  0.00    +0.000 A 
ATOM      4  C   UNL     1       5.224   4.033  18.990  0.00  0.00    +0.000 A 
ATOM      5  C   UNL     1       4.536   4.634  17.933  0.00  0.00    +0.000 A 
ATOM      6  C   UNL     1       3.305   4.075  17.542  0.00  0.00    +0.000 A 
ATOM      7  C   UNL     1       5.164   5.826  17.219  0.00  0.00    +0.000 C 
ATOM      8  N   UNL     1       6.300   6.350  18.002  0.00  0.00    +0.000 N 
ATOM      9  C   UNL     1       7.062   5.609  18.826  0.00  0.00    +0.000 C 
ATOM     10  O   UNL     1       8.189   5.970  19.158  0.00  0.00    +0.000 OA
ATOM     11  N   UNL     1       6.500   4.482  19.330  0.00  0.00    +0.000 N 
ATOM     12  H   UNL     1       6.758   7.178  17.658  0.00  0.00    +0.000 HD
ATOM     13  H   UNL     1       7.051   3.992  20.023  0.00  0.00    +0.000 HD
ENDROOT
BRANCH   7  14
ATOM     14  C   UNL     1       4.129   6.999  16.949  0.00  0.00    +0.000 C 
ATOM     15  F   UNL     1       2.848   6.695  17.269  0.00  0.00    +0.000 F 
ATOM     16  F   UNL     1       4.444   8.106  17.680  0.00  0.00    +0.000 F 
ATOM     17  F   UNL     1       4.117   7.402  15.653  0.00  0.00    +0.000 F 
ENDBRANCH   7  14
BRANCH   1  19
ATOM     18  C   UNL     1       0.533   2.362  18.813  0.00  0.00    +0.000 C 
ATOM     19  O   UNL     1       1.513   2.609  17.808  0.00  0.00    +0.000 OA
ENDBRANCH   1  19
BRANCH   7  20
ATOM     20  C   UNL     1       5.769   5.375  15.930  0.00  0.00    +0.000 C 
ATOM     21  C   UNL     1       6.164   4.770  14.844  0.00  0.00    +0.000 C 
BRANCH  21  22
ATOM     22  C   UNL     1       6.625   4.064  13.580  0.00  0.00    +0.000 C 
ATOM     23  C   UNL     1       5.411   3.647  12.754  0.00  0.00    +0.000 C 
ATOM     24  C   UNL     1       7.536   4.991  12.779  0.00  0.00    +0.000 C 
ENDBRANCH  21  22
ENDBRANCH   7  20
TORSDOF 4
ENDMDL
MODEL 9
REMARK VINA RESULT:      -6.6      6.688      9.621
REMARK  Name = 
REMARK  7 active torsions:
REMARK  status: ('A' for Active; 'I' for Inactive)
REMARK    1  A    between atoms: C_1  and  O_2
REMARK    2  A    between atoms: O_2  and  C_3
REMARK    3  A    between atoms: C_9  and  C_10
REMARK    4  A    between atoms: C_9  and  C_15
REMARK    5  A    between atoms: C_11  and  C_12
REMARK    6  A    between atoms: C_12  and  C_13
REMARK    7  A    between atoms: C_12  and  C_14
REMARK                            x       y       z     vdW  Elec       q    Type
REMARK                         _______ _______ _______ _____ _____    ______ ____
ROOT
ATOM      1  C   UNL     1      -1.159  11.316  22.547  0.00  0.00    +0.000 A 
ATOM      2  C   UNL     1      -0.765  10.199  23.281  0.00  0.00    +0.000 A 
ATOM      3  C   UNL     1      -0.013   9.197  22.672  0.00  0.00    +0.000 A 
ATOM      4  C   UNL     1       0.383   9.335  21.343  0.00  0.00    +0.000 A 
ATOM      5  C   UNL     1       0.047  10.470  20.603  0.00  0.00    +0.000 A 
ATOM      6  C   UNL     1      -0.784  11.433  21.207  0.00  0.00    +0.000 A 
ATOM      7  C   UNL     1       0.546  10.596  19.167  0.00  0.00    +0.000 C 
ATOM      8  N   UNL     1       1.597   9.595  18.902  0.00  0.00    +0.000 N 
ATOM      9  C   UNL     1       1.685   8.403  19.520  0.00  0.00    +0.000 C 
ATOM     10  O   UNL     1       2.316   7.470  19.030  0.00  0.00    +0.000 OA
ATOM     11  N   UNL     1       1.105   8.305  20.742  0.00  0.00    +0.000 N 
ATOM     12  H   UNL     1       2.046   9.620  18.002  0.00  0.00    +0.000 HD
ATOM     13  H   UNL     1       1.267   7.434  21.233  0.00  0.00    +0.000 HD
ENDROOT
BRANCH   7  14
ATOM     14  C   UNL     1       1.107  12.044  18.833  0.00  0.00    +0.000 C 
ATOM     15  F   UNL     1       0.176  12.904  18.355  0.00  0.00    +0.000 F 
ATOM     16  F   UNL     1       1.625  12.635  19.947  0.00  0.00    +0.000 F 
ATOM     17  F   UNL     1       2.114  12.021  17.923  0.00  0.00    +0.000 F 
ENDBRANCH   7  14
BRANCH   1  19
ATOM     18  C   UNL     1      -3.129  12.589  22.291  0.00  0.00    +0.000 C 
ATOM     19  O   UNL     1      -1.931  12.340  23.021  0.00  0.00    +0.000 OA
ENDBRANCH   1  19
BRANCH   7  20
ATOM     20  C   UNL     1      -0.556  10.248  18.222  0.00  0.00    +0.000 C 
ATOM     21  C   UNL     1      -1.657  10.102  17.538  0.00  0.00    +0.000 C 
BRANCH  21  22
ATOM     22  C   UNL     1      -2.941   9.931  16.742  0.00  0.00    +0.000 C 
ATOM     23  C   UNL     1      -4.085  10.649  17.454  0.00  0.00    +0.000 C 
ATOM     24  C   UNL     1      -2.746  10.482  15.332  0.00  0.00    +0.000 C 
ENDBRANCH  21  22
ENDBRANCH   7  20
TORSDOF 4
ENDMDL
