MODEL 1
REMARK VINA RESULT:      -6.1      0.000      0.000
REMARK  Name = 
REMARK  9 active torsions:
REMARK  status: ('A' for Active; 'I' for Inactive)
REMARK    1  A    between atoms: C_2  and  C_3
REMARK    2  A    between atoms: C_3  and  C_4
REMARK    3  A    between atoms: C_4  and  N_5
REMARK    4  A    between atoms: C_9  and  N_10
REMARK    5  A    between atoms: N_10  and  C_11
REMARK    6  A    between atoms: C_11  and  C_12
REMARK    7  A    between atoms: C_11  and  C_13
REMARK    8  A    between atoms: C_11  and  C_14
REMARK    9  A    between atoms: C_21  and  C_22
REMARK                            x       y       z     vdW  Elec       q    Type
REMARK                         _______ _______ _______ _____ _____    ______ ____
ROOT
ATOM      1  N   UNL     1      -1.521  11.992  20.100  0.00  0.00    +0.000 N 
ATOM      2  C   UNL     1      -2.269  13.050  20.627  0.00  0.00    +0.000 C 
ATOM      3  O   UNL     1      -1.814  14.009  21.247  0.00  0.00    +0.000 OA
ATOM      4  C   UNL     1      -3.713  12.821  20.538  0.00  0.00    +0.000 C 
ATOM      5  C   UNL     1      -4.395  12.793  21.694  0.00  0.00    +0.000 C 
ATOM      6  C   UNL     1      -4.281  12.306  19.299  0.00  0.00    +0.000 C 
ATOM      7  O   UNL     1      -5.451  12.472  18.976  0.00  0.00    +0.000 OA
ATOM      8  C   UNL     1      -3.337  11.507  18.490  0.00  0.00    +0.000 A 
ATOM      9  C   UNL     1      -3.882  10.911  17.342  0.00  0.00    +0.000 A 
ATOM     10  C   UNL     1      -3.115  10.053  16.581  0.00  0.00    +0.000 A 
ATOM     11  C   UNL     1      -1.800   9.811  16.960  0.00  0.00    +0.000 A 
ATOM     12  C   UNL     1      -1.211  10.429  18.095  0.00  0.00    +0.000 A 
ATOM     13  C   UNL     1       0.244  10.087  18.284  0.00  0.00    +0.000 C 
ATOM     14  C   UNL     1      -1.993  11.290  18.913  0.00  0.00    +0.000 A 
ENDROOT
BRANCH   5  15
ATOM     15  N   UNL     1      -5.687  12.370  21.909  0.00  0.00    +0.000 N 
ATOM     16  H   UNL     1      -5.900  11.446  21.518  0.00  0.00    +0.000 HD
BRANCH  15  17
ATOM     17  C   UNL     1      -6.798  13.126  22.479  0.00  0.00    +0.000 C 
ATOM     18  C   UNL     1      -7.674  13.679  21.350  0.00  0.00    +0.000 C 
ATOM     19  C   UNL     1      -7.625  12.173  23.354  0.00  0.00    +0.000 C 
ATOM     20  C   UNL     1      -6.267  14.269  23.359  0.00  0.00    +0.000 C 
ENDBRANCH  15  17
ENDBRANCH   5  15
BRANCH   1  21
ATOM     21  C   UNL     1      -0.235  11.731  20.750  0.00  0.00    +0.000 C 
BRANCH  21  22
ATOM     22  C   UNL     1      -0.314  10.897  22.054  0.00  0.00    +0.000 C 
BRANCH  22  24
ATOM     23  C   UNL     1       0.846   8.696  21.727  0.00  0.00    +0.000 C 
ATOM     24  C   UNL     1      -0.281   9.414  21.806  0.00  0.00    +0.000 C 
ENDBRANCH  22  24
ENDBRANCH  21  22
ENDBRANCH   1  21
TORSDOF 5
ENDMDL
MODEL 2
REMARK VINA RESULT:      -6.0      1.573      1.939
REMARK  Name = 
REMARK  9 active torsions:
REMARK  status: ('A' for Active; 'I' for Inactive)
REMARK    1  A    between atoms: C_2  and  C_3
REMARK    2  A    between atoms: C_3  and  C_4
REMARK    3  A    between atoms: C_4  and  N_5
REMARK    4  A    between atoms: C_9  and  N_10
REMARK    5  A    between atoms: N_10  and  C_11
REMARK    6  A    between atoms: C_11  and  C_12
REMARK    7  A    between atoms: C_11  and  C_13
REMARK    8  A    between atoms: C_11  and  C_14
REMARK    9  A    between atoms: C_21  and  C_22
REMARK                            x       y       z     vdW  Elec       q    Type
REMARK                         _______ _______ _______ _____ _____    ______ ____
ROOT
ATOM      1  N   UNL     1      -0.231  11.156  20.243  0.00  0.00    +0.000 N 
ATOM      2  C   UNL     1      -0.502  12.237  21.088  0.00  0.00    +0.000 C 
ATOM      3  O   UNL     1       0.328  12.852  21.753  0.00  0.00    +0.000 OA
ATOM      4  C   UNL     1      -1.938  12.467  21.267  0.00  0.00    +0.000 C 
ATOM      5  C   UNL     1      -2.415  12.376  22.519  0.00  0.00    +0.000 C 
ATOM      6  C   UNL     1      -2.818  12.438  20.106  0.00  0.00    +0.000 C 
ATOM      7  O   UNL     1      -3.901  13.008  20.071  0.00  0.00    +0.000 OA
ATOM      8  C   UNL     1      -2.319  11.606  18.992  0.00  0.00    +0.000 A 
ATOM      9  C   UNL     1      -3.192  11.474  17.900  0.00  0.00    +0.000 A 
ATOM     10  C   UNL     1      -2.870  10.628  16.860  0.00  0.00    +0.000 A 
ATOM     11  C   UNL     1      -1.668   9.932  16.907  0.00  0.00    +0.000 A 
ATOM     12  C   UNL     1      -0.750  10.073  17.980  0.00  0.00    +0.000 A 
ATOM     13  C   UNL     1       0.523   9.287  17.797  0.00  0.00    +0.000 C 
ATOM     14  C   UNL     1      -1.075  10.913  19.079  0.00  0.00    +0.000 A 
ENDROOT
BRANCH   5  15
ATOM     15  N   UNL     1      -3.728  12.311  22.926  0.00  0.00    +0.000 N 
ATOM     16  H   UNL     1      -4.297  11.629  22.414  0.00  0.00    +0.000 HD
BRANCH  15  17
ATOM     17  C   UNL     1      -4.421  13.184  23.870  0.00  0.00    +0.000 C 
ATOM     18  C   UNL     1      -5.690  13.741  23.216  0.00  0.00    +0.000 C 
ATOM     19  C   UNL     1      -4.799  12.349  25.102  0.00  0.00    +0.000 C 
ATOM     20  C   UNL     1      -3.495  14.328  24.314  0.00  0.00    +0.000 C 
ENDBRANCH  15  17
ENDBRANCH   5  15
BRANCH   1  21
ATOM     21  C   UNL     1       0.978  10.389  20.552  0.00  0.00    +0.000 C 
BRANCH  21  22
ATOM     22  C   UNL     1       0.728   9.006  21.206  0.00  0.00    +0.000 C 
BRANCH  22  24
ATOM     23  C   UNL     1      -0.151   9.513  23.500  0.00  0.00    +0.000 C 
ATOM     24  C   UNL     1      -0.340   9.038  22.263  0.00  0.00    +0.000 C 
ENDBRANCH  22  24
ENDBRANCH  21  22
ENDBRANCH   1  21
TORSDOF 5
ENDMDL
MODEL 3
REMARK VINA RESULT:      -6.0      3.435      7.684
REMARK  Name = 
REMARK  9 active torsions:
REMARK  status: ('A' for Active; 'I' for Inactive)
REMARK    1  A    between atoms: C_2  and  C_3
REMARK    2  A    between atoms: C_3  and  C_4
REMARK    3  A    between atoms: C_4  and  N_5
REMARK    4  A    between atoms: C_9  and  N_10
REMARK    5  A    between atoms: N_10  and  C_11
REMARK    6  A    between atoms: C_11  and  C_12
REMARK    7  A    between atoms: C_11  and  C_13
REMARK    8  A    between atoms: C_11  and  C_14
REMARK    9  A    between atoms: C_21  and  C_22
REMARK                            x       y       z     vdW  Elec       q    Type
REMARK                         _______ _______ _______ _____ _____    ______ ____
ROOT
ATOM      1  N   UNL     1      -0.143  10.736  19.155  0.00  0.00    +0.000 N 
ATOM      2  C   UNL     1       1.149  10.222  19.002  0.00  0.00    +0.000 C 
ATOM      3  O   UNL     1       1.901  10.446  18.058  0.00  0.00    +0.000 OA
ATOM      4  C   UNL     1       1.477   9.208  20.008  0.00  0.00    +0.000 C 
ATOM      5  C   UNL     1       1.778   7.981  19.556  0.00  0.00    +0.000 C 
ATOM      6  C   UNL     1       1.139   9.450  21.405  0.00  0.00    +0.000 C 
ATOM      7  O   UNL     1       1.714   8.905  22.339  0.00  0.00    +0.000 OA
ATOM      8  C   UNL     1      -0.004  10.366  21.599  0.00  0.00    +0.000 A 
ATOM      9  C   UNL     1      -0.420  10.538  22.929  0.00  0.00    +0.000 A 
ATOM     10  C   UNL     1      -1.548  11.282  23.207  0.00  0.00    +0.000 A 
ATOM     11  C   UNL     1      -2.244  11.866  22.156  0.00  0.00    +0.000 A 
ATOM     12  C   UNL     1      -1.827  11.739  20.805  0.00  0.00    +0.000 A 
ATOM     13  C   UNL     1      -2.680  12.512  19.831  0.00  0.00    +0.000 C 
ATOM     14  C   UNL     1      -0.687  10.950  20.491  0.00  0.00    +0.000 A 
ENDROOT
BRANCH   5  15
ATOM     15  N   UNL     1       1.887   6.813  20.275  0.00  0.00    +0.000 N 
ATOM     16  H   UNL     1       1.796   6.930  21.290  0.00  0.00    +0.000 HD
BRANCH  15  17
ATOM     17  C   UNL     1       2.258   5.487  19.787  0.00  0.00    +0.000 C 
ATOM     18  C   UNL     1       1.534   4.417  20.609  0.00  0.00    +0.000 C 
ATOM     19  C   UNL     1       1.831   5.384  18.315  0.00  0.00    +0.000 C 
ATOM     20  C   UNL     1       3.781   5.297  19.872  0.00  0.00    +0.000 C 
ENDBRANCH  15  17
ENDBRANCH   5  15
BRANCH   1  21
ATOM     21  C   UNL     1      -0.830  11.119  17.920  0.00  0.00    +0.000 C 
BRANCH  21  22
ATOM     22  C   UNL     1      -1.680  10.001  17.267  0.00  0.00    +0.000 C 
BRANCH  22  24
ATOM     23  C   UNL     1      -2.950  10.019  15.103  0.00  0.00    +0.000 C 
ATOM     24  C   UNL     1      -2.721  10.530  16.319  0.00  0.00    +0.000 C 
ENDBRANCH  22  24
ENDBRANCH  21  22
ENDBRANCH   1  21
TORSDOF 5
ENDMDL
MODEL 4
REMARK VINA RESULT:      -5.9      1.215      1.544
REMARK  Name = 
REMARK  9 active torsions:
REMARK  status: ('A' for Active; 'I' for Inactive)
REMARK    1  A    between atoms: C_2  and  C_3
REMARK    2  A    between atoms: C_3  and  C_4
REMARK    3  A    between atoms: C_4  and  N_5
REMARK    4  A    between atoms: C_9  and  N_10
REMARK    5  A    between atoms: N_10  and  C_11
REMARK    6  A    between atoms: C_11  and  C_12
REMARK    7  A    between atoms: C_11  and  C_13
REMARK    8  A    between atoms: C_11  and  C_14
REMARK    9  A    between atoms: C_21  and  C_22
REMARK                            x       y       z     vdW  Elec       q    Type
REMARK                         _______ _______ _______ _____ _____    ______ ____
ROOT
ATOM      1  N   UNL     1      -0.777  11.550  20.035  0.00  0.00    +0.000 N 
ATOM      2  C   UNL     1      -1.200  12.649  20.789  0.00  0.00    +0.000 C 
ATOM      3  O   UNL     1      -0.468  13.422  21.401  0.00  0.00    +0.000 OA
ATOM      4  C   UNL     1      -2.656  12.697  20.948  0.00  0.00    +0.000 C 
ATOM      5  C   UNL     1      -3.131  12.644  22.202  0.00  0.00    +0.000 C 
ATOM      6  C   UNL     1      -3.511  12.456  19.793  0.00  0.00    +0.000 C 
ATOM      7  O   UNL     1      -4.661  12.871  19.710  0.00  0.00    +0.000 OA
ATOM      8  C   UNL     1      -2.892  11.611  18.751  0.00  0.00    +0.000 A 
ATOM      9  C   UNL     1      -3.726  11.275  17.673  0.00  0.00    +0.000 A 
ATOM     10  C   UNL     1      -3.281  10.398  16.705  0.00  0.00    +0.000 A 
ATOM     11  C   UNL     1      -1.998   9.877  16.809  0.00  0.00    +0.000 A 
ATOM     12  C   UNL     1      -1.119  10.227  17.868  0.00  0.00    +0.000 A 
ATOM     13  C   UNL     1       0.250   9.608  17.750  0.00  0.00    +0.000 C 
ATOM     14  C   UNL     1      -1.567  11.102  18.894  0.00  0.00    +0.000 A 
ENDROOT
BRANCH   5  15
ATOM     15  N   UNL     1      -4.428  12.436  22.613  0.00  0.00    +0.000 N 
ATOM     16  H   UNL     1      -4.988  11.864  21.972  0.00  0.00    +0.000 HD
BRANCH  15  17
ATOM     17  C   UNL     1      -5.122  13.046  23.744  0.00  0.00    +0.000 C 
ATOM     18  C   UNL     1      -4.866  14.556  23.749  0.00  0.00    +0.000 C 
ATOM     19  C   UNL     1      -6.626  12.777  23.581  0.00  0.00    +0.000 C 
ATOM     20  C   UNL     1      -4.648  12.413  25.062  0.00  0.00    +0.000 C 
ENDBRANCH  15  17
ENDBRANCH   5  15
BRANCH   1  21
ATOM     21  C   UNL     1       0.520  10.980  20.407  0.00  0.00    +0.000 C 
BRANCH  21  22
ATOM     22  C   UNL     1       0.452   9.630  21.165  0.00  0.00    +0.000 C 
BRANCH  22  24
ATOM     23  C   UNL     1      -0.824   9.949  23.302  0.00  0.00    +0.000 C 
ATOM     24  C   UNL     1       0.338   9.797  22.655  0.00  0.00    +0.000 C 
ENDBRANCH  22  24
ENDBRANCH  21  22
ENDBRANCH   1  21
TORSDOF 5
ENDMDL
MODEL 5
REMARK VINA RESULT:      -5.9      2.346      5.535
REMARK  Name = 
REMARK  9 active torsions:
REMARK  status: ('A' for Active; 'I' for Inactive)
REMARK    1  A    between atoms: C_2  and  C_3
REMARK    2  A    between atoms: C_3  and  C_4
REMARK    3  A    between atoms: C_4  and  N_5
REMARK    4  A    between atoms: C_9  and  N_10
REMARK    5  A    between atoms: N_10  and  C_11
REMARK    6  A    between atoms: C_11  and  C_12
REMARK    7  A    between atoms: C_11  and  C_13
REMARK    8  A    between atoms: C_11  and  C_14
REMARK    9  A    between atoms: C_21  and  C_22
REMARK                            x       y       z     vdW  Elec       q    Type
REMARK                         _______ _______ _______ _____ _____    ______ ____
ROOT
ATOM      1  N   UNL     1      -1.384  13.148  20.646  0.00  0.00    +0.000 N 
ATOM      2  C   UNL     1      -0.859  13.402  19.375  0.00  0.00    +0.000 C 
ATOM      3  O   UNL     1      -0.577  14.509  18.926  0.00  0.00    +0.000 OA
ATOM      4  C   UNL     1      -0.846  12.211  18.521  0.00  0.00    +0.000 C 
ATOM      5  C   UNL     1      -1.556  12.274  17.384  0.00  0.00    +0.000 C 
ATOM      6  C   UNL     1      -0.382  10.943  19.068  0.00  0.00    +0.000 C 
ATOM      7  O   UNL     1       0.057  10.034  18.375  0.00  0.00    +0.000 OA
ATOM      8  C   UNL     1      -0.545  10.822  20.532  0.00  0.00    +0.000 A 
ATOM      9  C   UNL     1      -0.203   9.573  21.075  0.00  0.00    +0.000 A 
ATOM     10  C   UNL     1      -0.426   9.320  22.413  0.00  0.00    +0.000 A 
ATOM     11  C   UNL     1      -0.972  10.323  23.205  0.00  0.00    +0.000 A 
ATOM     12  C   UNL     1      -1.293  11.607  22.691  0.00  0.00    +0.000 A 
ATOM     13  C   UNL     1      -1.803  12.567  23.734  0.00  0.00    +0.000 C 
ATOM     14  C   UNL     1      -1.103  11.879  21.309  0.00  0.00    +0.000 A 
ENDROOT
BRANCH   5  15
ATOM     15  N   UNL     1      -1.902  11.243  16.539  0.00  0.00    +0.000 N 
ATOM     16  H   UNL     1      -1.175  10.989  15.862  0.00  0.00    +0.000 HD
BRANCH  15  17
ATOM     17  C   UNL     1      -3.201  10.592  16.399  0.00  0.00    +0.000 C 
ATOM     18  C   UNL     1      -3.310   9.958  15.009  0.00  0.00    +0.000 C 
ATOM     19  C   UNL     1      -3.305   9.500  17.475  0.00  0.00    +0.000 C 
ATOM     20  C   UNL     1      -4.332  11.610  16.619  0.00  0.00    +0.000 C 
ENDBRANCH  15  17
ENDBRANCH   5  15
BRANCH   1  21
ATOM     21  C   UNL     1      -2.117  14.252  21.269  0.00  0.00    +0.000 C 
BRANCH  21  22
ATOM     22  C   UNL     1      -3.584  14.415  20.799  0.00  0.00    +0.000 C 
BRANCH  22  24
ATOM     23  C   UNL     1      -4.868  12.366  20.128  0.00  0.00    +0.000 C 
ATOM     24  C   UNL     1      -4.429  13.203  21.077  0.00  0.00    +0.000 C 
ENDBRANCH  22  24
ENDBRANCH  21  22
ENDBRANCH   1  21
TORSDOF 5
ENDMDL
MODEL 6
REMARK VINA RESULT:      -5.9      0.995      1.497
REMARK  Name = 
REMARK  9 active torsions:
REMARK  status: ('A' for Active; 'I' for Inactive)
REMARK    1  A    between atoms: C_2  and  C_3
REMARK    2  A    between atoms: C_3  and  C_4
REMARK    3  A    between atoms: C_4  and  N_5
REMARK    4  A    between atoms: C_9  and  N_10
REMARK    5  A    between atoms: N_10  and  C_11
REMARK    6  A    between atoms: C_11  and  C_12
REMARK    7  A    between atoms: C_11  and  C_13
REMARK    8  A    between atoms: C_11  and  C_14
REMARK    9  A    between atoms: C_21  and  C_22
REMARK                            x       y       z     vdW  Elec       q    Type
REMARK                         _______ _______ _______ _____ _____    ______ ____
ROOT
ATOM      1  N   UNL     1      -0.883  11.961  20.009  0.00  0.00    +0.000 N 
ATOM      2  C   UNL     1      -1.481  13.071  20.614  0.00  0.00    +0.000 C 
ATOM      3  O   UNL     1      -0.885  14.020  21.115  0.00  0.00    +0.000 OA
ATOM      4  C   UNL     1      -2.930  12.917  20.771  0.00  0.00    +0.000 C 
ATOM      5  C   UNL     1      -3.411  12.957  22.023  0.00  0.00    +0.000 C 
ATOM      6  C   UNL     1      -3.719  12.398  19.661  0.00  0.00    +0.000 C 
ATOM      7  O   UNL     1      -4.917  12.618  19.530  0.00  0.00    +0.000 OA
ATOM      8  C   UNL     1      -2.962  11.529  18.737  0.00  0.00    +0.000 A 
ATOM      9  C   UNL     1      -3.718  10.930  17.717  0.00  0.00    +0.000 A 
ATOM     10  C   UNL     1      -3.130  10.013  16.871  0.00  0.00    +0.000 A 
ATOM     11  C   UNL     1      -1.783   9.712  17.038  0.00  0.00    +0.000 A 
ATOM     12  C   UNL     1      -0.985  10.328  18.038  0.00  0.00    +0.000 A 
ATOM     13  C   UNL     1       0.463   9.915  17.997  0.00  0.00    +0.000 C 
ATOM     14  C   UNL     1      -1.578  11.251  18.941  0.00  0.00    +0.000 A 
ENDROOT
BRANCH   5  15
ATOM     15  N   UNL     1      -4.668  12.609  22.463  0.00  0.00    +0.000 N 
ATOM     16  H   UNL     1      -5.222  12.076  21.783  0.00  0.00    +0.000 HD
BRANCH  15  17
ATOM     17  C   UNL     1      -5.340  13.029  23.690  0.00  0.00    +0.000 C 
ATOM     18  C   UNL     1      -4.640  12.400  24.898  0.00  0.00    +0.000 C 
ATOM     19  C   UNL     1      -5.253  14.559  23.781  0.00  0.00    +0.000 C 
ATOM     20  C   UNL     1      -6.821  12.620  23.650  0.00  0.00    +0.000 C 
ENDBRANCH  15  17
ENDBRANCH   5  15
BRANCH   1  21
ATOM     21  C   UNL     1       0.479  11.649  20.448  0.00  0.00    +0.000 C 
BRANCH  21  22
ATOM     22  C   UNL     1       0.576  10.798  21.739  0.00  0.00    +0.000 C 
BRANCH  22  24
ATOM     23  C   UNL     1      -0.223   8.426  21.572  0.00  0.00    +0.000 C 
ATOM     24  C   UNL     1      -0.469   9.719  21.812  0.00  0.00    +0.000 C 
ENDBRANCH  22  24
ENDBRANCH  21  22
ENDBRANCH   1  21
TORSDOF 5
ENDMDL
MODEL 7
REMARK VINA RESULT:      -5.8      4.629      7.409
REMARK  Name = 
REMARK  9 active torsions:
REMARK  status: ('A' for Active; 'I' for Inactive)
REMARK    1  A    between atoms: C_2  and  C_3
REMARK    2  A    between atoms: C_3  and  C_4
REMARK    3  A    between atoms: C_4  and  N_5
REMARK    4  A    between atoms: C_9  and  N_10
REMARK    5  A    between atoms: N_10  and  C_11
REMARK    6  A    between atoms: C_11  and  C_12
REMARK    7  A    between atoms: C_11  and  C_13
REMARK    8  A    between atoms: C_11  and  C_14
REMARK    9  A    between atoms: C_21  and  C_22
REMARK                            x       y       z     vdW  Elec       q    Type
REMARK                         _______ _______ _______ _____ _____    ______ ____
ROOT
ATOM      1  N   UNL     1       2.304   6.589  19.828  0.00  0.00    +0.000 N 
ATOM      2  C   UNL     1       1.847   7.859  20.196  0.00  0.00    +0.000 C 
ATOM      3  O   UNL     1       1.549   8.210  21.334  0.00  0.00    +0.000 OA
ATOM      4  C   UNL     1       1.566   8.715  19.040  0.00  0.00    +0.000 C 
ATOM      5  C   UNL     1       0.306   9.158  18.906  0.00  0.00    +0.000 C 
ATOM      6  C   UNL     1       2.520   8.767  17.939  0.00  0.00    +0.000 C 
ATOM      7  O   UNL     1       2.601   9.713  17.166  0.00  0.00    +0.000 OA
ATOM      8  C   UNL     1       3.341   7.547  17.795  0.00  0.00    +0.000 A 
ATOM      9  C   UNL     1       4.196   7.525  16.682  0.00  0.00    +0.000 A 
ATOM     10  C   UNL     1       4.921   6.387  16.393  0.00  0.00    +0.000 A 
ATOM     11  C   UNL     1       4.803   5.284  17.230  0.00  0.00    +0.000 A 
ATOM     12  C   UNL     1       3.974   5.291  18.383  0.00  0.00    +0.000 A 
ATOM     13  C   UNL     1       4.049   4.021  19.190  0.00  0.00    +0.000 C 
ATOM     14  C   UNL     1       3.192   6.440  18.681  0.00  0.00    +0.000 A 
ENDROOT
BRANCH   5  15
ATOM     15  N   UNL     1      -0.271   9.763  17.813  0.00  0.00    +0.000 N 
ATOM     16  H   UNL     1       0.329   9.797  16.982  0.00  0.00    +0.000 HD
BRANCH  15  17
ATOM     17  C   UNL     1      -1.543  10.478  17.748  0.00  0.00    +0.000 C 
ATOM     18  C   UNL     1      -1.290  11.985  17.849  0.00  0.00    +0.000 C 
ATOM     19  C   UNL     1      -2.202  10.155  16.398  0.00  0.00    +0.000 C 
ATOM     20  C   UNL     1      -2.475  10.009  18.877  0.00  0.00    +0.000 C 
ENDBRANCH  15  17
ENDBRANCH   5  15
BRANCH   1  21
ATOM     21  C   UNL     1       1.918   5.488  20.713  0.00  0.00    +0.000 C 
BRANCH  21  22
ATOM     22  C   UNL     1       0.787   4.577  20.173  0.00  0.00    +0.000 C 
BRANCH  22  24
ATOM     23  C   UNL     1       1.618   2.739  21.665  0.00  0.00    +0.000 C 
ATOM     24  C   UNL     1       0.947   3.138  20.578  0.00  0.00    +0.000 C 
ENDBRANCH  22  24
ENDBRANCH  21  22
ENDBRANCH   1  21
TORSDOF 5
ENDMDL
MODEL 8
REMARK VINA RESULT:      -5.7      1.083      1.383
REMARK  Name = 
REMARK  9 active torsions:
REMARK  status: ('A' for Active; 'I' for Inactive)
REMARK    1  A    between atoms: C_2  and  C_3
REMARK    2  A    between atoms: C_3  and  C_4
REMARK    3  A    between atoms: C_4  and  N_5
REMARK    4  A    between atoms: C_9  and  N_10
REMARK    5  A    between atoms: N_10  and  C_11
REMARK    6  A    between atoms: C_11  and  C_12
REMARK    7  A    between atoms: C_11  and  C_13
REMARK    8  A    between atoms: C_11  and  C_14
REMARK    9  A    between atoms: C_21  and  C_22
REMARK                            x       y       z     vdW  Elec       q    Type
REMARK                         _______ _______ _______ _____ _____    ______ ____
ROOT
ATOM      1  N   UNL     1      -1.563  11.581  19.705  0.00  0.00    +0.000 N 
ATOM      2  C   UNL     1      -1.900  12.667  20.520  0.00  0.00    +0.000 C 
ATOM      3  O   UNL     1      -1.106  13.383  21.123  0.00  0.00    +0.000 OA
ATOM      4  C   UNL     1      -3.343  12.771  20.754  0.00  0.00    +0.000 C 
ATOM      5  C   UNL     1      -3.758  12.690  22.028  0.00  0.00    +0.000 C 
ATOM      6  C   UNL     1      -4.263  12.612  19.635  0.00  0.00    +0.000 C 
ATOM      7  O   UNL     1      -5.396  13.078  19.626  0.00  0.00    +0.000 OA
ATOM      8  C   UNL     1      -3.733  11.782  18.533  0.00  0.00    +0.000 A 
ATOM      9  C   UNL     1      -4.634  11.524  17.487  0.00  0.00    +0.000 A 
ATOM     10  C   UNL     1      -4.276  10.668  16.466  0.00  0.00    +0.000 A 
ATOM     11  C   UNL     1      -3.014  10.089  16.486  0.00  0.00    +0.000 A 
ATOM     12  C   UNL     1      -2.069  10.359  17.511  0.00  0.00    +0.000 A 
ATOM     13  C   UNL     1      -0.737   9.687  17.302  0.00  0.00    +0.000 C 
ATOM     14  C   UNL     1      -2.428  11.212  18.591  0.00  0.00    +0.000 A 
ENDROOT
BRANCH   5  15
ATOM     15  N   UNL     1      -5.041  12.521  22.495  0.00  0.00    +0.000 N 
ATOM     16  H   UNL     1      -5.688  12.105  21.816  0.00  0.00    +0.000 HD
BRANCH  15  17
ATOM     17  C   UNL     1      -5.609  12.994  23.755  0.00  0.00    +0.000 C 
ATOM     18  C   UNL     1      -7.059  12.514  23.875  0.00  0.00    +0.000 C 
ATOM     19  C   UNL     1      -4.775  12.407  24.904  0.00  0.00    +0.000 C 
ATOM     20  C   UNL     1      -5.539  14.528  23.828  0.00  0.00    +0.000 C 
ENDBRANCH  15  17
ENDBRANCH   5  15
BRANCH   1  21
ATOM     21  C   UNL     1      -0.276  10.942  19.990  0.00  0.00    +0.000 C 
BRANCH  21  22
ATOM     22  C   UNL     1      -0.345   9.723  20.944  0.00  0.00    +0.000 C 
BRANCH  22  24
ATOM     23  C   UNL     1      -0.162   9.461  23.433  0.00  0.00    +0.000 C 
ATOM     24  C   UNL     1       0.281   9.988  22.285  0.00  0.00    +0.000 C 
ENDBRANCH  22  24
ENDBRANCH  21  22
ENDBRANCH   1  21
TORSDOF 5
ENDMDL
MODEL 9
REMARK VINA RESULT:      -5.7      4.004      8.453
REMARK  Name = 
REMARK  9 active torsions:
REMARK  status: ('A' for Active; 'I' for Inactive)
REMARK    1  A    between atoms: C_2  and  C_3
REMARK    2  A    between atoms: C_3  and  C_4
REMARK    3  A    between atoms: C_4  and  N_5
REMARK    4  A    between atoms: C_9  and  N_10
REMARK    5  A    between atoms: N_10  and  C_11
REMARK    6  A    between atoms: C_11  and  C_12
REMARK    7  A    between atoms: C_11  and  C_13
REMARK    8  A    between atoms: C_11  and  C_14
REMARK    9  A    between atoms: C_21  and  C_22
REMARK                            x       y       z     vdW  Elec       q    Type
REMARK                         _______ _______ _______ _____ _____    ______ ____
ROOT
ATOM      1  N   UNL     1       0.392  10.075  18.888  0.00  0.00    +0.000 N 
ATOM      2  C   UNL     1       1.533   9.488  18.330  0.00  0.00    +0.000 C 
ATOM      3  O   UNL     1       2.125   9.885  17.330  0.00  0.00    +0.000 OA
ATOM      4  C   UNL     1       1.870   8.205  18.952  0.00  0.00    +0.000 C 
ATOM      5  C   UNL     1       1.880   7.128  18.151  0.00  0.00    +0.000 C 
ATOM      6  C   UNL     1       1.837   8.083  20.404  0.00  0.00    +0.000 C 
ATOM      7  O   UNL     1       2.477   7.240  21.020  0.00  0.00    +0.000 OA
ATOM      8  C   UNL     1       0.913   9.025  21.068  0.00  0.00    +0.000 A 
ATOM      9  C   UNL     1       0.781   8.863  22.456  0.00  0.00    +0.000 A 
ATOM     10  C   UNL     1      -0.140   9.616  23.153  0.00  0.00    +0.000 A 
ATOM     11  C   UNL     1      -0.913  10.541  22.462  0.00  0.00    +0.000 A 
ATOM     12  C   UNL     1      -0.776  10.753  21.064  0.00  0.00    +0.000 A 
ATOM     13  C   UNL     1      -1.656  11.853  20.528  0.00  0.00    +0.000 C 
ATOM     14  C   UNL     1       0.144   9.965  20.320  0.00  0.00    +0.000 A 
ENDROOT
BRANCH   5  15
ATOM     15  N   UNL     1       1.927   5.801  18.512  0.00  0.00    +0.000 N 
ATOM     16  H   UNL     1       1.196   5.515  19.172  0.00  0.00    +0.000 HD
BRANCH  15  17
ATOM     17  C   UNL     1       2.959   4.818  18.193  0.00  0.00    +0.000 C 
ATOM     18  C   UNL     1       4.036   5.470  17.320  0.00  0.00    +0.000 C 
ATOM     19  C   UNL     1       3.585   4.338  19.512  0.00  0.00    +0.000 C 
ATOM     20  C   UNL     1       2.339   3.610  17.474  0.00  0.00    +0.000 C 
ENDBRANCH  15  17
ENDBRANCH   5  15
BRANCH   1  21
ATOM     21  C   UNL     1      -0.438  10.859  17.970  0.00  0.00    +0.000 C 
BRANCH  21  22
ATOM     22  C   UNL     1      -1.604  10.080  17.310  0.00  0.00    +0.000 C 
BRANCH  22  24
ATOM     23  C   UNL     1      -2.990  10.742  15.326  0.00  0.00    +0.000 C 
ATOM     24  C   UNL     1      -2.566  10.972  16.574  0.00  0.00    +0.000 C 
ENDBRANCH  22  24
ENDBRANCH  21  22
ENDBRANCH   1  21
TORSDOF 5
ENDMDL
