MODEL 1
REMARK VINA RESULT:      -8.0      0.000      0.000
REMARK  Name = 
REMARK  8 active torsions:
REMARK  status: ('A' for Active; 'I' for Inactive)
REMARK    1  A    between atoms: C_1  and  C_2
REMARK    2  A    between atoms: C_2  and  C_3
REMARK    3  A    between atoms: C_3  and  C_4
REMARK    4  A    between atoms: C_3  and  N_7
REMARK    5  A    between atoms: C_10  and  C_11
REMARK    6  A    between atoms: C_14  and  C_15
REMARK    7  A    between atoms: C_18  and  O_19
REMARK    8  A    between atoms: O_19  and  C_20
REMARK                            x       y       z     vdW  Elec       q    Type
REMARK                         _______ _______ _______ _____ _____    ______ ____
ROOT
ATOM      1  N   UNL     1       4.007   4.729  18.574  0.00  0.00    +0.000 N 
ATOM      2  C   UNL     1       3.510   3.928  19.590  0.00  0.00    +0.000 A 
ATOM      3  O   UNL     1       3.827   2.769  19.811  0.00  0.00    +0.000 OA
ATOM      4  C   UNL     1       2.501   4.584  20.521  0.00  0.00    +0.000 A 
ATOM      5  C   UNL     1       1.892   3.754  21.616  0.00  0.00    +0.000 C 
ATOM      6  N   UNL     1       2.145   5.826  20.416  0.00  0.00    +0.000 NA
ATOM      7  C   UNL     1       2.637   6.596  19.342  0.00  0.00    +0.000 A 
ATOM      8  C   UNL     1       2.198   7.939  19.182  0.00  0.00    +0.000 A 
ATOM      9  C   UNL     1       2.655   8.630  18.047  0.00  0.00    +0.000 A 
ATOM     10  C   UNL     1       3.533   8.018  17.175  0.00  0.00    +0.000 A 
ATOM     11  N   UNL     1       3.984   6.764  17.337  0.00  0.00    +0.000 NA
ATOM     12  C   UNL     1       3.541   6.060  18.404  0.00  0.00    +0.000 A 
ENDROOT
BRANCH   8  13
ATOM     13  C   UNL     1       1.276   8.599  20.158  0.00  0.00    +0.000 A 
ATOM     14  C   UNL     1       1.471   8.392  21.540  0.00  0.00    +0.000 A 
ATOM     15  C   UNL     1       0.711   9.052  22.510  0.00  0.00    +0.000 A 
ATOM     16  C   UNL     1      -0.323   9.899  22.138  0.00  0.00    +0.000 A 
ATOM     17  C   UNL     1      -0.584  10.086  20.784  0.00  0.00    +0.000 A 
ATOM     18  C   UNL     1       0.216   9.464  19.806  0.00  0.00    +0.000 A 
ATOM     19 CL   UNL     1      -0.165   9.886  18.166  0.00  0.00    +0.000 Cl
BRANCH  16  20
ATOM     20  O   UNL     1      -0.991  10.481  23.177  0.00  0.00    +0.000 OA
ATOM     21  C   UNL     1      -1.513  11.785  22.954  0.00  0.00    +0.000 C 
ENDBRANCH  16  20
ENDBRANCH   8  13
BRANCH   1  22
ATOM     22  C   UNL     1       5.109   4.260  17.718  0.00  0.00    +0.000 C 
BRANCH  22  23
ATOM     23  C   UNL     1       6.264   5.239  17.736  0.00  0.00    +0.000 C 
ATOM     24  C   UNL     1       7.043   5.498  19.006  0.00  0.00    +0.000 C 
ATOM     25  C   UNL     1       7.678   4.723  17.888  0.00  0.00    +0.000 C 
ENDBRANCH  22  23
BRANCH  22  27
ATOM     26  C   UNL     1       5.589   4.392  15.213  0.00  0.00    +0.000 C 
ATOM     27  C   UNL     1       4.602   3.963  16.289  0.00  0.00    +0.000 C 
ENDBRANCH  22  27
ENDBRANCH   1  22
TORSDOF 5
ENDMDL
MODEL 2
REMARK VINA RESULT:      -7.5      0.613      1.609
REMARK  Name = 
REMARK  8 active torsions:
REMARK  status: ('A' for Active; 'I' for Inactive)
REMARK    1  A    between atoms: C_1  and  C_2
REMARK    2  A    between atoms: C_2  and  C_3
REMARK    3  A    between atoms: C_3  and  C_4
REMARK    4  A    between atoms: C_3  and  N_7
REMARK    5  A    between atoms: C_10  and  C_11
REMARK    6  A    between atoms: C_14  and  C_15
REMARK    7  A    between atoms: C_18  and  O_19
REMARK    8  A    between atoms: O_19  and  C_20
REMARK                            x       y       z     vdW  Elec       q    Type
REMARK                         _______ _______ _______ _____ _____    ______ ____
ROOT
ATOM      1  N   UNL     1       4.067   5.397  18.424  0.00  0.00    +0.000 N 
ATOM      2  C   UNL     1       3.644   4.496  19.389  0.00  0.00    +0.000 A 
ATOM      3  O   UNL     1       4.060   3.357  19.537  0.00  0.00    +0.000 OA
ATOM      4  C   UNL     1       2.589   5.006  20.358  0.00  0.00    +0.000 A 
ATOM      5  C   UNL     1       2.057   4.062  21.399  0.00  0.00    +0.000 C 
ATOM      6  N   UNL     1       2.128   6.218  20.330  0.00  0.00    +0.000 NA
ATOM      7  C   UNL     1       2.548   7.091  19.306  0.00  0.00    +0.000 A 
ATOM      8  C   UNL     1       1.998   8.399  19.229  0.00  0.00    +0.000 A 
ATOM      9  C   UNL     1       2.389   9.195  18.139  0.00  0.00    +0.000 A 
ATOM     10  C   UNL     1       3.311   8.714  17.231  0.00  0.00    +0.000 A 
ATOM     11  N   UNL     1       3.867   7.495  17.315  0.00  0.00    +0.000 NA
ATOM     12  C   UNL     1       3.490   6.692  18.337  0.00  0.00    +0.000 A 
ENDROOT
BRANCH   8  13
ATOM     13  C   UNL     1       1.028   8.918  20.243  0.00  0.00    +0.000 A 
ATOM     14  C   UNL     1       1.282   8.700  21.615  0.00  0.00    +0.000 A 
ATOM     15  C   UNL     1       0.472   9.238  22.620  0.00  0.00    +0.000 A 
ATOM     16  C   UNL     1      -0.664   9.964  22.295  0.00  0.00    +0.000 A 
ATOM     17  C   UNL     1      -0.980  10.154  20.954  0.00  0.00    +0.000 A 
ATOM     18  C   UNL     1      -0.136   9.658  19.940  0.00  0.00    +0.000 A 
ATOM     19 CL   UNL     1      -0.607  10.074  18.322  0.00  0.00    +0.000 Cl
BRANCH  16  20
ATOM     20  O   UNL     1      -1.371  10.434  23.365  0.00  0.00    +0.000 OA
ATOM     21  C   UNL     1      -2.009  11.695  23.208  0.00  0.00    +0.000 C 
ENDBRANCH  16  20
ENDBRANCH   8  13
BRANCH   1  22
ATOM     22  C   UNL     1       5.201   5.077  17.541  0.00  0.00    +0.000 C 
BRANCH  22  23
ATOM     23  C   UNL     1       4.777   4.136  16.433  0.00  0.00    +0.000 C 
ATOM     24  C   UNL     1       4.920   4.534  14.980  0.00  0.00    +0.000 C 
ATOM     25  C   UNL     1       5.830   3.491  15.559  0.00  0.00    +0.000 C 
ENDBRANCH  22  23
BRANCH  22  27
ATOM     26  C   UNL     1       7.255   5.639  18.952  0.00  0.00    +0.000 C 
ATOM     27  C   UNL     1       6.394   4.533  18.360  0.00  0.00    +0.000 C 
ENDBRANCH  22  27
ENDBRANCH   1  22
TORSDOF 5
ENDMDL
MODEL 3
REMARK VINA RESULT:      -7.1      2.889      8.652
REMARK  Name = 
REMARK  8 active torsions:
REMARK  status: ('A' for Active; 'I' for Inactive)
REMARK    1  A    between atoms: C_1  and  C_2
REMARK    2  A    between atoms: C_2  and  C_3
REMARK    3  A    between atoms: C_3  and  C_4
REMARK    4  A    between atoms: C_3  and  N_7
REMARK    5  A    between atoms: C_10  and  C_11
REMARK    6  A    between atoms: C_14  and  C_15
REMARK    7  A    between atoms: C_18  and  O_19
REMARK    8  A    between atoms: O_19  and  C_20
REMARK                            x       y       z     vdW  Elec       q    Type
REMARK                         _______ _______ _______ _____ _____    ______ ____
ROOT
ATOM      1  N   UNL     1      -1.380  11.559  20.986  0.00  0.00    +0.000 N 
ATOM      2  C   UNL     1      -1.888  11.540  19.697  0.00  0.00    +0.000 A 
ATOM      3  O   UNL     1      -2.735  12.298  19.248  0.00  0.00    +0.000 OA
ATOM      4  C   UNL     1      -1.300  10.491  18.765  0.00  0.00    +0.000 A 
ATOM      5  C   UNL     1      -1.841  10.391  17.367  0.00  0.00    +0.000 C 
ATOM      6  N   UNL     1      -0.351   9.682  19.120  0.00  0.00    +0.000 NA
ATOM      7  C   UNL     1       0.108   9.700  20.452  0.00  0.00    +0.000 A 
ATOM      8  C   UNL     1       1.101   8.770  20.866  0.00  0.00    +0.000 A 
ATOM      9  C   UNL     1       1.458   8.778  22.225  0.00  0.00    +0.000 A 
ATOM     10  C   UNL     1       0.888   9.698  23.082  0.00  0.00    +0.000 A 
ATOM     11  N   UNL     1      -0.022  10.606  22.694  0.00  0.00    +0.000 NA
ATOM     12  C   UNL     1      -0.410  10.607  21.399  0.00  0.00    +0.000 A 
ENDROOT
BRANCH   8  13
ATOM     13  C   UNL     1       1.735   7.805  19.915  0.00  0.00    +0.000 A 
ATOM     14  C   UNL     1       1.766   6.433  20.243  0.00  0.00    +0.000 A 
ATOM     15  C   UNL     1       2.255   5.464  19.361  0.00  0.00    +0.000 A 
ATOM     16  C   UNL     1       2.796   5.834  18.139  0.00  0.00    +0.000 A 
ATOM     17  C   UNL     1       2.836   7.183  17.802  0.00  0.00    +0.000 A 
ATOM     18  C   UNL     1       2.295   8.155  18.666  0.00  0.00    +0.000 A 
ATOM     19 CL   UNL     1       2.319   9.779  18.054  0.00  0.00    +0.000 Cl
BRANCH  16  20
ATOM     20  O   UNL     1       3.241   4.796  17.370  0.00  0.00    +0.000 OA
ATOM     21  C   UNL     1       3.524   3.576  18.043  0.00  0.00    +0.000 C 
ENDBRANCH  16  20
ENDBRANCH   8  13
BRANCH   1  22
ATOM     22  C   UNL     1      -1.747  12.633  21.924  0.00  0.00    +0.000 C 
BRANCH  22  23
ATOM     23  C   UNL     1      -3.225  12.588  22.249  0.00  0.00    +0.000 C 
ATOM     24  C   UNL     1      -3.703  12.573  23.684  0.00  0.00    +0.000 C 
ATOM     25  C   UNL     1      -3.894  13.805  22.849  0.00  0.00    +0.000 C 
ENDBRANCH  22  23
BRANCH  22  27
ATOM     26  C   UNL     1       0.155  14.324  21.701  0.00  0.00    +0.000 C 
ATOM     27  C   UNL     1      -1.299  14.009  21.381  0.00  0.00    +0.000 C 
ENDBRANCH  22  27
ENDBRANCH   1  22
TORSDOF 5
ENDMDL
MODEL 4
REMARK VINA RESULT:      -7.1      2.801      7.449
REMARK  Name = 
REMARK  8 active torsions:
REMARK  status: ('A' for Active; 'I' for Inactive)
REMARK    1  A    between atoms: C_1  and  C_2
REMARK    2  A    between atoms: C_2  and  C_3
REMARK    3  A    between atoms: C_3  and  C_4
REMARK    4  A    between atoms: C_3  and  N_7
REMARK    5  A    between atoms: C_10  and  C_11
REMARK    6  A    between atoms: C_14  and  C_15
REMARK    7  A    between atoms: C_18  and  O_19
REMARK    8  A    between atoms: O_19  and  C_20
REMARK                            x       y       z     vdW  Elec       q    Type
REMARK                         _______ _______ _______ _____ _____    ______ ____
ROOT
ATOM      1  N   UNL     1       0.346  11.314  20.338  0.00  0.00    +0.000 N 
ATOM      2  C   UNL     1       0.053  11.005  21.656  0.00  0.00    +0.000 A 
ATOM      3  O   UNL     1      -0.518  11.733  22.454  0.00  0.00    +0.000 OA
ATOM      4  C   UNL     1       0.462   9.616  22.121  0.00  0.00    +0.000 A 
ATOM      5  C   UNL     1       0.211   9.237  23.554  0.00  0.00    +0.000 C 
ATOM      6  N   UNL     1       1.014   8.741  21.339  0.00  0.00    +0.000 NA
ATOM      7  C   UNL     1       1.339   9.107  20.017  0.00  0.00    +0.000 A 
ATOM      8  C   UNL     1       2.005   8.177  19.174  0.00  0.00    +0.000 A 
ATOM      9  C   UNL     1       2.379   8.625  17.896  0.00  0.00    +0.000 A 
ATOM     10  C   UNL     1       2.051   9.903  17.491  0.00  0.00    +0.000 A 
ATOM     11  N   UNL     1       1.389  10.778  18.265  0.00  0.00    +0.000 NA
ATOM     12  C   UNL     1       1.038  10.388  19.512  0.00  0.00    +0.000 A 
ENDROOT
BRANCH   8  13
ATOM     13  C   UNL     1       2.318   6.783  19.616  0.00  0.00    +0.000 A 
ATOM     14  C   UNL     1       1.440   6.126  20.505  0.00  0.00    +0.000 A 
ATOM     15  C   UNL     1       1.618   4.792  20.883  0.00  0.00    +0.000 A 
ATOM     16  C   UNL     1       2.720   4.075  20.440  0.00  0.00    +0.000 A 
ATOM     17  C   UNL     1       3.640   4.705  19.607  0.00  0.00    +0.000 A 
ATOM     18  C   UNL     1       3.434   6.031  19.181  0.00  0.00    +0.000 A 
ATOM     19 CL   UNL     1       4.609   6.635  18.056  0.00  0.00    +0.000 Cl
BRANCH  16  20
ATOM     20  O   UNL     1       2.782   2.784  20.881  0.00  0.00    +0.000 OA
ATOM     21  C   UNL     1       1.756   2.362  21.771  0.00  0.00    +0.000 C 
ENDBRANCH  16  20
ENDBRANCH   8  13
BRANCH   1  22
ATOM     22  C   UNL     1      -0.150  12.558  19.728  0.00  0.00    +0.000 C 
BRANCH  22  23
ATOM     23  C   UNL     1       0.531  13.768  20.333  0.00  0.00    +0.000 C 
ATOM     24  C   UNL     1       1.373  14.692  19.481  0.00  0.00    +0.000 C 
ATOM     25  C   UNL     1       0.037  15.155  19.984  0.00  0.00    +0.000 C 
ENDBRANCH  22  23
BRANCH  22  27
ATOM     26  C   UNL     1      -2.386  11.789  18.763  0.00  0.00    +0.000 C 
ATOM     27  C   UNL     1      -1.690  12.635  19.819  0.00  0.00    +0.000 C 
ENDBRANCH  22  27
ENDBRANCH   1  22
TORSDOF 5
ENDMDL
MODEL 5
REMARK VINA RESULT:      -7.1      2.899      8.625
REMARK  Name = 
REMARK  8 active torsions:
REMARK  status: ('A' for Active; 'I' for Inactive)
REMARK    1  A    between atoms: C_1  and  C_2
REMARK    2  A    between atoms: C_2  and  C_3
REMARK    3  A    between atoms: C_3  and  C_4
REMARK    4  A    between atoms: C_3  and  N_7
REMARK    5  A    between atoms: C_10  and  C_11
REMARK    6  A    between atoms: C_14  and  C_15
REMARK    7  A    between atoms: C_18  and  O_19
REMARK    8  A    between atoms: O_19  and  C_20
REMARK                            x       y       z     vdW  Elec       q    Type
REMARK                         _______ _______ _______ _____ _____    ______ ____
ROOT
ATOM      1  N   UNL     1      -1.124  11.411  20.764  0.00  0.00    +0.000 N 
ATOM      2  C   UNL     1      -1.625  11.443  19.473  0.00  0.00    +0.000 A 
ATOM      3  O   UNL     1      -2.477  12.212  19.053  0.00  0.00    +0.000 OA
ATOM      4  C   UNL     1      -1.021  10.443  18.499  0.00  0.00    +0.000 A 
ATOM      5  C   UNL     1      -1.554  10.399  17.095  0.00  0.00    +0.000 C 
ATOM      6  N   UNL     1      -0.065   9.628  18.823  0.00  0.00    +0.000 NA
ATOM      7  C   UNL     1       0.387   9.592  20.158  0.00  0.00    +0.000 A 
ATOM      8  C   UNL     1       1.387   8.655  20.535  0.00  0.00    +0.000 A 
ATOM      9  C   UNL     1       1.737   8.606  21.895  0.00  0.00    +0.000 A 
ATOM     10  C   UNL     1       1.153   9.482  22.789  0.00  0.00    +0.000 A 
ATOM     11  N   UNL     1       0.236  10.397  22.437  0.00  0.00    +0.000 NA
ATOM     12  C   UNL     1      -0.145  10.451  21.140  0.00  0.00    +0.000 A 
ENDROOT
BRANCH   8  13
ATOM     13  C   UNL     1       2.037   7.740  19.547  0.00  0.00    +0.000 A 
ATOM     14  C   UNL     1       2.688   8.290  18.422  0.00  0.00    +0.000 A 
ATOM     15  C   UNL     1       3.399   7.502  17.511  0.00  0.00    +0.000 A 
ATOM     16  C   UNL     1       3.433   6.122  17.648  0.00  0.00    +0.000 A 
ATOM     17  C   UNL     1       2.755   5.537  18.713  0.00  0.00    +0.000 A 
ATOM     18  C   UNL     1       2.084   6.332  19.662  0.00  0.00    +0.000 A 
ATOM     19 CL   UNL     1       1.385   5.461  20.990  0.00  0.00    +0.000 Cl
BRANCH  16  20
ATOM     20  O   UNL     1       4.157   5.467  16.694  0.00  0.00    +0.000 OA
ATOM     21  C   UNL     1       5.251   6.174  16.122  0.00  0.00    +0.000 C 
ENDBRANCH  16  20
ENDBRANCH   8  13
BRANCH   1  22
ATOM     22  C   UNL     1      -1.507  12.438  21.746  0.00  0.00    +0.000 C 
BRANCH  22  23
ATOM     23  C   UNL     1      -2.973  12.327  22.104  0.00  0.00    +0.000 C 
ATOM     24  C   UNL     1      -3.420  12.299  23.549  0.00  0.00    +0.000 C 
ATOM     25  C   UNL     1      -3.685  13.516  22.712  0.00  0.00    +0.000 C 
ENDBRANCH  22  23
BRANCH  22  27
ATOM     26  C   UNL     1       0.244  14.298  21.736  0.00  0.00    +0.000 C 
ATOM     27  C   UNL     1      -1.122  13.847  21.241  0.00  0.00    +0.000 C 
ENDBRANCH  22  27
ENDBRANCH   1  22
TORSDOF 5
ENDMDL
MODEL 6
REMARK VINA RESULT:      -7.0      5.197     11.060
REMARK  Name = 
REMARK  8 active torsions:
REMARK  status: ('A' for Active; 'I' for Inactive)
REMARK    1  A    between atoms: C_1  and  C_2
REMARK    2  A    between atoms: C_2  and  C_3
REMARK    3  A    between atoms: C_3  and  C_4
REMARK    4  A    between atoms: C_3  and  N_7
REMARK    5  A    between atoms: C_10  and  C_11
REMARK    6  A    between atoms: C_14  and  C_15
REMARK    7  A    between atoms: C_18  and  O_19
REMARK    8  A    between atoms: O_19  and  C_20
REMARK                            x       y       z     vdW  Elec       q    Type
REMARK                         _______ _______ _______ _____ _____    ______ ____
ROOT
ATOM      1  N   UNL     1      -4.977  13.459  21.473  0.00  0.00    +0.000 N 
ATOM      2  C   UNL     1      -5.464  13.030  20.249  0.00  0.00    +0.000 A 
ATOM      3  O   UNL     1      -6.607  13.174  19.841  0.00  0.00    +0.000 OA
ATOM      4  C   UNL     1      -4.458  12.347  19.334  0.00  0.00    +0.000 A 
ATOM      5  C   UNL     1      -4.936  11.820  18.011  0.00  0.00    +0.000 C 
ATOM      6  N   UNL     1      -3.207  12.203  19.642  0.00  0.00    +0.000 NA
ATOM      7  C   UNL     1      -2.758  12.610  20.914  0.00  0.00    +0.000 A 
ATOM      8  C   UNL     1      -1.403  12.394  21.284  0.00  0.00    +0.000 A 
ATOM      9  C   UNL     1      -1.033  12.742  22.594  0.00  0.00    +0.000 A 
ATOM     10  C   UNL     1      -1.960  13.317  23.442  0.00  0.00    +0.000 A 
ATOM     11  N   UNL     1      -3.232  13.562  23.090  0.00  0.00    +0.000 NA
ATOM     12  C   UNL     1      -3.629  13.212  21.845  0.00  0.00    +0.000 A 
ENDROOT
BRANCH   8  13
ATOM     13  C   UNL     1      -0.403  11.804  20.341  0.00  0.00    +0.000 A 
ATOM     14  C   UNL     1      -0.266  10.402  20.268  0.00  0.00    +0.000 A 
ATOM     15  C   UNL     1       0.577   9.779  19.343  0.00  0.00    +0.000 A 
ATOM     16  C   UNL     1       1.370  10.536  18.492  0.00  0.00    +0.000 A 
ATOM     17  C   UNL     1       1.306  11.924  18.572  0.00  0.00    +0.000 A 
ATOM     18  C   UNL     1       0.417  12.552  19.466  0.00  0.00    +0.000 A 
ATOM     19 CL   UNL     1       0.373  14.284  19.365  0.00  0.00    +0.000 Cl
BRANCH  16  20
ATOM     20  O   UNL     1       2.151   9.812  17.637  0.00  0.00    +0.000 OA
ATOM     21  C   UNL     1       2.251   8.415  17.888  0.00  0.00    +0.000 C 
ENDBRANCH  16  20
ENDBRANCH   8  13
BRANCH   1  22
ATOM     22  C   UNL     1      -5.810  14.279  22.368  0.00  0.00    +0.000 C 
BRANCH  22  23
ATOM     23  C   UNL     1      -7.021  13.506  22.843  0.00  0.00    +0.000 C 
ATOM     24  C   UNL     1      -6.965  12.671  24.103  0.00  0.00    +0.000 C 
ATOM     25  C   UNL     1      -7.748  13.951  24.093  0.00  0.00    +0.000 C 
ENDBRANCH  22  23
BRANCH  22  27
ATOM     26  C   UNL     1      -5.873  16.825  22.561  0.00  0.00    +0.000 C 
ATOM     27  C   UNL     1      -6.185  15.617  21.691  0.00  0.00    +0.000 C 
ENDBRANCH  22  27
ENDBRANCH   1  22
TORSDOF 5
ENDMDL
MODEL 7
REMARK VINA RESULT:      -6.8      2.858      8.491
REMARK  Name = 
REMARK  8 active torsions:
REMARK  status: ('A' for Active; 'I' for Inactive)
REMARK    1  A    between atoms: C_1  and  C_2
REMARK    2  A    between atoms: C_2  and  C_3
REMARK    3  A    between atoms: C_3  and  C_4
REMARK    4  A    between atoms: C_3  and  N_7
REMARK    5  A    between atoms: C_10  and  C_11
REMARK    6  A    between atoms: C_14  and  C_15
REMARK    7  A    between atoms: C_18  and  O_19
REMARK    8  A    between atoms: O_19  and  C_20
REMARK                            x       y       z     vdW  Elec       q    Type
REMARK                         _______ _______ _______ _____ _____    ______ ____
ROOT
ATOM      1  N   UNL     1      -1.144  11.347  20.737  0.00  0.00    +0.000 N 
ATOM      2  C   UNL     1      -1.652  11.360  19.448  0.00  0.00    +0.000 A 
ATOM      3  O   UNL     1      -2.516  12.113  19.025  0.00  0.00    +0.000 OA
ATOM      4  C   UNL     1      -1.040  10.358  18.481  0.00  0.00    +0.000 A 
ATOM      5  C   UNL     1      -1.579  10.293  17.080  0.00  0.00    +0.000 C 
ATOM      6  N   UNL     1      -0.073   9.559  18.809  0.00  0.00    +0.000 NA
ATOM      7  C   UNL     1       0.386   9.542  20.141  0.00  0.00    +0.000 A 
ATOM      8  C   UNL     1       1.400   8.622  20.523  0.00  0.00    +0.000 A 
ATOM      9  C   UNL     1       1.758   8.591  21.882  0.00  0.00    +0.000 A 
ATOM     10  C   UNL     1       1.167   9.468  22.770  0.00  0.00    +0.000 A 
ATOM     11  N   UNL     1       0.236  10.368  22.413  0.00  0.00    +0.000 NA
ATOM     12  C   UNL     1      -0.152  10.404  21.117  0.00  0.00    +0.000 A 
ENDROOT
BRANCH   8  13
ATOM     13  C   UNL     1       2.056   7.705  19.541  0.00  0.00    +0.000 A 
ATOM     14  C   UNL     1       2.737   8.253  18.433  0.00  0.00    +0.000 A 
ATOM     15  C   UNL     1       3.455   7.463  17.529  0.00  0.00    +0.000 A 
ATOM     16  C   UNL     1       3.467   6.082  17.658  0.00  0.00    +0.000 A 
ATOM     17  C   UNL     1       2.761   5.498  18.705  0.00  0.00    +0.000 A 
ATOM     18  C   UNL     1       2.083   6.296  19.647  0.00  0.00    +0.000 A 
ATOM     19 CL   UNL     1       1.347   5.425  20.955  0.00  0.00    +0.000 Cl
BRANCH  16  20
ATOM     20  O   UNL     1       4.201   5.424  16.713  0.00  0.00    +0.000 OA
ATOM     21  C   UNL     1       5.326   6.113  16.180  0.00  0.00    +0.000 C 
ENDBRANCH  16  20
ENDBRANCH   8  13
BRANCH   1  22
ATOM     22  C   UNL     1      -1.535  12.380  21.710  0.00  0.00    +0.000 C 
BRANCH  22  23
ATOM     23  C   UNL     1      -0.411  13.368  21.935  0.00  0.00    +0.000 C 
ATOM     24  C   UNL     1      -0.520  14.794  21.442  0.00  0.00    +0.000 C 
ATOM     25  C   UNL     1      -0.602  14.507  22.912  0.00  0.00    +0.000 C 
ENDBRANCH  22  23
BRANCH  22  27
ATOM     26  C   UNL     1      -3.367  12.292  23.489  0.00  0.00    +0.000 C 
ATOM     27  C   UNL     1      -2.030  11.733  23.024  0.00  0.00    +0.000 C 
ENDBRANCH  22  27
ENDBRANCH   1  22
TORSDOF 5
ENDMDL
MODEL 8
REMARK VINA RESULT:      -6.8      2.794      8.526
REMARK  Name = 
REMARK  8 active torsions:
REMARK  status: ('A' for Active; 'I' for Inactive)
REMARK    1  A    between atoms: C_1  and  C_2
REMARK    2  A    between atoms: C_2  and  C_3
REMARK    3  A    between atoms: C_3  and  C_4
REMARK    4  A    between atoms: C_3  and  N_7
REMARK    5  A    between atoms: C_10  and  C_11
REMARK    6  A    between atoms: C_14  and  C_15
REMARK    7  A    between atoms: C_18  and  O_19
REMARK    8  A    between atoms: O_19  and  C_20
REMARK                            x       y       z     vdW  Elec       q    Type
REMARK                         _______ _______ _______ _____ _____    ______ ____
ROOT
ATOM      1  N   UNL     1      -1.425  11.585  20.785  0.00  0.00    +0.000 N 
ATOM      2  C   UNL     1      -1.911  11.518  19.489  0.00  0.00    +0.000 A 
ATOM      3  O   UNL     1      -2.751  12.257  18.999  0.00  0.00    +0.000 OA
ATOM      4  C   UNL     1      -1.305  10.437  18.606  0.00  0.00    +0.000 A 
ATOM      5  C   UNL     1      -1.823  10.285  17.204  0.00  0.00    +0.000 C 
ATOM      6  N   UNL     1      -0.361   9.643  19.006  0.00  0.00    +0.000 NA
ATOM      7  C   UNL     1       0.075   9.711  20.345  0.00  0.00    +0.000 A 
ATOM      8  C   UNL     1       1.062   8.800  20.809  0.00  0.00    +0.000 A 
ATOM      9  C   UNL     1       1.397   8.857  22.172  0.00  0.00    +0.000 A 
ATOM     10  C   UNL     1       0.811   9.808  22.986  0.00  0.00    +0.000 A 
ATOM     11  N   UNL     1      -0.094  10.699  22.549  0.00  0.00    +0.000 NA
ATOM     12  C   UNL     1      -0.460  10.651  21.248  0.00  0.00    +0.000 A 
ENDROOT
BRANCH   8  13
ATOM     13  C   UNL     1       1.714   7.802  19.905  0.00  0.00    +0.000 A 
ATOM     14  C   UNL     1       1.731   6.441  20.278  0.00  0.00    +0.000 A 
ATOM     15  C   UNL     1       2.236   5.442  19.440  0.00  0.00    +0.000 A 
ATOM     16  C   UNL     1       2.807   5.769  18.219  0.00  0.00    +0.000 A 
ATOM     17  C   UNL     1       2.861   7.107  17.840  0.00  0.00    +0.000 A 
ATOM     18  C   UNL     1       2.304   8.109  18.658  0.00  0.00    +0.000 A 
ATOM     19 CL   UNL     1       2.350   9.712  17.994  0.00  0.00    +0.000 Cl
BRANCH  16  20
ATOM     20  O   UNL     1       3.265   4.706  17.495  0.00  0.00    +0.000 OA
ATOM     21  C   UNL     1       4.531   4.857  16.864  0.00  0.00    +0.000 C 
ENDBRANCH  16  20
ENDBRANCH   8  13
BRANCH   1  22
ATOM     22  C   UNL     1      -1.809  12.692  21.676  0.00  0.00    +0.000 C 
BRANCH  22  23
ATOM     23  C   UNL     1      -0.588  13.419  22.197  0.00  0.00    +0.000 C 
ATOM     24  C   UNL     1      -0.314  14.855  21.807  0.00  0.00    +0.000 C 
ATOM     25  C   UNL     1      -0.757  14.535  23.204  0.00  0.00    +0.000 C 
ENDBRANCH  22  23
BRANCH  22  27
ATOM     26  C   UNL     1      -4.146  12.730  22.706  0.00  0.00    +0.000 C 
ATOM     27  C   UNL     1      -2.729  12.186  22.810  0.00  0.00    +0.000 C 
ENDBRANCH  22  27
ENDBRANCH   1  22
TORSDOF 5
ENDMDL
MODEL 9
REMARK VINA RESULT:      -6.8      4.496      9.633
REMARK  Name = 
REMARK  8 active torsions:
REMARK  status: ('A' for Active; 'I' for Inactive)
REMARK    1  A    between atoms: C_1  and  C_2
REMARK    2  A    between atoms: C_2  and  C_3
REMARK    3  A    between atoms: C_3  and  C_4
REMARK    4  A    between atoms: C_3  and  N_7
REMARK    5  A    between atoms: C_10  and  C_11
REMARK    6  A    between atoms: C_14  and  C_15
REMARK    7  A    between atoms: C_18  and  O_19
REMARK    8  A    between atoms: O_19  and  C_20
REMARK                            x       y       z     vdW  Elec       q    Type
REMARK                         _______ _______ _______ _____ _____    ______ ____
ROOT
ATOM      1  N   UNL     1      -0.464  14.460  20.393  0.00  0.00    +0.000 N 
ATOM      2  C   UNL     1       0.864  14.707  20.705  0.00  0.00    +0.000 A 
ATOM      3  O   UNL     1       1.317  15.758  21.132  0.00  0.00    +0.000 OA
ATOM      4  C   UNL     1       1.819  13.538  20.520  0.00  0.00    +0.000 A 
ATOM      5  C   UNL     1       3.279  13.755  20.799  0.00  0.00    +0.000 C 
ATOM      6  N   UNL     1       1.432  12.361  20.136  0.00  0.00    +0.000 NA
ATOM      7  C   UNL     1       0.082  12.161  19.784  0.00  0.00    +0.000 A 
ATOM      8  C   UNL     1      -0.336  10.892  19.298  0.00  0.00    +0.000 A 
ATOM      9  C   UNL     1      -1.674  10.775  18.882  0.00  0.00    +0.000 A 
ATOM     10  C   UNL     1      -2.530  11.852  19.005  0.00  0.00    +0.000 A 
ATOM     11  N   UNL     1      -2.155  13.043  19.498  0.00  0.00    +0.000 NA
ATOM     12  C   UNL     1      -0.867  13.198  19.881  0.00  0.00    +0.000 A 
ENDROOT
BRANCH   8  13
ATOM     13  C   UNL     1       0.595   9.726  19.208  0.00  0.00    +0.000 A 
ATOM     14  C   UNL     1       1.194   9.415  17.968  0.00  0.00    +0.000 A 
ATOM     15  C   UNL     1       2.147   8.401  17.831  0.00  0.00    +0.000 A 
ATOM     16  C   UNL     1       2.494   7.609  18.916  0.00  0.00    +0.000 A 
ATOM     17  C   UNL     1       1.884   7.848  20.144  0.00  0.00    +0.000 A 
ATOM     18  C   UNL     1       0.965   8.903  20.296  0.00  0.00    +0.000 A 
ATOM     19 CL   UNL     1       0.379   9.142  21.912  0.00  0.00    +0.000 Cl
BRANCH  16  20
ATOM     20  O   UNL     1       3.434   6.654  18.653  0.00  0.00    +0.000 OA
ATOM     21  C   UNL     1       4.171   6.795  17.445  0.00  0.00    +0.000 C 
ENDBRANCH  16  20
ENDBRANCH   8  13
BRANCH   1  22
ATOM     22  C   UNL     1      -1.504  15.458  20.692  0.00  0.00    +0.000 C 
BRANCH  22  23
ATOM     23  C   UNL     1      -1.205  16.775  20.009  0.00  0.00    +0.000 C 
ATOM     24  C   UNL     1      -2.317  17.615  19.421  0.00  0.00    +0.000 C 
ATOM     25  C   UNL     1      -1.622  18.070  20.670  0.00  0.00    +0.000 C 
ENDBRANCH  22  23
BRANCH  22  27
ATOM     26  C   UNL     1      -3.114  15.292  22.668  0.00  0.00    +0.000 C 
ATOM     27  C   UNL     1      -1.695  15.608  22.218  0.00  0.00    +0.000 C 
ENDBRANCH  22  27
ENDBRANCH   1  22
TORSDOF 5
ENDMDL
