MODEL 1
REMARK VINA RESULT:      -6.5      0.000      0.000
REMARK  Name = 
REMARK  5 active torsions:
REMARK  status: ('A' for Active; 'I' for Inactive)
REMARK    1  A    between atoms: C_1  and  O_2
REMARK    2  A    between atoms: O_2  and  C_3
REMARK    3  A    between atoms: C_6  and  C_7
REMARK    4  A    between atoms: C_7  and  N_8
REMARK    5  A    between atoms: N_11  and  C_12
REMARK                            x       y       z     vdW  Elec       q    Type
REMARK                         _______ _______ _______ _____ _____    ______ ____
ROOT
ATOM      1  N   UNL     1       4.903   4.878  18.728  0.00  0.00    +0.000 N 
ATOM      2  C   UNL     1       4.489   3.840  19.577  0.00  0.00    +0.000 A 
ATOM      3  O   UNL     1       5.254   2.922  19.887  0.00  0.00    +0.000 OA
ATOM      4  N   UNL     1       3.177   3.892  20.065  0.00  0.00    +0.000 N 
ATOM      5  C   UNL     1       2.703   2.799  20.893  0.00  0.00    +0.000 C 
ATOM      6  C   UNL     1       2.267   4.931  19.844  0.00  0.00    +0.000 A 
ATOM      7  O   UNL     1       1.137   4.933  20.331  0.00  0.00    +0.000 OA
ATOM      8  C   UNL     1       2.790   5.976  19.011  0.00  0.00    +0.000 A 
ATOM      9  S   UNL     1       1.899   7.360  18.595  0.00  0.00    +0.000 S 
ATOM     10  C   UNL     1       3.204   7.978  17.676  0.00  0.00    +0.000 A 
ATOM     11  C   UNL     1       4.295   7.132  17.700  0.00  0.00    +0.000 A 
ATOM     12  C   UNL     1       4.049   5.956  18.471  0.00  0.00    +0.000 A 
ENDROOT
BRANCH   1  13
ATOM     13  C   UNL     1       6.240   4.778  18.141  0.00  0.00    +0.000 C 
BRANCH  13  17
ATOM     14  C   UNL     1       6.227   3.982  13.879  0.00  0.00    +0.000 A 
ATOM     15  C   UNL     1       7.165   4.853  14.431  0.00  0.00    +0.000 A 
ATOM     16  C   UNL     1       7.168   5.119  15.802  0.00  0.00    +0.000 A 
ATOM     17  C   UNL     1       6.220   4.527  16.647  0.00  0.00    +0.000 A 
ATOM     18  C   UNL     1       5.250   3.690  16.074  0.00  0.00    +0.000 A 
ATOM     19  C   UNL     1       5.255   3.414  14.701  0.00  0.00    +0.000 A 
BRANCH  14  21
ATOM     20  C   UNL     1       5.179   3.259  11.891  0.00  0.00    +0.000 C 
ATOM     21  O   UNL     1       6.337   3.786  12.529  0.00  0.00    +0.000 OA
ENDBRANCH  14  21
ENDBRANCH  13  17
ENDBRANCH   1  13
TORSDOF 3
ENDMDL
MODEL 2
REMARK VINA RESULT:      -6.5      0.251      1.079
REMARK  Name = 
REMARK  5 active torsions:
REMARK  status: ('A' for Active; 'I' for Inactive)
REMARK    1  A    between atoms: C_1  and  O_2
REMARK    2  A    between atoms: O_2  and  C_3
REMARK    3  A    between atoms: C_6  and  C_7
REMARK    4  A    between atoms: C_7  and  N_8
REMARK    5  A    between atoms: N_11  and  C_12
REMARK                            x       y       z     vdW  Elec       q    Type
REMARK                         _______ _______ _______ _____ _____    ______ ____
ROOT
ATOM      1  N   UNL     1       5.005   4.768  18.641  0.00  0.00    +0.000 N 
ATOM      2  C   UNL     1       4.539   3.737  19.472  0.00  0.00    +0.000 A 
ATOM      3  O   UNL     1       5.267   2.793  19.791  0.00  0.00    +0.000 OA
ATOM      4  N   UNL     1       3.219   3.828  19.932  0.00  0.00    +0.000 N 
ATOM      5  C   UNL     1       2.691   2.745  20.740  0.00  0.00    +0.000 C 
ATOM      6  C   UNL     1       2.348   4.899  19.700  0.00  0.00    +0.000 A 
ATOM      7  O   UNL     1       1.208   4.934  20.163  0.00  0.00    +0.000 OA
ATOM      8  C   UNL     1       2.923   5.932  18.888  0.00  0.00    +0.000 A 
ATOM      9  S   UNL     1       2.087   7.349  18.466  0.00  0.00    +0.000 S 
ATOM     10  C   UNL     1       3.431   7.931  17.581  0.00  0.00    +0.000 A 
ATOM     11  C   UNL     1       4.493   7.050  17.621  0.00  0.00    +0.000 A 
ATOM     12  C   UNL     1       4.193   5.876  18.376  0.00  0.00    +0.000 A 
ENDROOT
BRANCH   1  13
ATOM     13  C   UNL     1       6.350   4.629  18.083  0.00  0.00    +0.000 C 
BRANCH  13  17
ATOM     14  C   UNL     1       6.334   4.203  13.768  0.00  0.00    +0.000 A 
ATOM     15  C   UNL     1       5.380   3.547  14.545  0.00  0.00    +0.000 A 
ATOM     16  C   UNL     1       5.386   3.675  15.936  0.00  0.00    +0.000 A 
ATOM     17  C   UNL     1       6.359   4.452  16.578  0.00  0.00    +0.000 A 
ATOM     18  C   UNL     1       7.344   5.068  15.790  0.00  0.00    +0.000 A 
ATOM     19  C   UNL     1       7.329   4.949  14.394  0.00  0.00    +0.000 A 
BRANCH  14  21
ATOM     20  C   UNL     1       5.675   2.761  12.019  0.00  0.00    +0.000 C 
ATOM     21  O   UNL     1       6.213   4.016  12.418  0.00  0.00    +0.000 OA
ENDBRANCH  14  21
ENDBRANCH  13  17
ENDBRANCH   1  13
TORSDOF 3
ENDMDL
MODEL 3
REMARK VINA RESULT:      -6.5      3.101      6.230
REMARK  Name = 
REMARK  5 active torsions:
REMARK  status: ('A' for Active; 'I' for Inactive)
REMARK    1  A    between atoms: C_1  and  O_2
REMARK    2  A    between atoms: O_2  and  C_3
REMARK    3  A    between atoms: C_6  and  C_7
REMARK    4  A    between atoms: C_7  and  N_8
REMARK    5  A    between atoms: N_11  and  C_12
REMARK                            x       y       z     vdW  Elec       q    Type
REMARK                         _______ _______ _______ _____ _____    ______ ____
ROOT
ATOM      1  N   UNL     1       2.772   5.454  19.270  0.00  0.00    +0.000 N 
ATOM      2  C   UNL     1       1.729   4.541  19.490  0.00  0.00    +0.000 A 
ATOM      3  O   UNL     1       0.861   4.754  20.342  0.00  0.00    +0.000 OA
ATOM      4  N   UNL     1       1.707   3.385  18.700  0.00  0.00    +0.000 N 
ATOM      5  C   UNL     1       0.677   2.394  18.950  0.00  0.00    +0.000 C 
ATOM      6  C   UNL     1       2.591   3.098  17.654  0.00  0.00    +0.000 A 
ATOM      7  O   UNL     1       2.498   2.077  16.973  0.00  0.00    +0.000 OA
ATOM      8  C   UNL     1       3.591   4.109  17.462  0.00  0.00    +0.000 A 
ATOM      9  S   UNL     1       4.780   4.016  16.253  0.00  0.00    +0.000 S 
ATOM     10  C   UNL     1       5.453   5.513  16.737  0.00  0.00    +0.000 A 
ATOM     11  C   UNL     1       4.767   6.063  17.802  0.00  0.00    +0.000 A 
ATOM     12  C   UNL     1       3.686   5.237  18.233  0.00  0.00    +0.000 A 
ENDROOT
BRANCH   1  13
ATOM     13  C   UNL     1       2.851   6.615  20.157  0.00  0.00    +0.000 C 
BRANCH  13  17
ATOM     14  C   UNL     1       0.528  10.021  18.813  0.00  0.00    +0.000 A 
ATOM     15  C   UNL     1       0.430   9.576  20.131  0.00  0.00    +0.000 A 
ATOM     16  C   UNL     1       1.170   8.474  20.566  0.00  0.00    +0.000 A 
ATOM     17  C   UNL     1       2.014   7.787  19.684  0.00  0.00    +0.000 A 
ATOM     18  C   UNL     1       2.068   8.213  18.348  0.00  0.00    +0.000 A 
ATOM     19  C   UNL     1       1.335   9.325  17.915  0.00  0.00    +0.000 A 
BRANCH  14  21
ATOM     20  C   UNL     1      -1.579  10.850  18.145  0.00  0.00    +0.000 C 
ATOM     21  O   UNL     1      -0.230  11.119  18.511  0.00  0.00    +0.000 OA
ENDBRANCH  14  21
ENDBRANCH  13  17
ENDBRANCH   1  13
TORSDOF 3
ENDMDL
MODEL 4
REMARK VINA RESULT:      -6.4      3.099      6.180
REMARK  Name = 
REMARK  5 active torsions:
REMARK  status: ('A' for Active; 'I' for Inactive)
REMARK    1  A    between atoms: C_1  and  O_2
REMARK    2  A    between atoms: O_2  and  C_3
REMARK    3  A    between atoms: C_6  and  C_7
REMARK    4  A    between atoms: C_7  and  N_8
REMARK    5  A    between atoms: N_11  and  C_12
REMARK                            x       y       z     vdW  Elec       q    Type
REMARK                         _______ _______ _______ _____ _____    ______ ____
ROOT
ATOM      1  N   UNL     1       2.782   5.503  19.278  0.00  0.00    +0.000 N 
ATOM      2  C   UNL     1       1.747   4.582  19.505  0.00  0.00    +0.000 A 
ATOM      3  O   UNL     1       0.890   4.783  20.370  0.00  0.00    +0.000 OA
ATOM      4  N   UNL     1       1.722   3.432  18.707  0.00  0.00    +0.000 N 
ATOM      5  C   UNL     1       0.702   2.433  18.964  0.00  0.00    +0.000 C 
ATOM      6  C   UNL     1       2.594   3.157  17.647  0.00  0.00    +0.000 A 
ATOM      7  O   UNL     1       2.497   2.141  16.960  0.00  0.00    +0.000 OA
ATOM      8  C   UNL     1       3.585   4.176  17.449  0.00  0.00    +0.000 A 
ATOM      9  S   UNL     1       4.758   4.099  16.224  0.00  0.00    +0.000 S 
ATOM     10  C   UNL     1       5.428   5.596  16.710  0.00  0.00    +0.000 A 
ATOM     11  C   UNL     1       4.754   6.135  17.787  0.00  0.00    +0.000 A 
ATOM     12  C   UNL     1       3.684   5.300  18.227  0.00  0.00    +0.000 A 
ENDROOT
BRANCH   1  13
ATOM     13  C   UNL     1       2.866   6.659  20.172  0.00  0.00    +0.000 C 
BRANCH  13  17
ATOM     14  C   UNL     1       0.342   9.940  18.884  0.00  0.00    +0.000 A 
ATOM     15  C   UNL     1       1.215   9.327  17.986  0.00  0.00    +0.000 A 
ATOM     16  C   UNL     1       2.036   8.275  18.398  0.00  0.00    +0.000 A 
ATOM     17  C   UNL     1       2.009   7.825  19.724  0.00  0.00    +0.000 A 
ATOM     18  C   UNL     1       1.163   8.481  20.632  0.00  0.00    +0.000 A 
ATOM     19  C   UNL     1       0.330   9.528  20.215  0.00  0.00    +0.000 A 
BRANCH  14  21
ATOM     20  C   UNL     1      -1.647  10.533  17.757  0.00  0.00    +0.000 C 
ATOM     21  O   UNL     1      -0.424  10.945  18.359  0.00  0.00    +0.000 OA
ENDBRANCH  14  21
ENDBRANCH  13  17
ENDBRANCH   1  13
TORSDOF 3
ENDMDL
MODEL 5
REMARK VINA RESULT:      -6.2      1.747      2.827
REMARK  Name = 
REMARK  5 active torsions:
REMARK  status: ('A' for Active; 'I' for Inactive)
REMARK    1  A    between atoms: C_1  and  O_2
REMARK    2  A    between atoms: O_2  and  C_3
REMARK    3  A    between atoms: C_6  and  C_7
REMARK    4  A    between atoms: C_7  and  N_8
REMARK    5  A    between atoms: N_11  and  C_12
REMARK                            x       y       z     vdW  Elec       q    Type
REMARK                         _______ _______ _______ _____ _____    ______ ____
ROOT
ATOM      1  N   UNL     1       4.888   5.218  18.594  0.00  0.00    +0.000 N 
ATOM      2  C   UNL     1       4.180   6.409  18.364  0.00  0.00    +0.000 A 
ATOM      3  O   UNL     1       4.626   7.285  17.617  0.00  0.00    +0.000 OA
ATOM      4  N   UNL     1       2.945   6.558  19.006  0.00  0.00    +0.000 N 
ATOM      5  C   UNL     1       2.222   7.804  18.837  0.00  0.00    +0.000 C 
ATOM      6  C   UNL     1       2.316   5.589  19.797  0.00  0.00    +0.000 A 
ATOM      7  O   UNL     1       1.211   5.770  20.307  0.00  0.00    +0.000 OA
ATOM      8  C   UNL     1       3.084   4.384  19.935  0.00  0.00    +0.000 A 
ATOM      9  S   UNL     1       2.548   3.045  20.830  0.00  0.00    +0.000 S 
ATOM     10  C   UNL     1       3.973   2.172  20.461  0.00  0.00    +0.000 A 
ATOM     11  C   UNL     1       4.830   2.903  19.663  0.00  0.00    +0.000 A 
ATOM     12  C   UNL     1       4.316   4.200  19.365  0.00  0.00    +0.000 A 
ENDROOT
BRANCH   1  13
ATOM     13  C   UNL     1       6.220   5.099  18.000  0.00  0.00    +0.000 C 
BRANCH  13  17
ATOM     14  C   UNL     1       6.165   3.991  13.808  0.00  0.00    +0.000 A 
ATOM     15  C   UNL     1       7.180   4.804  14.309  0.00  0.00    +0.000 A 
ATOM     16  C   UNL     1       7.198   5.171  15.657  0.00  0.00    +0.000 A 
ATOM     17  C   UNL     1       6.189   4.740  16.528  0.00  0.00    +0.000 A 
ATOM     18  C   UNL     1       5.145   3.962  16.003  0.00  0.00    +0.000 A 
ATOM     19  C   UNL     1       5.134   3.585  14.654  0.00  0.00    +0.000 A 
BRANCH  14  21
ATOM     20  C   UNL     1       5.083   3.168  11.877  0.00  0.00    +0.000 C 
ATOM     21  O   UNL     1       6.266   3.685  12.478  0.00  0.00    +0.000 OA
ENDBRANCH  14  21
ENDBRANCH  13  17
ENDBRANCH   1  13
TORSDOF 3
ENDMDL
MODEL 6
REMARK VINA RESULT:      -6.1      1.717      3.022
REMARK  Name = 
REMARK  5 active torsions:
REMARK  status: ('A' for Active; 'I' for Inactive)
REMARK    1  A    between atoms: C_1  and  O_2
REMARK    2  A    between atoms: O_2  and  C_3
REMARK    3  A    between atoms: C_6  and  C_7
REMARK    4  A    between atoms: C_7  and  N_8
REMARK    5  A    between atoms: N_11  and  C_12
REMARK                            x       y       z     vdW  Elec       q    Type
REMARK                         _______ _______ _______ _____ _____    ______ ____
ROOT
ATOM      1  N   UNL     1       5.028   5.038  18.464  0.00  0.00    +0.000 N 
ATOM      2  C   UNL     1       4.383   6.247  18.157  0.00  0.00    +0.000 A 
ATOM      3  O   UNL     1       4.883   7.059  17.373  0.00  0.00    +0.000 OA
ATOM      4  N   UNL     1       3.145   6.489  18.768  0.00  0.00    +0.000 N 
ATOM      5  C   UNL     1       2.487   7.757  18.518  0.00  0.00    +0.000 C 
ATOM      6  C   UNL     1       2.458   5.595  19.597  0.00  0.00    +0.000 A 
ATOM      7  O   UNL     1       1.355   5.856  20.076  0.00  0.00    +0.000 OA
ATOM      8  C   UNL     1       3.164   4.365  19.813  0.00  0.00    +0.000 A 
ATOM      9  S   UNL     1       2.549   3.103  20.768  0.00  0.00    +0.000 S 
ATOM     10  C   UNL     1       3.936   2.144  20.473  0.00  0.00    +0.000 A 
ATOM     11  C   UNL     1       4.841   2.789  19.654  0.00  0.00    +0.000 A 
ATOM     12  C   UNL     1       4.395   4.092  19.277  0.00  0.00    +0.000 A 
ENDROOT
BRANCH   1  13
ATOM     13  C   UNL     1       6.362   4.824  17.902  0.00  0.00    +0.000 C 
BRANCH  13  17
ATOM     14  C   UNL     1       6.276   4.093  13.629  0.00  0.00    +0.000 A 
ATOM     15  C   UNL     1       5.329   3.502  14.465  0.00  0.00    +0.000 A 
ATOM     16  C   UNL     1       5.358   3.728  15.843  0.00  0.00    +0.000 A 
ATOM     17  C   UNL     1       6.346   4.540  16.413  0.00  0.00    +0.000 A 
ATOM     18  C   UNL     1       7.324   5.090  15.570  0.00  0.00    +0.000 A 
ATOM     19  C   UNL     1       7.287   4.873  14.186  0.00  0.00    +0.000 A 
BRANCH  14  21
ATOM     20  C   UNL     1       4.900   3.208  11.927  0.00  0.00    +0.000 C 
ATOM     21  O   UNL     1       6.134   3.812  12.297  0.00  0.00    +0.000 OA
ENDBRANCH  14  21
ENDBRANCH  13  17
ENDBRANCH   1  13
TORSDOF 3
ENDMDL
MODEL 7
REMARK VINA RESULT:      -6.1      3.220      6.622
REMARK  Name = 
REMARK  5 active torsions:
REMARK  status: ('A' for Active; 'I' for Inactive)
REMARK    1  A    between atoms: C_1  and  O_2
REMARK    2  A    between atoms: O_2  and  C_3
REMARK    3  A    between atoms: C_6  and  C_7
REMARK    4  A    between atoms: C_7  and  N_8
REMARK    5  A    between atoms: N_11  and  C_12
REMARK                            x       y       z     vdW  Elec       q    Type
REMARK                         _______ _______ _______ _____ _____    ______ ____
ROOT
ATOM      1  N   UNL     1       3.150   5.941  18.159  0.00  0.00    +0.000 N 
ATOM      2  C   UNL     1       2.486   4.821  18.683  0.00  0.00    +0.000 A 
ATOM      3  O   UNL     1       1.254   4.740  18.665  0.00  0.00    +0.000 OA
ATOM      4  N   UNL     1       3.276   3.796  19.219  0.00  0.00    +0.000 N 
ATOM      5  C   UNL     1       2.614   2.657  19.825  0.00  0.00    +0.000 C 
ATOM      6  C   UNL     1       4.675   3.755  19.206  0.00  0.00    +0.000 A 
ATOM      7  O   UNL     1       5.311   2.807  19.664  0.00  0.00    +0.000 OA
ATOM      8  C   UNL     1       5.270   4.913  18.603  0.00  0.00    +0.000 A 
ATOM      9  S   UNL     1       6.949   5.113  18.446  0.00  0.00    +0.000 S 
ATOM     10  C   UNL     1       6.742   6.631  17.684  0.00  0.00    +0.000 A 
ATOM     11  C   UNL     1       5.408   6.963  17.555  0.00  0.00    +0.000 A 
ATOM     12  C   UNL     1       4.548   5.964  18.102  0.00  0.00    +0.000 A 
ENDROOT
BRANCH   1  13
ATOM     13  C   UNL     1       2.327   7.054  17.685  0.00  0.00    +0.000 C 
BRANCH  13  17
ATOM     14  C   UNL     1       1.054   9.708  20.869  0.00  0.00    +0.000 A 
ATOM     15  C   UNL     1       1.508   8.422  21.161  0.00  0.00    +0.000 A 
ATOM     16  C   UNL     1       1.911   7.560  20.138  0.00  0.00    +0.000 A 
ATOM     17  C   UNL     1       1.854   7.966  18.799  0.00  0.00    +0.000 A 
ATOM     18  C   UNL     1       1.350   9.244  18.512  0.00  0.00    +0.000 A 
ATOM     19  C   UNL     1       0.957  10.112  19.539  0.00  0.00    +0.000 A 
BRANCH  14  21
ATOM     20  C   UNL     1      -0.217   9.857  22.853  0.00  0.00    +0.000 C 
ATOM     21  O   UNL     1       0.706  10.464  21.955  0.00  0.00    +0.000 OA
ENDBRANCH  14  21
ENDBRANCH  13  17
ENDBRANCH   1  13
TORSDOF 3
ENDMDL
MODEL 8
REMARK VINA RESULT:      -6.1      3.194      6.618
REMARK  Name = 
REMARK  5 active torsions:
REMARK  status: ('A' for Active; 'I' for Inactive)
REMARK    1  A    between atoms: C_1  and  O_2
REMARK    2  A    between atoms: O_2  and  C_3
REMARK    3  A    between atoms: C_6  and  C_7
REMARK    4  A    between atoms: C_7  and  N_8
REMARK    5  A    between atoms: N_11  and  C_12
REMARK                            x       y       z     vdW  Elec       q    Type
REMARK                         _______ _______ _______ _____ _____    ______ ____
ROOT
ATOM      1  N   UNL     1       3.076   5.889  18.213  0.00  0.00    +0.000 N 
ATOM      2  C   UNL     1       2.440   4.767  18.768  0.00  0.00    +0.000 A 
ATOM      3  O   UNL     1       1.209   4.677  18.794  0.00  0.00    +0.000 OA
ATOM      4  N   UNL     1       3.257   3.752  19.280  0.00  0.00    +0.000 N 
ATOM      5  C   UNL     1       2.626   2.611  19.916  0.00  0.00    +0.000 C 
ATOM      6  C   UNL     1       4.654   3.722  19.217  0.00  0.00    +0.000 A 
ATOM      7  O   UNL     1       5.314   2.781  19.658  0.00  0.00    +0.000 OA
ATOM      8  C   UNL     1       5.219   4.881  18.587  0.00  0.00    +0.000 A 
ATOM      9  S   UNL     1       6.889   5.093  18.369  0.00  0.00    +0.000 S 
ATOM     10  C   UNL     1       6.643   6.605  17.606  0.00  0.00    +0.000 A 
ATOM     11  C   UNL     1       5.303   6.925  17.523  0.00  0.00    +0.000 A 
ATOM     12  C   UNL     1       4.470   5.923  18.107  0.00  0.00    +0.000 A 
ENDROOT
BRANCH   1  13
ATOM     13  C   UNL     1       2.227   6.993  17.762  0.00  0.00    +0.000 C 
BRANCH  13  17
ATOM     14  C   UNL     1       1.048   9.682  20.952  0.00  0.00    +0.000 A 
ATOM     15  C   UNL     1       1.037  10.113  19.626  0.00  0.00    +0.000 A 
ATOM     16  C   UNL     1       1.424   9.253  18.596  0.00  0.00    +0.000 A 
ATOM     17  C   UNL     1       1.843   7.947  18.876  0.00  0.00    +0.000 A 
ATOM     18  C   UNL     1       1.898   7.539  20.218  0.00  0.00    +0.000 A 
ATOM     19  C   UNL     1       1.498   8.398  21.250  0.00  0.00    +0.000 A 
BRANCH  14  21
ATOM     20  C   UNL     1      -0.432  10.192  22.720  0.00  0.00    +0.000 C 
ATOM     21  O   UNL     1       0.631  10.608  21.870  0.00  0.00    +0.000 OA
ENDBRANCH  14  21
ENDBRANCH  13  17
ENDBRANCH   1  13
TORSDOF 3
ENDMDL
MODEL 9
REMARK VINA RESULT:      -6.1      2.557      3.757
REMARK  Name = 
REMARK  5 active torsions:
REMARK  status: ('A' for Active; 'I' for Inactive)
REMARK    1  A    between atoms: C_1  and  O_2
REMARK    2  A    between atoms: O_2  and  C_3
REMARK    3  A    between atoms: C_6  and  C_7
REMARK    4  A    between atoms: C_7  and  N_8
REMARK    5  A    between atoms: N_11  and  C_12
REMARK                            x       y       z     vdW  Elec       q    Type
REMARK                         _______ _______ _______ _____ _____    ______ ____
ROOT
ATOM      1  N   UNL     1       3.553   4.545  17.967  0.00  0.00    +0.000 N 
ATOM      2  C   UNL     1       3.328   3.181  18.213  0.00  0.00    +0.000 A 
ATOM      3  O   UNL     1       3.952   2.309  17.601  0.00  0.00    +0.000 OA
ATOM      4  N   UNL     1       2.377   2.850  19.185  0.00  0.00    +0.000 N 
ATOM      5  C   UNL     1       2.079   1.448  19.414  0.00  0.00    +0.000 C 
ATOM      6  C   UNL     1       1.685   3.761  19.991  0.00  0.00    +0.000 A 
ATOM      7  O   UNL     1       0.884   3.403  20.854  0.00  0.00    +0.000 OA
ATOM      8  C   UNL     1       2.015   5.129  19.711  0.00  0.00    +0.000 A 
ATOM      9  S   UNL     1       1.330   6.435  20.553  0.00  0.00    +0.000 S 
ATOM     10  C   UNL     1       2.231   7.560  19.630  0.00  0.00    +0.000 A 
ATOM     11  C   UNL     1       3.040   6.933  18.703  0.00  0.00    +0.000 A 
ATOM     12  C   UNL     1       2.905   5.512  18.743  0.00  0.00    +0.000 A 
ENDROOT
BRANCH   1  13
ATOM     13  C   UNL     1       4.476   4.893  16.887  0.00  0.00    +0.000 C 
BRANCH  13  17
ATOM     14  C   UNL     1       7.818   7.270  18.296  0.00  0.00    +0.000 A 
ATOM     15  C   UNL     1       7.016   7.730  17.252  0.00  0.00    +0.000 A 
ATOM     16  C   UNL     1       5.944   6.964  16.789  0.00  0.00    +0.000 A 
ATOM     17  C   UNL     1       5.662   5.714  17.355  0.00  0.00    +0.000 A 
ATOM     18  C   UNL     1       6.504   5.239  18.372  0.00  0.00    +0.000 A 
ATOM     19  C   UNL     1       7.572   6.013  18.844  0.00  0.00    +0.000 A 
BRANCH  14  21
ATOM     20  C   UNL     1       8.618   9.491  18.365  0.00  0.00    +0.000 C 
ATOM     21  O   UNL     1       8.825   8.116  18.674  0.00  0.00    +0.000 OA
ENDBRANCH  14  21
ENDBRANCH  13  17
ENDBRANCH   1  13
TORSDOF 3
ENDMDL
