MODEL 1
REMARK VINA RESULT:      -7.8      0.000      0.000
REMARK  Name = 
REMARK  2 active torsions:
REMARK  status: ('A' for Active; 'I' for Inactive)
REMARK    1  A    between atoms: C_1  and  C_2
REMARK    2  A    between atoms: C_3  and  C_4
REMARK                            x       y       z     vdW  Elec       q    Type
REMARK                         _______ _______ _______ _____ _____    ______ ____
ROOT
ATOM      1  C   UNL     1       5.765  15.453  20.202  0.00  0.00    +0.000 C 
ATOM      2  C   UNL     1       4.352  15.162  19.786  0.00  0.00    +0.000 C 
ATOM      3  C   UNL     1       3.361  15.503  20.635  0.00  0.00    +0.000 C 
ATOM      4  C   UNL     1       3.344  14.738  21.947  0.00  0.00    +0.000 C 
ATOM      5  C   UNL     1       2.033  15.810  20.017  0.00  0.00    +0.000 C 
ATOM      6  C   UNL     1       1.634  14.505  19.418  0.00  0.00    +0.000 C 
ATOM      7  C   UNL     1       0.246  14.466  18.923  0.00  0.00    +0.000 C 
ATOM      8  O   UNL     1      -0.464  15.411  18.649  0.00  0.00    +0.000 OA
ATOM      9  C   UNL     1      -0.185  13.084  18.801  0.00  0.00    +0.000 C 
ATOM     10  C   UNL     1       0.618  12.113  18.303  0.00  0.00    +0.000 C 
ATOM     11  C   UNL     1       2.114  12.452  18.159  0.00  0.00    +0.000 C 
ATOM     12  O   UNL     1       2.936  11.554  18.004  0.00  0.00    +0.000 OA
ATOM     13  C   UNL     1       2.517  13.981  18.281  0.00  0.00    +0.000 C 
ATOM     14  C   UNL     1       4.014  14.460  18.463  0.00  0.00    +0.000 C 
ATOM     15  C   UNL     1      -0.023  10.687  18.471  0.00  0.00    +0.000 C 
ATOM     16  C   UNL     1      -1.594  10.753  18.206  0.00  0.00    +0.000 A 
ATOM     17  C   UNL     1      -2.433   9.727  17.793  0.00  0.00    +0.000 A 
ATOM     18  C   UNL     1      -3.830   9.930  17.825  0.00  0.00    +0.000 A 
ATOM     19  C   UNL     1      -4.394  11.152  18.229  0.00  0.00    +0.000 A 
ATOM     20  C   UNL     1      -3.581  12.144  18.748  0.00  0.00    +0.000 A 
ATOM     21  C   UNL     1      -2.222  11.881  18.821  0.00  0.00    +0.000 A 
ATOM     22  C   UNL     1      -1.274  12.620  19.735  0.00  0.00    +0.000 C 
ATOM     23  C   UNL     1      -0.671  11.509  20.689  0.00  0.00    +0.000 A 
ATOM     24  C   UNL     1      -0.856  11.399  22.064  0.00  0.00    +0.000 A 
ATOM     25  C   UNL     1      -0.416  10.228  22.706  0.00  0.00    +0.000 A 
ATOM     26  C   UNL     1       0.199   9.186  21.987  0.00  0.00    +0.000 A 
ATOM     27  C   UNL     1       0.417   9.290  20.610  0.00  0.00    +0.000 A 
ATOM     28  C   UNL     1      -0.003  10.455  19.980  0.00  0.00    +0.000 A 
ENDROOT
TORSDOF 0
ENDMDL
MODEL 2
REMARK VINA RESULT:      -7.1      3.829      5.541
REMARK  Name = 
REMARK  2 active torsions:
REMARK  status: ('A' for Active; 'I' for Inactive)
REMARK    1  A    between atoms: C_1  and  C_2
REMARK    2  A    between atoms: C_3  and  C_4
REMARK                            x       y       z     vdW  Elec       q    Type
REMARK                         _______ _______ _______ _____ _____    ______ ____
ROOT
ATOM      1  C   UNL     1       2.832  13.467  19.062  0.00  0.00    +0.000 C 
ATOM      2  C   UNL     1       1.393  13.102  19.293  0.00  0.00    +0.000 C 
ATOM      3  C   UNL     1       0.455  13.753  18.577  0.00  0.00    +0.000 C 
ATOM      4  C   UNL     1       0.333  15.238  18.872  0.00  0.00    +0.000 C 
ATOM      5  C   UNL     1      -0.820  13.011  18.321  0.00  0.00    +0.000 C 
ATOM      6  C   UNL     1      -1.387  12.841  19.689  0.00  0.00    +0.000 C 
ATOM      7  C   UNL     1      -2.766  12.322  19.711  0.00  0.00    +0.000 C 
ATOM      8  O   UNL     1      -3.344  11.730  18.823  0.00  0.00    +0.000 OA
ATOM      9  C   UNL     1      -3.376  12.625  20.994  0.00  0.00    +0.000 C 
ATOM     10  C   UNL     1      -2.707  12.498  22.165  0.00  0.00    +0.000 C 
ATOM     11  C   UNL     1      -1.180  12.321  22.080  0.00  0.00    +0.000 C 
ATOM     12  O   UNL     1      -0.484  12.496  23.075  0.00  0.00    +0.000 OA
ATOM     13  C   UNL     1      -0.577  11.969  20.655  0.00  0.00    +0.000 C 
ATOM     14  C   UNL     1       0.969  12.057  20.334  0.00  0.00    +0.000 C 
ATOM     15  C   UNL     1      -3.532  13.081  23.370  0.00  0.00    +0.000 C 
ATOM     16  C   UNL     1      -5.080  12.738  23.198  0.00  0.00    +0.000 A 
ATOM     17  C   UNL     1      -6.047  12.635  24.188  0.00  0.00    +0.000 A 
ATOM     18  C   UNL     1      -7.405  12.539  23.813  0.00  0.00    +0.000 A 
ATOM     19  C   UNL     1      -7.802  12.508  22.466  0.00  0.00    +0.000 A 
ATOM     20  C   UNL     1      -6.867  12.722  21.469  0.00  0.00    +0.000 A 
ATOM     21  C   UNL     1      -5.554  12.935  21.863  0.00  0.00    +0.000 A 
ATOM     22  C   UNL     1      -4.519  13.608  20.995  0.00  0.00    +0.000 C 
ATOM     23  C   UNL     1      -4.071  14.892  21.807  0.00  0.00    +0.000 A 
ATOM     24  C   UNL     1      -4.272  16.221  21.446  0.00  0.00    +0.000 A 
ATOM     25  C   UNL     1      -3.993  17.221  22.395  0.00  0.00    +0.000 A 
ATOM     26  C   UNL     1      -3.520  16.898  23.680  0.00  0.00    +0.000 A 
ATOM     27  C   UNL     1      -3.287  15.570  24.051  0.00  0.00    +0.000 A 
ATOM     28  C   UNL     1      -3.548  14.585  23.107  0.00  0.00    +0.000 A 
ENDROOT
TORSDOF 0
ENDMDL
MODEL 3
REMARK VINA RESULT:      -6.9      2.901      6.419
REMARK  Name = 
REMARK  2 active torsions:
REMARK  status: ('A' for Active; 'I' for Inactive)
REMARK    1  A    between atoms: C_1  and  C_2
REMARK    2  A    between atoms: C_3  and  C_4
REMARK                            x       y       z     vdW  Elec       q    Type
REMARK                         _______ _______ _______ _____ _____    ______ ____
ROOT
ATOM      1  C   UNL     1      -6.459  12.445  24.219  0.00  0.00    +0.000 C 
ATOM      2  C   UNL     1      -5.312  13.135  23.537  0.00  0.00    +0.000 C 
ATOM      3  C   UNL     1      -5.512  13.608  22.290  0.00  0.00    +0.000 C 
ATOM      4  C   UNL     1      -5.765  12.550  21.231  0.00  0.00    +0.000 C 
ATOM      5  C   UNL     1      -4.676  14.781  21.883  0.00  0.00    +0.000 C 
ATOM      6  C   UNL     1      -3.293  14.227  21.899  0.00  0.00    +0.000 C 
ATOM      7  C   UNL     1      -2.275  15.124  21.322  0.00  0.00    +0.000 C 
ATOM      8  O   UNL     1      -2.361  16.323  21.155  0.00  0.00    +0.000 OA
ATOM      9  C   UNL     1      -1.100  14.351  20.960  0.00  0.00    +0.000 C 
ATOM     10  C   UNL     1      -0.602  13.370  21.750  0.00  0.00    +0.000 C 
ATOM     11  C   UNL     1      -1.500  12.881  22.902  0.00  0.00    +0.000 C 
ATOM     12  O   UNL     1      -1.256  11.817  23.463  0.00  0.00    +0.000 OA
ATOM     13  C   UNL     1      -2.756  13.779  23.263  0.00  0.00    +0.000 C 
ATOM     14  C   UNL     1      -3.932  13.275  24.194  0.00  0.00    +0.000 C 
ATOM     15  C   UNL     1       0.543  12.569  21.030  0.00  0.00    +0.000 C 
ATOM     16  C   UNL     1       1.455  13.558  20.174  0.00  0.00    +0.000 A 
ATOM     17  C   UNL     1       2.778  13.382  19.790  0.00  0.00    +0.000 A 
ATOM     18  C   UNL     1       3.342  14.272  18.850  0.00  0.00    +0.000 A 
ATOM     19  C   UNL     1       2.615  15.350  18.319  0.00  0.00    +0.000 A 
ATOM     20  C   UNL     1       1.267  15.475  18.603  0.00  0.00    +0.000 A 
ATOM     21  C   UNL     1       0.700  14.521  19.434  0.00  0.00    +0.000 A 
ATOM     22  C   UNL     1      -0.781  14.235  19.491  0.00  0.00    +0.000 C 
ATOM     23  C   UNL     1      -0.924  12.715  19.070  0.00  0.00    +0.000 A 
ATOM     24  C   UNL     1      -1.548  12.219  17.928  0.00  0.00    +0.000 A 
ATOM     25  C   UNL     1      -1.390  10.857  17.619  0.00  0.00    +0.000 A 
ATOM     26  C   UNL     1      -0.624  10.004  18.435  0.00  0.00    +0.000 A 
ATOM     27  C   UNL     1      -0.013  10.479  19.601  0.00  0.00    +0.000 A 
ATOM     28  C   UNL     1      -0.183  11.821  19.913  0.00  0.00    +0.000 A 
ENDROOT
TORSDOF 0
ENDMDL
MODEL 4
REMARK VINA RESULT:      -6.9      3.025      6.867
REMARK  Name = 
REMARK  2 active torsions:
REMARK  status: ('A' for Active; 'I' for Inactive)
REMARK    1  A    between atoms: C_1  and  C_2
REMARK    2  A    between atoms: C_3  and  C_4
REMARK                            x       y       z     vdW  Elec       q    Type
REMARK                         _______ _______ _______ _____ _____    ______ ____
ROOT
ATOM      1  C   UNL     1      -7.912  12.005  22.988  0.00  0.00    +0.000 C 
ATOM      2  C   UNL     1      -6.673  12.746  22.573  0.00  0.00    +0.000 C 
ATOM      3  C   UNL     1      -6.592  13.174  21.297  0.00  0.00    +0.000 C 
ATOM      4  C   UNL     1      -6.527  12.076  20.250  0.00  0.00    +0.000 C 
ATOM      5  C   UNL     1      -5.746  14.385  21.055  0.00  0.00    +0.000 C 
ATOM      6  C   UNL     1      -4.379  13.916  21.422  0.00  0.00    +0.000 C 
ATOM      7  C   UNL     1      -3.301  14.858  21.069  0.00  0.00    +0.000 C 
ATOM      8  O   UNL     1      -3.408  16.046  20.839  0.00  0.00    +0.000 OA
ATOM      9  C   UNL     1      -2.035  14.150  21.028  0.00  0.00    +0.000 C 
ATOM     10  C   UNL     1      -1.690  13.221  21.952  0.00  0.00    +0.000 C 
ATOM     11  C   UNL     1      -2.812  12.707  22.875  0.00  0.00    +0.000 C 
ATOM     12  O   UNL     1      -2.654  11.675  23.519  0.00  0.00    +0.000 OA
ATOM     13  C   UNL     1      -4.164  13.537  22.891  0.00  0.00    +0.000 C 
ATOM     14  C   UNL     1      -5.499  12.986  23.533  0.00  0.00    +0.000 C 
ATOM     15  C   UNL     1      -0.365  12.472  21.558  0.00  0.00    +0.000 C 
ATOM     16  C   UNL     1       0.673  13.492  20.905  0.00  0.00    +0.000 A 
ATOM     17  C   UNL     1       2.056  13.387  20.855  0.00  0.00    +0.000 A 
ATOM     18  C   UNL     1       2.782  14.285  20.043  0.00  0.00    +0.000 A 
ATOM     19  C   UNL     1       2.148  15.304  19.311  0.00  0.00    +0.000 A 
ATOM     20  C   UNL     1       0.766  15.354  19.260  0.00  0.00    +0.000 A 
ATOM     21  C   UNL     1       0.067  14.389  19.969  0.00  0.00    +0.000 A 
ATOM     22  C   UNL     1      -1.367  14.015  19.683  0.00  0.00    +0.000 C 
ATOM     23  C   UNL     1      -1.324  12.479  19.300  0.00  0.00    +0.000 A 
ATOM     24  C   UNL     1      -1.628  11.917  18.063  0.00  0.00    +0.000 A 
ATOM     25  C   UNL     1      -1.329  10.560  17.854  0.00  0.00    +0.000 A 
ATOM     26  C   UNL     1      -0.738   9.776  18.862  0.00  0.00    +0.000 A 
ATOM     27  C   UNL     1      -0.450  10.317  20.120  0.00  0.00    +0.000 A 
ATOM     28  C   UNL     1      -0.762  11.654  20.330  0.00  0.00    +0.000 A 
ENDROOT
TORSDOF 0
ENDMDL
MODEL 5
REMARK VINA RESULT:      -6.7      1.841      2.564
REMARK  Name = 
REMARK  2 active torsions:
REMARK  status: ('A' for Active; 'I' for Inactive)
REMARK    1  A    between atoms: C_1  and  C_2
REMARK    2  A    between atoms: C_3  and  C_4
REMARK                            x       y       z     vdW  Elec       q    Type
REMARK                         _______ _______ _______ _____ _____    ______ ____
ROOT
ATOM      1  C   UNL     1       3.001  18.414  23.129  0.00  0.00    +0.000 C 
ATOM      2  C   UNL     1       2.324  17.596  22.067  0.00  0.00    +0.000 C 
ATOM      3  C   UNL     1       0.985  17.698  21.949  0.00  0.00    +0.000 C 
ATOM      4  C   UNL     1       0.191  17.181  23.135  0.00  0.00    +0.000 C 
ATOM      5  C   UNL     1       0.415  17.433  20.591  0.00  0.00    +0.000 C 
ATOM      6  C   UNL     1       0.742  15.996  20.367  0.00  0.00    +0.000 C 
ATOM      7  C   UNL     1       0.099  15.407  19.178  0.00  0.00    +0.000 C 
ATOM      8  O   UNL     1      -0.364  15.998  18.223  0.00  0.00    +0.000 OA
ATOM      9  C   UNL     1       0.088  13.960  19.301  0.00  0.00    +0.000 C 
ATOM     10  C   UNL     1       1.150  13.262  19.771  0.00  0.00    +0.000 C 
ATOM     11  C   UNL     1       2.262  14.069  20.466  0.00  0.00    +0.000 C 
ATOM     12  O   UNL     1       3.090  13.497  21.167  0.00  0.00    +0.000 OA
ATOM     13  C   UNL     1       2.230  15.644  20.277  0.00  0.00    +0.000 C 
ATOM     14  C   UNL     1       3.098  16.630  21.158  0.00  0.00    +0.000 C 
ATOM     15  C   UNL     1       0.797  11.745  19.986  0.00  0.00    +0.000 C 
ATOM     16  C   UNL     1      -0.150  11.225  18.813  0.00  0.00    +0.000 A 
ATOM     17  C   UNL     1      -0.307   9.924  18.357  0.00  0.00    +0.000 A 
ATOM     18  C   UNL     1      -1.355   9.636  17.456  0.00  0.00    +0.000 A 
ATOM     19  C   UNL     1      -2.221  10.635  16.980  0.00  0.00    +0.000 A 
ATOM     20  C   UNL     1      -2.150  11.912  17.507  0.00  0.00    +0.000 A 
ATOM     21  C   UNL     1      -1.192  12.147  18.481  0.00  0.00    +0.000 A 
ATOM     22  C   UNL     1      -1.256  13.295  19.459  0.00  0.00    +0.000 C 
ATOM     23  C   UNL     1      -1.310  12.617  20.889  0.00  0.00    +0.000 A 
ATOM     24  C   UNL     1      -2.367  12.658  21.794  0.00  0.00    +0.000 A 
ATOM     25  C   UNL     1      -2.314  11.820  22.922  0.00  0.00    +0.000 A 
ATOM     26  C   UNL     1      -1.224  10.958  23.143  0.00  0.00    +0.000 A 
ATOM     27  C   UNL     1      -0.141  10.923  22.259  0.00  0.00    +0.000 A 
ATOM     28  C   UNL     1      -0.188  11.763  21.154  0.00  0.00    +0.000 A 
ENDROOT
TORSDOF 0
ENDMDL
MODEL 6
REMARK VINA RESULT:      -6.7      6.789      9.689
REMARK  Name = 
REMARK  2 active torsions:
REMARK  status: ('A' for Active; 'I' for Inactive)
REMARK    1  A    between atoms: C_1  and  C_2
REMARK    2  A    between atoms: C_3  and  C_4
REMARK                            x       y       z     vdW  Elec       q    Type
REMARK                         _______ _______ _______ _____ _____    ______ ____
ROOT
ATOM      1  C   UNL     1      11.230  13.368  16.575  0.00  0.00    +0.000 C 
ATOM      2  C   UNL     1      10.711  12.931  17.916  0.00  0.00    +0.000 C 
ATOM      3  C   UNL     1       9.538  12.268  17.953  0.00  0.00    +0.000 C 
ATOM      4  C   UNL     1       8.326  13.076  17.524  0.00  0.00    +0.000 C 
ATOM      5  C   UNL     1       9.345  11.322  19.097  0.00  0.00    +0.000 C 
ATOM      6  C   UNL     1       9.348  12.226  20.282  0.00  0.00    +0.000 C 
ATOM      7  C   UNL     1       8.956  11.571  21.543  0.00  0.00    +0.000 C 
ATOM      8  O   UNL     1       8.960  10.382  21.787  0.00  0.00    +0.000 OA
ATOM      9  C   UNL     1       8.543  12.579  22.503  0.00  0.00    +0.000 C 
ATOM     10  C   UNL     1       9.206  13.750  22.659  0.00  0.00    +0.000 C 
ATOM     11  C   UNL     1      10.231  14.121  21.570  0.00  0.00    +0.000 C 
ATOM     12  O   UNL     1      10.643  15.273  21.481  0.00  0.00    +0.000 OA
ATOM     13  C   UNL     1      10.657  12.970  20.565  0.00  0.00    +0.000 C 
ATOM     14  C   UNL     1      11.447  13.253  19.224  0.00  0.00    +0.000 C 
ATOM     15  C   UNL     1       8.434  14.732  23.613  0.00  0.00    +0.000 C 
ATOM     16  C   UNL     1       7.774  13.926  24.821  0.00  0.00    +0.000 A 
ATOM     17  C   UNL     1       7.433  14.402  26.079  0.00  0.00    +0.000 A 
ATOM     18  C   UNL     1       6.660  13.586  26.934  0.00  0.00    +0.000 A 
ATOM     19  C   UNL     1       6.256  12.293  26.560  0.00  0.00    +0.000 A 
ATOM     20  C   UNL     1       6.490  11.846  25.272  0.00  0.00    +0.000 A 
ATOM     21  C   UNL     1       7.146  12.709  24.408  0.00  0.00    +0.000 A 
ATOM     22  C   UNL     1       7.090  12.591  22.904  0.00  0.00    +0.000 C 
ATOM     23  C   UNL     1       6.447  13.950  22.407  0.00  0.00    +0.000 A 
ATOM     24  C   UNL     1       5.217  14.111  21.775  0.00  0.00    +0.000 A 
ATOM     25  C   UNL     1       4.722  15.415  21.598  0.00  0.00    +0.000 A 
ATOM     26  C   UNL     1       5.442  16.538  22.044  0.00  0.00    +0.000 A 
ATOM     27  C   UNL     1       6.692  16.397  22.656  0.00  0.00    +0.000 A 
ATOM     28  C   UNL     1       7.187  15.109  22.815  0.00  0.00    +0.000 A 
ENDROOT
TORSDOF 0
ENDMDL
MODEL 7
REMARK VINA RESULT:      -6.6      3.774      6.338
REMARK  Name = 
REMARK  2 active torsions:
REMARK  status: ('A' for Active; 'I' for Inactive)
REMARK    1  A    between atoms: C_1  and  C_2
REMARK    2  A    between atoms: C_3  and  C_4
REMARK                            x       y       z     vdW  Elec       q    Type
REMARK                         _______ _______ _______ _____ _____    ______ ____
ROOT
ATOM      1  C   UNL     1       1.759  12.364  18.398  0.00  0.00    +0.000 C 
ATOM      2  C   UNL     1       0.689  12.420  19.451  0.00  0.00    +0.000 C 
ATOM      3  C   UNL     1      -0.078  11.326  19.630  0.00  0.00    +0.000 C 
ATOM      4  C   UNL     1      -0.972  10.965  18.457  0.00  0.00    +0.000 C 
ATOM      5  C   UNL     1      -0.653  11.135  20.999  0.00  0.00    +0.000 C 
ATOM      6  C   UNL     1      -1.563  12.307  21.145  0.00  0.00    +0.000 C 
ATOM      7  C   UNL     1      -2.433  12.252  22.333  0.00  0.00    +0.000 C 
ATOM      8  O   UNL     1      -2.274  11.580  23.332  0.00  0.00    +0.000 OA
ATOM      9  C   UNL     1      -3.561  13.148  22.148  0.00  0.00    +0.000 C 
ATOM     10  C   UNL     1      -3.429  14.381  21.603  0.00  0.00    +0.000 C 
ATOM     11  C   UNL     1      -2.096  14.691  20.896  0.00  0.00    +0.000 C 
ATOM     12  O   UNL     1      -2.011  15.651  20.136  0.00  0.00    +0.000 OA
ATOM     13  C   UNL     1      -0.896  13.686  21.156  0.00  0.00    +0.000 C 
ATOM     14  C   UNL     1       0.423  13.683  20.282  0.00  0.00    +0.000 C 
ATOM     15  C   UNL     1      -4.826  15.051  21.336  0.00  0.00    +0.000 C 
ATOM     16  C   UNL     1      -5.836  14.717  22.524  0.00  0.00    +0.000 A 
ATOM     17  C   UNL     1      -6.947  15.443  22.929  0.00  0.00    +0.000 A 
ATOM     18  C   UNL     1      -7.838  14.868  23.861  0.00  0.00    +0.000 A 
ATOM     19  C   UNL     1      -7.613  13.597  24.417  0.00  0.00    +0.000 A 
ATOM     20  C   UNL     1      -6.575  12.815  23.944  0.00  0.00    +0.000 A 
ATOM     21  C   UNL     1      -5.781  13.350  22.941  0.00  0.00    +0.000 A 
ATOM     22  C   UNL     1      -4.924  12.517  22.018  0.00  0.00    +0.000 C 
ATOM     23  C   UNL     1      -5.475  12.816  20.564  0.00  0.00    +0.000 A 
ATOM     24  C   UNL     1      -6.104  11.916  19.707  0.00  0.00    +0.000 A 
ATOM     25  C   UNL     1      -6.712  12.416  18.542  0.00  0.00    +0.000 A 
ATOM     26  C   UNL     1      -6.690  13.790  18.237  0.00  0.00    +0.000 A 
ATOM     27  C   UNL     1      -6.040  14.704  19.071  0.00  0.00    +0.000 A 
ATOM     28  C   UNL     1      -5.426  14.206  20.213  0.00  0.00    +0.000 A 
ENDROOT
TORSDOF 0
ENDMDL
MODEL 8
REMARK VINA RESULT:      -6.6      3.848      6.958
REMARK  Name = 
REMARK  2 active torsions:
REMARK  status: ('A' for Active; 'I' for Inactive)
REMARK    1  A    between atoms: C_1  and  C_2
REMARK    2  A    between atoms: C_3  and  C_4
REMARK                            x       y       z     vdW  Elec       q    Type
REMARK                         _______ _______ _______ _____ _____    ______ ____
ROOT
ATOM      1  C   UNL     1      -7.586  17.004  22.380  0.00  0.00    +0.000 C 
ATOM      2  C   UNL     1      -6.692  15.816  22.598  0.00  0.00    +0.000 C 
ATOM      3  C   UNL     1      -5.782  15.885  23.590  0.00  0.00    +0.000 C 
ATOM      4  C   UNL     1      -4.691  16.923  23.395  0.00  0.00    +0.000 C 
ATOM      5  C   UNL     1      -5.371  14.584  24.206  0.00  0.00    +0.000 C 
ATOM      6  C   UNL     1      -4.701  13.878  23.078  0.00  0.00    +0.000 C 
ATOM      7  C   UNL     1      -4.000  12.641  23.470  0.00  0.00    +0.000 C 
ATOM      8  O   UNL     1      -4.176  11.983  24.475  0.00  0.00    +0.000 OA
ATOM      9  C   UNL     1      -3.025  12.294  22.451  0.00  0.00    +0.000 C 
ATOM     10  C   UNL     1      -3.290  12.396  21.126  0.00  0.00    +0.000 C 
ATOM     11  C   UNL     1      -4.549  13.188  20.726  0.00  0.00    +0.000 C 
ATOM     12  O   UNL     1      -4.692  13.573  19.570  0.00  0.00    +0.000 OA
ATOM     13  C   UNL     1      -5.586  13.517  21.881  0.00  0.00    +0.000 C 
ATOM     14  C   UNL     1      -6.756  14.567  21.708  0.00  0.00    +0.000 C 
ATOM     15  C   UNL     1      -2.003  12.152  20.257  0.00  0.00    +0.000 C 
ATOM     16  C   UNL     1      -1.120  10.986  20.891  0.00  0.00    +0.000 A 
ATOM     17  C   UNL     1      -0.211  10.157  20.248  0.00  0.00    +0.000 A 
ATOM     18  C   UNL     1       0.632   9.331  21.024  0.00  0.00    +0.000 A 
ATOM     19  C   UNL     1       0.552   9.298  22.427  0.00  0.00    +0.000 A 
ATOM     20  C   UNL     1      -0.266  10.196  23.088  0.00  0.00    +0.000 A 
ATOM     21  C   UNL     1      -0.998  11.083  22.313  0.00  0.00    +0.000 A 
ATOM     22  C   UNL     1      -1.570  12.378  22.837  0.00  0.00    +0.000 C 
ATOM     23  C   UNL     1      -0.888  13.511  21.967  0.00  0.00    +0.000 A 
ATOM     24  C   UNL     1      -0.007  14.492  22.414  0.00  0.00    +0.000 A 
ATOM     25  C   UNL     1       0.658  15.280  21.458  0.00  0.00    +0.000 A 
ATOM     26  C   UNL     1       0.446  15.092  20.080  0.00  0.00    +0.000 A 
ATOM     27  C   UNL     1      -0.456  14.131  19.613  0.00  0.00    +0.000 A 
ATOM     28  C   UNL     1      -1.124  13.365  20.559  0.00  0.00    +0.000 A 
ENDROOT
TORSDOF 0
ENDMDL
MODEL 9
REMARK VINA RESULT:      -6.6      7.404     10.526
REMARK  Name = 
REMARK  2 active torsions:
REMARK  status: ('A' for Active; 'I' for Inactive)
REMARK    1  A    between atoms: C_1  and  C_2
REMARK    2  A    between atoms: C_3  and  C_4
REMARK                            x       y       z     vdW  Elec       q    Type
REMARK                         _______ _______ _______ _____ _____    ______ ____
ROOT
ATOM      1  C   UNL     1       4.717  16.794  25.532  0.00  0.00    +0.000 C 
ATOM      2  C   UNL     1       5.626  15.837  24.814  0.00  0.00    +0.000 C 
ATOM      3  C   UNL     1       6.907  15.753  25.226  0.00  0.00    +0.000 C 
ATOM      4  C   UNL     1       7.735  17.009  25.017  0.00  0.00    +0.000 C 
ATOM      5  C   UNL     1       7.596  14.446  24.992  0.00  0.00    +0.000 C 
ATOM      6  C   UNL     1       7.633  14.349  23.505  0.00  0.00    +0.000 C 
ATOM      7  C   UNL     1       8.460  13.243  22.991  0.00  0.00    +0.000 C 
ATOM      8  O   UNL     1       8.821  12.252  23.592  0.00  0.00    +0.000 OA
ATOM      9  C   UNL     1       8.808  13.503  21.605  0.00  0.00    +0.000 C 
ATOM     10  C   UNL     1       7.918  14.002  20.713  0.00  0.00    +0.000 C 
ATOM     11  C   UNL     1       6.610  14.582  21.284  0.00  0.00    +0.000 C 
ATOM     12  O   UNL     1       5.904  15.306  20.590  0.00  0.00    +0.000 OA
ATOM     13  C   UNL     1       6.277  14.244  22.798  0.00  0.00    +0.000 C 
ATOM     14  C   UNL     1       5.154  14.999  23.617  0.00  0.00    +0.000 C 
ATOM     15  C   UNL     1       8.608  14.372  19.350  0.00  0.00    +0.000 C 
ATOM     16  C   UNL     1       9.714  13.285  18.976  0.00  0.00    +0.000 A 
ATOM     17  C   UNL     1      10.200  12.960  17.718  0.00  0.00    +0.000 A 
ATOM     18  C   UNL     1      11.333  12.124  17.616  0.00  0.00    +0.000 A 
ATOM     19  C   UNL     1      11.962  11.584  18.751  0.00  0.00    +0.000 A 
ATOM     20  C   UNL     1      11.562  11.985  20.013  0.00  0.00    +0.000 A 
ATOM     21  C   UNL     1      10.523  12.901  20.091  0.00  0.00    +0.000 A 
ATOM     22  C   UNL     1      10.260  13.767  21.299  0.00  0.00    +0.000 C 
ATOM     23  C   UNL     1      10.396  15.256  20.777  0.00  0.00    +0.000 A 
ATOM     24  C   UNL     1      11.363  16.187  21.148  0.00  0.00    +0.000 A 
ATOM     25  C   UNL     1      11.449  17.387  20.421  0.00  0.00    +0.000 A 
ATOM     26  C   UNL     1      10.584  17.653  19.343  0.00  0.00    +0.000 A 
ATOM     27  C   UNL     1       9.590  16.742  18.974  0.00  0.00    +0.000 A 
ATOM     28  C   UNL     1       9.496  15.564  19.703  0.00  0.00    +0.000 A 
ENDROOT
TORSDOF 0
ENDMDL
