MODEL 1
REMARK VINA RESULT:      -6.7      0.000      0.000
REMARK  Name = 
REMARK  4 active torsions:
REMARK  status: ('A' for Active; 'I' for Inactive)
REMARK    1  A    between atoms: C_1  and  C_2
REMARK    2  A    between atoms: N_6  and  C_7
REMARK    3  A    between atoms: C_8  and  C_9
REMARK    4  A    between atoms: N_18  and  C_19
REMARK                            x       y       z     vdW  Elec       q    Type
REMARK                         _______ _______ _______ _____ _____    ______ ____
ROOT
ATOM      1  C   UNL     1       4.338   4.075  18.612  0.00  0.00    +0.000 A 
ATOM      2  C   UNL     1       5.547   4.738  18.372  0.00  0.00    +0.000 A 
ATOM      3  C   UNL     1       5.765   4.813  16.962  0.00  0.00    +0.000 A 
ATOM      4  C   UNL     1       6.720   5.364  16.093  0.00  0.00    +0.000 A 
ATOM      5  N   UNL     1       7.839   6.051  16.491  0.00  0.00    +0.000 N 
ATOM      6  N   UNL     1       6.540   5.235  14.761  0.00  0.00    +0.000 NA
ATOM      7  C   UNL     1       5.456   4.574  14.319  0.00  0.00    +0.000 A 
ATOM      8  N   UNL     1       4.494   3.997  15.051  0.00  0.00    +0.000 NA
ATOM      9  C   UNL     1       4.702   4.158  16.369  0.00  0.00    +0.000 A 
ATOM     10  N   UNL     1       3.864   3.706  17.360  0.00  0.00    +0.000 N 
ATOM     11  C   UNL     1       2.630   3.025  17.059  0.00  0.00    +0.000 C 
ATOM     12  H   UNL     1       8.074   6.229  17.455  0.00  0.00    +0.000 HD
ATOM     13  H   UNL     1       8.426   6.410  15.751  0.00  0.00    +0.000 HD
ENDROOT
BRANCH   1  19
ATOM     14  C   UNL     1       2.041   5.554  20.749  0.00  0.00    +0.000 C 
ATOM     15  C   UNL     1       2.172   4.326  19.842  0.00  0.00    +0.000 C 
ATOM     16  C   UNL     1       1.434   3.155  20.513  0.00  0.00    +0.000 C 
ATOM     17  C   UNL     1       2.505   2.531  21.392  0.00  0.00    +0.000 C 
ATOM     18  C   UNL     1       3.722   2.587  20.482  0.00  0.00    +0.000 C 
ATOM     19  N   UNL     1       3.583   3.860  19.744  0.00  0.00    +0.000 N 
ENDBRANCH   1  19
BRANCH   2  20
ATOM     20  C   UNL     1       6.446   5.278  19.339  0.00  0.00    +0.000 C 
ATOM     21  N   UNL     1       7.222   5.691  20.105  0.00  0.00    +0.000 NA
ENDBRANCH   2  20
TORSDOF 2
ENDMDL
MODEL 2
REMARK VINA RESULT:      -6.4      1.827      2.316
REMARK  Name = 
REMARK  4 active torsions:
REMARK  status: ('A' for Active; 'I' for Inactive)
REMARK    1  A    between atoms: C_1  and  C_2
REMARK    2  A    between atoms: N_6  and  C_7
REMARK    3  A    between atoms: C_8  and  C_9
REMARK    4  A    between atoms: N_18  and  C_19
REMARK                            x       y       z     vdW  Elec       q    Type
REMARK                         _______ _______ _______ _____ _____    ______ ____
ROOT
ATOM      1  C   UNL     1       3.458   3.995  18.104  0.00  0.00    +0.000 A 
ATOM      2  C   UNL     1       3.747   5.269  17.603  0.00  0.00    +0.000 A 
ATOM      3  C   UNL     1       4.721   5.152  16.565  0.00  0.00    +0.000 A 
ATOM      4  C   UNL     1       5.378   6.005  15.663  0.00  0.00    +0.000 A 
ATOM      5  N   UNL     1       5.194   7.362  15.593  0.00  0.00    +0.000 N 
ATOM      6  N   UNL     1       6.250   5.472  14.780  0.00  0.00    +0.000 NA
ATOM      7  C   UNL     1       6.462   4.145  14.805  0.00  0.00    +0.000 A 
ATOM      8  N   UNL     1       5.909   3.243  15.625  0.00  0.00    +0.000 NA
ATOM      9  C   UNL     1       5.038   3.809  16.480  0.00  0.00    +0.000 A 
ATOM     10  N   UNL     1       4.294   3.128  17.413  0.00  0.00    +0.000 N 
ATOM     11  C   UNL     1       4.360   1.693  17.537  0.00  0.00    +0.000 C 
ATOM     12  H   UNL     1       4.558   7.873  16.184  0.00  0.00    +0.000 HD
ATOM     13  H   UNL     1       5.719   7.845  14.877  0.00  0.00    +0.000 HD
ENDROOT
BRANCH   1  19
ATOM     14  C   UNL     1       3.030   2.674  21.283  0.00  0.00    +0.000 C 
ATOM     15  C   UNL     1       2.549   3.855  20.432  0.00  0.00    +0.000 C 
ATOM     16  C   UNL     1       1.079   4.134  20.790  0.00  0.00    +0.000 C 
ATOM     17  C   UNL     1       0.315   3.231  19.837  0.00  0.00    +0.000 C 
ATOM     18  C   UNL     1       1.105   3.401  18.550  0.00  0.00    +0.000 C 
ATOM     19  N   UNL     1       2.513   3.514  18.983  0.00  0.00    +0.000 N 
ENDBRANCH   1  19
BRANCH   2  20
ATOM     20  C   UNL     1       3.182   6.512  18.017  0.00  0.00    +0.000 C 
ATOM     21  N   UNL     1       2.670   7.503  18.357  0.00  0.00    +0.000 NA
ENDBRANCH   2  20
TORSDOF 2
ENDMDL
MODEL 3
REMARK VINA RESULT:      -6.3      1.846      2.309
REMARK  Name = 
REMARK  4 active torsions:
REMARK  status: ('A' for Active; 'I' for Inactive)
REMARK    1  A    between atoms: C_1  and  C_2
REMARK    2  A    between atoms: N_6  and  C_7
REMARK    3  A    between atoms: C_8  and  C_9
REMARK    4  A    between atoms: N_18  and  C_19
REMARK                            x       y       z     vdW  Elec       q    Type
REMARK                         _______ _______ _______ _____ _____    ______ ____
ROOT
ATOM      1  C   UNL     1       3.372   4.339  18.323  0.00  0.00    +0.000 A 
ATOM      2  C   UNL     1       3.693   5.533  17.669  0.00  0.00    +0.000 A 
ATOM      3  C   UNL     1       4.630   5.256  16.626  0.00  0.00    +0.000 A 
ATOM      4  C   UNL     1       5.291   5.971  15.615  0.00  0.00    +0.000 A 
ATOM      5  N   UNL     1       5.155   7.318  15.390  0.00  0.00    +0.000 N 
ATOM      6  N   UNL     1       6.114   5.305  14.778  0.00  0.00    +0.000 NA
ATOM      7  C   UNL     1       6.278   3.982  14.953  0.00  0.00    +0.000 A 
ATOM      8  N   UNL     1       5.716   3.205  15.887  0.00  0.00    +0.000 NA
ATOM      9  C   UNL     1       4.894   3.901  16.692  0.00  0.00    +0.000 A 
ATOM     10  N   UNL     1       4.154   3.364  17.717  0.00  0.00    +0.000 N 
ATOM     11  C   UNL     1       4.170   1.952  18.007  0.00  0.00    +0.000 C 
ATOM     12  H   UNL     1       4.557   7.919  15.934  0.00  0.00    +0.000 HD
ATOM     13  H   UNL     1       5.676   7.692  14.609  0.00  0.00    +0.000 HD
ENDROOT
BRANCH   1  19
ATOM     14  C   UNL     1       0.423   2.586  18.832  0.00  0.00    +0.000 C 
ATOM     15  C   UNL     1       1.862   2.630  19.355  0.00  0.00    +0.000 C 
ATOM     16  C   UNL     1       1.832   2.320  20.862  0.00  0.00    +0.000 C 
ATOM     17  C   UNL     1       1.638   3.689  21.492  0.00  0.00    +0.000 C 
ATOM     18  C   UNL     1       2.557   4.553  20.642  0.00  0.00    +0.000 C 
ATOM     19  N   UNL     1       2.437   4.001  19.276  0.00  0.00    +0.000 N 
ENDBRANCH   1  19
BRANCH   2  20
ATOM     20  C   UNL     1       3.187   6.837  17.949  0.00  0.00    +0.000 C 
ATOM     21  N   UNL     1       2.727   7.889  18.152  0.00  0.00    +0.000 NA
ENDBRANCH   2  20
TORSDOF 2
ENDMDL
MODEL 4
REMARK VINA RESULT:      -6.1      2.028      5.533
REMARK  Name = 
REMARK  4 active torsions:
REMARK  status: ('A' for Active; 'I' for Inactive)
REMARK    1  A    between atoms: C_1  and  C_2
REMARK    2  A    between atoms: N_6  and  C_7
REMARK    3  A    between atoms: C_8  and  C_9
REMARK    4  A    between atoms: N_18  and  C_19
REMARK                            x       y       z     vdW  Elec       q    Type
REMARK                         _______ _______ _______ _____ _____    ______ ____
ROOT
ATOM      1  C   UNL     1       4.028   4.826  17.571  0.00  0.00    +0.000 A 
ATOM      2  C   UNL     1       3.181   5.622  18.350  0.00  0.00    +0.000 A 
ATOM      3  C   UNL     1       2.492   4.792  19.287  0.00  0.00    +0.000 A 
ATOM      4  C   UNL     1       1.576   4.960  20.337  0.00  0.00    +0.000 A 
ATOM      5  N   UNL     1       1.057   6.165  20.740  0.00  0.00    +0.000 N 
ATOM      6  N   UNL     1       1.171   3.873  21.028  0.00  0.00    +0.000 NA
ATOM      7  C   UNL     1       1.654   2.669  20.676  0.00  0.00    +0.000 A 
ATOM      8  N   UNL     1       2.513   2.389  19.689  0.00  0.00    +0.000 NA
ATOM      9  C   UNL     1       2.903   3.497  19.033  0.00  0.00    +0.000 A 
ATOM     10  N   UNL     1       3.805   3.523  17.997  0.00  0.00    +0.000 N 
ATOM     11  C   UNL     1       4.460   2.327  17.530  0.00  0.00    +0.000 C 
ATOM     12  H   UNL     1       1.295   7.047  20.316  0.00  0.00    +0.000 HD
ATOM     13  H   UNL     1       0.424   6.134  21.527  0.00  0.00    +0.000 HD
ENDROOT
BRANCH   1  19
ATOM     14  C   UNL     1       6.959   6.612  17.073  0.00  0.00    +0.000 C 
ATOM     15  C   UNL     1       6.446   5.169  17.022  0.00  0.00    +0.000 C 
ATOM     16  C   UNL     1       7.169   4.445  15.873  0.00  0.00    +0.000 C 
ATOM     17  C   UNL     1       6.279   4.728  14.674  0.00  0.00    +0.000 C 
ATOM     18  C   UNL     1       4.891   4.565  15.274  0.00  0.00    +0.000 C 
ATOM     19  N   UNL     1       5.006   5.107  16.644  0.00  0.00    +0.000 N 
ENDBRANCH   1  19
BRANCH   2  20
ATOM     20  C   UNL     1       3.005   7.036  18.271  0.00  0.00    +0.000 C 
ATOM     21  N   UNL     1       2.811   8.182  18.184  0.00  0.00    +0.000 NA
ENDBRANCH   2  20
TORSDOF 2
ENDMDL
MODEL 5
REMARK VINA RESULT:      -6.0     10.066     12.214
REMARK  Name = 
REMARK  4 active torsions:
REMARK  status: ('A' for Active; 'I' for Inactive)
REMARK    1  A    between atoms: C_1  and  C_2
REMARK    2  A    between atoms: N_6  and  C_7
REMARK    3  A    between atoms: C_8  and  C_9
REMARK    4  A    between atoms: N_18  and  C_19
REMARK                            x       y       z     vdW  Elec       q    Type
REMARK                         _______ _______ _______ _____ _____    ______ ____
ROOT
ATOM      1  C   UNL     1       9.824  14.157  18.749  0.00  0.00    +0.000 A 
ATOM      2  C   UNL     1       8.897  15.011  19.356  0.00  0.00    +0.000 A 
ATOM      3  C   UNL     1       9.075  16.332  18.842  0.00  0.00    +0.000 A 
ATOM      4  C   UNL     1       8.469  17.590  18.994  0.00  0.00    +0.000 A 
ATOM      5  N   UNL     1       7.405  17.853  19.818  0.00  0.00    +0.000 N 
ATOM      6  N   UNL     1       8.941  18.631  18.274  0.00  0.00    +0.000 NA
ATOM      7  C   UNL     1       9.980  18.424  17.447  0.00  0.00    +0.000 A 
ATOM      8  N   UNL     1      10.643  17.280  17.236  0.00  0.00    +0.000 NA
ATOM      9  C   UNL     1      10.137  16.265  17.959  0.00  0.00    +0.000 A 
ATOM     10  N   UNL     1      10.589  14.969  17.922  0.00  0.00    +0.000 N 
ATOM     11  C   UNL     1      11.661  14.562  17.049  0.00  0.00    +0.000 C 
ATOM     12  H   UNL     1       6.954  17.157  20.390  0.00  0.00    +0.000 HD
ATOM     13  H   UNL     1       7.059  18.802  19.806  0.00  0.00    +0.000 HD
ENDROOT
BRANCH   1  19
ATOM     14  C   UNL     1      11.997  11.634  19.722  0.00  0.00    +0.000 C 
ATOM     15  C   UNL     1      10.548  12.079  19.944  0.00  0.00    +0.000 C 
ATOM     16  C   UNL     1       9.674  10.818  20.064  0.00  0.00    +0.000 C 
ATOM     17  C   UNL     1       9.288  10.528  18.624  0.00  0.00    +0.000 C 
ATOM     18  C   UNL     1       9.003  11.924  18.093  0.00  0.00    +0.000 C 
ATOM     19  N   UNL     1      10.000  12.791  18.755  0.00  0.00    +0.000 N 
ENDBRANCH   1  19
BRANCH   2  20
ATOM     20  C   UNL     1       7.908  14.669  20.326  0.00  0.00    +0.000 C 
ATOM     21  N   UNL     1       7.072  14.361  21.078  0.00  0.00    +0.000 NA
ENDBRANCH   2  20
TORSDOF 2
ENDMDL
MODEL 6
REMARK VINA RESULT:      -6.0      7.131      9.124
REMARK  Name = 
REMARK  4 active torsions:
REMARK  status: ('A' for Active; 'I' for Inactive)
REMARK    1  A    between atoms: C_1  and  C_2
REMARK    2  A    between atoms: N_6  and  C_7
REMARK    3  A    between atoms: C_8  and  C_9
REMARK    4  A    between atoms: N_18  and  C_19
REMARK                            x       y       z     vdW  Elec       q    Type
REMARK                         _______ _______ _______ _____ _____    ______ ____
ROOT
ATOM      1  C   UNL     1      -0.561  11.467  20.857  0.00  0.00    +0.000 A 
ATOM      2  C   UNL     1       0.063  10.325  21.370  0.00  0.00    +0.000 A 
ATOM      3  C   UNL     1       0.708   9.627  20.303  0.00  0.00    +0.000 A 
ATOM      4  C   UNL     1       1.511   8.485  20.153  0.00  0.00    +0.000 A 
ATOM      5  N   UNL     1       1.896   7.657  21.177  0.00  0.00    +0.000 N 
ATOM      6  N   UNL     1       1.964   8.165  18.922  0.00  0.00    +0.000 NA
ATOM      7  C   UNL     1       1.619   8.948  17.885  0.00  0.00    +0.000 A 
ATOM      8  N   UNL     1       0.850  10.044  17.908  0.00  0.00    +0.000 NA
ATOM      9  C   UNL     1       0.431  10.338  19.151  0.00  0.00    +0.000 A 
ATOM     10  N   UNL     1      -0.341  11.424  19.486  0.00  0.00    +0.000 N 
ATOM     11  C   UNL     1      -0.754  12.395  18.504  0.00  0.00    +0.000 C 
ATOM     12  H   UNL     1       1.638   7.800  22.140  0.00  0.00    +0.000 HD
ATOM     13  H   UNL     1       2.495   6.884  20.921  0.00  0.00    +0.000 HD
ENDROOT
BRANCH   1  19
ATOM     14  C   UNL     1      -3.610  13.093  21.163  0.00  0.00    +0.000 C 
ATOM     15  C   UNL     1      -2.539  12.440  22.043  0.00  0.00    +0.000 C 
ATOM     16  C   UNL     1      -2.436  13.248  23.348  0.00  0.00    +0.000 C 
ATOM     17  C   UNL     1      -1.407  14.314  23.013  0.00  0.00    +0.000 C 
ATOM     18  C   UNL     1      -0.384  13.517  22.219  0.00  0.00    +0.000 C 
ATOM     19  N   UNL     1      -1.183  12.550  21.438  0.00  0.00    +0.000 N 
ENDBRANCH   1  19
BRANCH   2  20
ATOM     20  C   UNL     1       0.090   9.889  22.728  0.00  0.00    +0.000 C 
ATOM     21  N   UNL     1       0.155   9.568  23.847  0.00  0.00    +0.000 NA
ENDBRANCH   2  20
TORSDOF 2
ENDMDL
MODEL 7
REMARK VINA RESULT:      -5.9      2.146      5.647
REMARK  Name = 
REMARK  4 active torsions:
REMARK  status: ('A' for Active; 'I' for Inactive)
REMARK    1  A    between atoms: C_1  and  C_2
REMARK    2  A    between atoms: N_6  and  C_7
REMARK    3  A    between atoms: C_8  and  C_9
REMARK    4  A    between atoms: N_18  and  C_19
REMARK                            x       y       z     vdW  Elec       q    Type
REMARK                         _______ _______ _______ _____ _____    ______ ____
ROOT
ATOM      1  C   UNL     1       4.483   5.547  18.081  0.00  0.00    +0.000 A 
ATOM      2  C   UNL     1       4.031   4.705  19.103  0.00  0.00    +0.000 A 
ATOM      3  C   UNL     1       2.985   5.363  19.820  0.00  0.00    +0.000 A 
ATOM      4  C   UNL     1       2.115   5.066  20.882  0.00  0.00    +0.000 A 
ATOM      5  N   UNL     1       2.099   3.881  21.574  0.00  0.00    +0.000 N 
ATOM      6  N   UNL     1       1.208   5.992  21.259  0.00  0.00    +0.000 NA
ATOM      7  C   UNL     1       1.180   7.168  20.609  0.00  0.00    +0.000 A 
ATOM      8  N   UNL     1       1.966   7.565  19.600  0.00  0.00    +0.000 NA
ATOM      9  C   UNL     1       2.846   6.612  19.245  0.00  0.00    +0.000 A 
ATOM     10  N   UNL     1       3.754   6.721  18.220  0.00  0.00    +0.000 N 
ATOM     11  C   UNL     1       3.821   7.895  17.386  0.00  0.00    +0.000 C 
ATOM     12  H   UNL     1       2.713   3.108  21.375  0.00  0.00    +0.000 HD
ATOM     13  H   UNL     1       1.400   3.801  22.299  0.00  0.00    +0.000 HD
ENDROOT
BRANCH   1  19
ATOM     14  C   UNL     1       7.431   6.712  16.672  0.00  0.00    +0.000 C 
ATOM     15  C   UNL     1       6.824   5.409  17.204  0.00  0.00    +0.000 C 
ATOM     16  C   UNL     1       7.339   4.251  16.333  0.00  0.00    +0.000 C 
ATOM     17  C   UNL     1       6.318   4.183  15.210  0.00  0.00    +0.000 C 
ATOM     18  C   UNL     1       5.015   4.395  15.964  0.00  0.00    +0.000 C 
ATOM     19  N   UNL     1       5.346   5.373  17.022  0.00  0.00    +0.000 N 
ENDBRANCH   1  19
BRANCH   2  20
ATOM     20  C   UNL     1       4.497   3.393  19.414  0.00  0.00    +0.000 C 
ATOM     21  N   UNL     1       4.869   2.332  19.723  0.00  0.00    +0.000 NA
ENDBRANCH   2  20
TORSDOF 2
ENDMDL
MODEL 8
REMARK VINA RESULT:      -5.9      1.896      5.465
REMARK  Name = 
REMARK  4 active torsions:
REMARK  status: ('A' for Active; 'I' for Inactive)
REMARK    1  A    between atoms: C_1  and  C_2
REMARK    2  A    between atoms: N_6  and  C_7
REMARK    3  A    between atoms: C_8  and  C_9
REMARK    4  A    between atoms: N_18  and  C_19
REMARK                            x       y       z     vdW  Elec       q    Type
REMARK                         _______ _______ _______ _____ _____    ______ ____
ROOT
ATOM      1  C   UNL     1       4.227   4.178  17.654  0.00  0.00    +0.000 A 
ATOM      2  C   UNL     1       3.497   5.180  18.303  0.00  0.00    +0.000 A 
ATOM      3  C   UNL     1       2.595   4.574  19.230  0.00  0.00    +0.000 A 
ATOM      4  C   UNL     1       1.656   4.997  20.184  0.00  0.00    +0.000 A 
ATOM      5  N   UNL     1       1.353   6.306  20.459  0.00  0.00    +0.000 N 
ATOM      6  N   UNL     1       0.999   4.066  20.909  0.00  0.00    +0.000 NA
ATOM      7  C   UNL     1       1.263   2.768  20.681  0.00  0.00    +0.000 A 
ATOM      8  N   UNL     1       2.120   2.251  19.791  0.00  0.00    +0.000 NA
ATOM      9  C   UNL     1       2.764   3.208  19.099  0.00  0.00    +0.000 A 
ATOM     10  N   UNL     1       3.726   2.979  18.145  0.00  0.00    +0.000 N 
ATOM     11  C   UNL     1       4.168   1.648  17.816  0.00  0.00    +0.000 C 
ATOM     12  H   UNL     1       1.788   7.090  20.000  0.00  0.00    +0.000 HD
ATOM     13  H   UNL     1       0.672   6.460  21.190  0.00  0.00    +0.000 HD
ENDROOT
BRANCH   1  19
ATOM     14  C   UNL     1       5.152   3.783  14.335  0.00  0.00    +0.000 C 
ATOM     15  C   UNL     1       5.226   4.828  15.453  0.00  0.00    +0.000 C 
ATOM     16  C   UNL     1       6.559   5.584  15.314  0.00  0.00    +0.000 C 
ATOM     17  C   UNL     1       7.520   4.742  16.135  0.00  0.00    +0.000 C 
ATOM     18  C   UNL     1       6.666   4.388  17.342  0.00  0.00    +0.000 C 
ATOM     19  N   UNL     1       5.305   4.193  16.798  0.00  0.00    +0.000 N 
ENDBRANCH   1  19
BRANCH   2  20
ATOM     20  C   UNL     1       3.606   6.590  18.115  0.00  0.00    +0.000 C 
ATOM     21  N   UNL     1       3.671   7.736  17.911  0.00  0.00    +0.000 NA
ENDBRANCH   2  20
TORSDOF 2
ENDMDL
MODEL 9
REMARK VINA RESULT:      -5.8      1.921      2.798
REMARK  Name = 
REMARK  4 active torsions:
REMARK  status: ('A' for Active; 'I' for Inactive)
REMARK    1  A    between atoms: C_1  and  C_2
REMARK    2  A    between atoms: N_6  and  C_7
REMARK    3  A    between atoms: C_8  and  C_9
REMARK    4  A    between atoms: N_18  and  C_19
REMARK                            x       y       z     vdW  Elec       q    Type
REMARK                         _______ _______ _______ _____ _____    ______ ____
ROOT
ATOM      1  C   UNL     1       3.647   4.668  19.146  0.00  0.00    +0.000 A 
ATOM      2  C   UNL     1       3.887   5.799  18.358  0.00  0.00    +0.000 A 
ATOM      3  C   UNL     1       5.210   5.723  17.824  0.00  0.00    +0.000 A 
ATOM      4  C   UNL     1       6.020   6.478  16.961  0.00  0.00    +0.000 A 
ATOM      5  N   UNL     1       5.643   7.652  16.358  0.00  0.00    +0.000 N 
ATOM      6  N   UNL     1       7.260   6.029  16.673  0.00  0.00    +0.000 NA
ATOM      7  C   UNL     1       7.676   4.881  17.235  0.00  0.00    +0.000 A 
ATOM      8  N   UNL     1       7.000   4.092  18.080  0.00  0.00    +0.000 NA
ATOM      9  C   UNL     1       5.767   4.564  18.331  0.00  0.00    +0.000 A 
ATOM     10  N   UNL     1       4.835   3.949  19.132  0.00  0.00    +0.000 N 
ATOM     11  C   UNL     1       5.097   2.682  19.767  0.00  0.00    +0.000 C 
ATOM     12  H   UNL     1       4.738   8.078  16.479  0.00  0.00    +0.000 HD
ATOM     13  H   UNL     1       6.325   8.073  15.742  0.00  0.00    +0.000 HD
ENDROOT
BRANCH   1  19
ATOM     14  C   UNL     1       0.648   3.028  18.554  0.00  0.00    +0.000 C 
ATOM     15  C   UNL     1       1.938   2.852  19.363  0.00  0.00    +0.000 C 
ATOM     16  C   UNL     1       1.576   2.179  20.698  0.00  0.00    +0.000 C 
ATOM     17  C   UNL     1       1.255   3.357  21.602  0.00  0.00    +0.000 C 
ATOM     18  C   UNL     1       2.343   4.347  21.217  0.00  0.00    +0.000 C 
ATOM     19  N   UNL     1       2.524   4.162  19.761  0.00  0.00    +0.000 N 
ENDBRANCH   1  19
BRANCH   2  20
ATOM     20  C   UNL     1       2.988   6.875  18.090  0.00  0.00    +0.000 C 
ATOM     21  N   UNL     1       2.293   7.789  17.892  0.00  0.00    +0.000 NA
ENDBRANCH   2  20
TORSDOF 2
ENDMDL
