MODEL 1
REMARK VINA RESULT:      -7.5      0.000      0.000
REMARK  Name = 
REMARK  7 active torsions:
REMARK  status: ('A' for Active; 'I' for Inactive)
REMARK    1  A    between atoms: C_2  and  C_3
REMARK    2  A    between atoms: C_3  and  C_4
REMARK    3  A    between atoms: C_4  and  C_5
REMARK    4  A    between atoms: C_11  and  C_12
REMARK    5  A    between atoms: C_12  and  O_14
REMARK    6  A    between atoms: N_15  and  C_16
REMARK    7  A    between atoms: C_16  and  C_17
REMARK                            x       y       z     vdW  Elec       q    Type
REMARK                         _______ _______ _______ _____ _____    ______ ____
ROOT
ATOM      1  C   UNL     1       2.826   7.515  18.094  0.00  0.00    +0.000 C 
ENDROOT
BRANCH   1   3
ATOM      2  O   UNL     1       1.847   7.749  20.274  0.00  0.00    +0.000 OA
ATOM      3  C   UNL     1       1.988   8.214  19.147  0.00  0.00    +0.000 C 
ATOM      4  N   UNL     1       1.413   9.382  18.719  0.00  0.00    +0.000 N 
ATOM      5  H   UNL     1       1.447   9.614  17.735  0.00  0.00    +0.000 HD
BRANCH   4   6
ATOM      6  C   UNL     1       0.549  10.184  19.555  0.00  0.00    +0.000 C 
BRANCH   6   7
ATOM      7  C   UNL     1      -0.723  10.521  18.821  0.00  0.00    +0.000 A 
ATOM      8  C   UNL     1      -1.643  11.436  19.357  0.00  0.00    +0.000 A 
ATOM      9  C   UNL     1      -2.827  11.727  18.675  0.00  0.00    +0.000 A 
ATOM     10  C   UNL     1      -3.102  11.101  17.461  0.00  0.00    +0.000 A 
ATOM     11 CL   UNL     1      -4.557  11.467  16.619  0.00  0.00    +0.000 Cl
ATOM     12  C   UNL     1      -2.205  10.180  16.926  0.00  0.00    +0.000 A 
ATOM     13  C   UNL     1      -1.023   9.885  17.606  0.00  0.00    +0.000 A 
ENDBRANCH   6   7
ENDBRANCH   4   6
ENDBRANCH   1   3
BRANCH   1  14
ATOM     14  C   UNL     1       2.317   6.094  17.884  0.00  0.00    +0.000 C 
BRANCH  14  15
ATOM     15  C   UNL     1       3.229   5.076  18.535  0.00  0.00    +0.000 C 
ATOM     16  O   UNL     1       4.455   5.130  18.408  0.00  0.00    +0.000 OA
ATOM     17  N   UNL     1       2.648   4.075  19.286  0.00  0.00    +0.000 N 
ATOM     18  C   UNL     1       1.233   3.889  19.570  0.00  0.00    +0.000 C 
ATOM     19  C   UNL     1       1.212   3.534  21.042  0.00  0.00    +0.000 C 
ATOM     20  C   UNL     1       2.486   2.718  21.241  0.00  0.00    +0.000 C 
ATOM     21  C   UNL     1       3.464   3.216  20.165  0.00  0.00    +0.000 C 
BRANCH  21  22
ATOM     22  C   UNL     1       4.093   2.016  19.442  0.00  0.00    +0.000 C 
ATOM     23  O   UNL     1       3.660   1.557  18.393  0.00  0.00    +0.000 OA
BRANCH  22  24
ATOM     24  O   UNL     1       5.201   1.518  20.036  0.00  0.00    +0.000 OA
ATOM     25  H   UNL     1       4.964   1.043  20.858  0.00  0.00    +0.000 HD
ENDBRANCH  22  24
ENDBRANCH  21  22
ENDBRANCH  14  15
ENDBRANCH   1  14
TORSDOF 7
ENDMDL
MODEL 2
REMARK VINA RESULT:      -7.4      3.029      4.047
REMARK  Name = 
REMARK  7 active torsions:
REMARK  status: ('A' for Active; 'I' for Inactive)
REMARK    1  A    between atoms: C_2  and  C_3
REMARK    2  A    between atoms: C_3  and  C_4
REMARK    3  A    between atoms: C_4  and  C_5
REMARK    4  A    between atoms: C_11  and  C_12
REMARK    5  A    between atoms: C_12  and  O_14
REMARK    6  A    between atoms: N_15  and  C_16
REMARK    7  A    between atoms: C_16  and  C_17
REMARK                            x       y       z     vdW  Elec       q    Type
REMARK                         _______ _______ _______ _____ _____    ______ ____
ROOT
ATOM      1  C   UNL     1       6.102   5.445  16.914  0.00  0.00    +0.000 C 
ENDROOT
BRANCH   1   3
ATOM      2  O   UNL     1       5.052   6.818  15.248  0.00  0.00    +0.000 OA
ATOM      3  C   UNL     1       5.073   6.441  16.415  0.00  0.00    +0.000 C 
ATOM      4  N   UNL     1       4.198   6.871  17.378  0.00  0.00    +0.000 N 
ATOM      5  H   UNL     1       4.379   6.636  18.345  0.00  0.00    +0.000 HD
BRANCH   4   6
ATOM      6  C   UNL     1       3.162   7.845  17.120  0.00  0.00    +0.000 C 
BRANCH   6   7
ATOM      7  C   UNL     1       2.396   8.141  18.383  0.00  0.00    +0.000 A 
ATOM      8  C   UNL     1       2.401   7.236  19.456  0.00  0.00    +0.000 A 
ATOM      9  C   UNL     1       1.673   7.514  20.617  0.00  0.00    +0.000 A 
ATOM     10  C   UNL     1       0.933   8.690  20.707  0.00  0.00    +0.000 A 
ATOM     11 CL   UNL     1       0.044   9.034  22.140  0.00  0.00    +0.000 Cl
ATOM     12  C   UNL     1       0.907   9.589  19.644  0.00  0.00    +0.000 A 
ATOM     13  C   UNL     1       1.631   9.313  18.483  0.00  0.00    +0.000 A 
ENDBRANCH   6   7
ENDBRANCH   4   6
ENDBRANCH   1   3
BRANCH   1  14
ATOM     14  C   UNL     1       5.431   4.107  17.203  0.00  0.00    +0.000 C 
BRANCH  14  15
ATOM     15  C   UNL     1       4.871   4.060  18.609  0.00  0.00    +0.000 C 
ATOM     16  O   UNL     1       5.540   4.411  19.584  0.00  0.00    +0.000 OA
ATOM     17  N   UNL     1       3.577   3.612  18.774  0.00  0.00    +0.000 N 
ATOM     18  C   UNL     1       2.643   3.203  17.736  0.00  0.00    +0.000 C 
ATOM     19  C   UNL     1       1.338   3.842  18.163  0.00  0.00    +0.000 C 
ATOM     20  C   UNL     1       1.379   3.778  19.687  0.00  0.00    +0.000 C 
ATOM     21  C   UNL     1       2.870   3.789  20.057  0.00  0.00    +0.000 C 
BRANCH  21  22
ATOM     22  C   UNL     1       3.159   2.678  21.077  0.00  0.00    +0.000 C 
ATOM     23  O   UNL     1       2.351   2.305  21.917  0.00  0.00    +0.000 OA
BRANCH  22  24
ATOM     24  O   UNL     1       4.378   2.105  20.955  0.00  0.00    +0.000 OA
ATOM     25  H   UNL     1       4.311   1.260  20.464  0.00  0.00    +0.000 HD
ENDBRANCH  22  24
ENDBRANCH  21  22
ENDBRANCH  14  15
ENDBRANCH   1  14
TORSDOF 7
ENDMDL
MODEL 3
REMARK VINA RESULT:      -7.4      5.111      7.572
REMARK  Name = 
REMARK  7 active torsions:
REMARK  status: ('A' for Active; 'I' for Inactive)
REMARK    1  A    between atoms: C_2  and  C_3
REMARK    2  A    between atoms: C_3  and  C_4
REMARK    3  A    between atoms: C_4  and  C_5
REMARK    4  A    between atoms: C_11  and  C_12
REMARK    5  A    between atoms: C_12  and  O_14
REMARK    6  A    between atoms: N_15  and  C_16
REMARK    7  A    between atoms: C_16  and  C_17
REMARK                            x       y       z     vdW  Elec       q    Type
REMARK                         _______ _______ _______ _____ _____    ______ ____
ROOT
ATOM      1  C   UNL     1       6.752   5.302  18.691  0.00  0.00    +0.000 C 
ENDROOT
BRANCH   1   3
ATOM      2  O   UNL     1       7.180   7.116  17.177  0.00  0.00    +0.000 OA
ATOM      3  C   UNL     1       7.155   5.903  17.358  0.00  0.00    +0.000 C 
ATOM      4  N   UNL     1       7.471   4.976  16.400  0.00  0.00    +0.000 N 
ATOM      5  H   UNL     1       7.274   3.999  16.578  0.00  0.00    +0.000 HD
BRANCH   4   6
ATOM      6  C   UNL     1       7.848   5.336  15.052  0.00  0.00    +0.000 C 
BRANCH   6   7
ATOM      7  C   UNL     1       6.940   4.661  14.057  0.00  0.00    +0.000 A 
ATOM      8  C   UNL     1       7.378   4.389  12.752  0.00  0.00    +0.000 A 
ATOM      9  C   UNL     1       6.521   3.777  11.833  0.00  0.00    +0.000 A 
ATOM     10  C   UNL     1       5.223   3.442  12.210  0.00  0.00    +0.000 A 
ATOM     11 CL   UNL     1       4.172   2.682  11.080  0.00  0.00    +0.000 Cl
ATOM     12  C   UNL     1       4.770   3.721  13.498  0.00  0.00    +0.000 A 
ATOM     13  C   UNL     1       5.623   4.334  14.416  0.00  0.00    +0.000 A 
ENDBRANCH   6   7
ENDBRANCH   4   6
ENDBRANCH   1   3
BRANCH   1  14
ATOM     14  C   UNL     1       5.272   5.557  18.950  0.00  0.00    +0.000 C 
BRANCH  14  15
ATOM     15  C   UNL     1       4.521   4.265  19.192  0.00  0.00    +0.000 C 
ATOM     16  O   UNL     1       5.096   3.174  19.203  0.00  0.00    +0.000 OA
ATOM     17  N   UNL     1       3.160   4.340  19.408  0.00  0.00    +0.000 N 
ATOM     18  C   UNL     1       2.338   5.538  19.469  0.00  0.00    +0.000 C 
ATOM     19  C   UNL     1       1.428   5.283  20.653  0.00  0.00    +0.000 C 
ATOM     20  C   UNL     1       1.171   3.779  20.600  0.00  0.00    +0.000 C 
ATOM     21  C   UNL     1       2.407   3.176  19.916  0.00  0.00    +0.000 C 
BRANCH  21  22
ATOM     22  C   UNL     1       1.965   2.201  18.814  0.00  0.00    +0.000 C 
ATOM     23  O   UNL     1       0.846   2.205  18.317  0.00  0.00    +0.000 OA
BRANCH  22  24
ATOM     24  O   UNL     1       2.928   1.348  18.398  0.00  0.00    +0.000 OA
ATOM     25  H   UNL     1       3.331   0.887  19.162  0.00  0.00    +0.000 HD
ENDBRANCH  22  24
ENDBRANCH  21  22
ENDBRANCH  14  15
ENDBRANCH   1  14
TORSDOF 7
ENDMDL
MODEL 4
REMARK VINA RESULT:      -7.4      0.365      1.252
REMARK  Name = 
REMARK  7 active torsions:
REMARK  status: ('A' for Active; 'I' for Inactive)
REMARK    1  A    between atoms: C_2  and  C_3
REMARK    2  A    between atoms: C_3  and  C_4
REMARK    3  A    between atoms: C_4  and  C_5
REMARK    4  A    between atoms: C_11  and  C_12
REMARK    5  A    between atoms: C_12  and  O_14
REMARK    6  A    between atoms: N_15  and  C_16
REMARK    7  A    between atoms: C_16  and  C_17
REMARK                            x       y       z     vdW  Elec       q    Type
REMARK                         _______ _______ _______ _____ _____    ______ ____
ROOT
ATOM      1  C   UNL     1       2.696   7.456  17.948  0.00  0.00    +0.000 C 
ENDROOT
BRANCH   1   3
ATOM      2  O   UNL     1       1.888   7.915  20.161  0.00  0.00    +0.000 OA
ATOM      3  C   UNL     1       1.951   8.269  18.988  0.00  0.00    +0.000 C 
ATOM      4  N   UNL     1       1.366   9.406  18.495  0.00  0.00    +0.000 N 
ATOM      5  H   UNL     1       1.330   9.544  17.493  0.00  0.00    +0.000 HD
BRANCH   4   6
ATOM      6  C   UNL     1       0.581  10.303  19.311  0.00  0.00    +0.000 C 
BRANCH   6   7
ATOM      7  C   UNL     1      -0.765  10.545  18.678  0.00  0.00    +0.000 A 
ATOM      8  C   UNL     1      -1.132   9.885  17.495  0.00  0.00    +0.000 A 
ATOM      9  C   UNL     1      -2.377  10.130  16.908  0.00  0.00    +0.000 A 
ATOM     10  C   UNL     1      -3.255  11.038  17.495  0.00  0.00    +0.000 A 
ATOM     11 CL   UNL     1      -4.790  11.331  16.775  0.00  0.00    +0.000 Cl
ATOM     12  C   UNL     1      -2.897  11.710  18.661  0.00  0.00    +0.000 A 
ATOM     13  C   UNL     1      -1.653  11.470  19.247  0.00  0.00    +0.000 A 
ENDBRANCH   6   7
ENDBRANCH   4   6
ENDBRANCH   1   3
BRANCH   1  14
ATOM     14  C   UNL     1       2.230   6.005  17.991  0.00  0.00    +0.000 C 
BRANCH  14  15
ATOM     15  C   UNL     1       3.151   5.152  18.838  0.00  0.00    +0.000 C 
ATOM     16  O   UNL     1       4.336   5.449  19.007  0.00  0.00    +0.000 OA
ATOM     17  N   UNL     1       2.622   4.022  19.428  0.00  0.00    +0.000 N 
ATOM     18  C   UNL     1       1.247   3.552  19.367  0.00  0.00    +0.000 C 
ATOM     19  C   UNL     1       0.955   3.127  20.791  0.00  0.00    +0.000 C 
ATOM     20  C   UNL     1       2.285   2.564  21.286  0.00  0.00    +0.000 C 
ATOM     21  C   UNL     1       3.366   3.294  20.475  0.00  0.00    +0.000 C 
BRANCH  21  22
ATOM     22  C   UNL     1       4.373   2.277  19.919  0.00  0.00    +0.000 C 
ATOM     23  O   UNL     1       5.205   1.703  20.611  0.00  0.00    +0.000 OA
BRANCH  22  24
ATOM     24  O   UNL     1       4.248   2.026  18.597  0.00  0.00    +0.000 OA
ATOM     25  H   UNL     1       5.057   2.301  18.119  0.00  0.00    +0.000 HD
ENDBRANCH  22  24
ENDBRANCH  21  22
ENDBRANCH  14  15
ENDBRANCH   1  14
TORSDOF 7
ENDMDL
MODEL 5
REMARK VINA RESULT:      -7.3      3.089      4.888
REMARK  Name = 
REMARK  7 active torsions:
REMARK  status: ('A' for Active; 'I' for Inactive)
REMARK    1  A    between atoms: C_2  and  C_3
REMARK    2  A    between atoms: C_3  and  C_4
REMARK    3  A    between atoms: C_4  and  C_5
REMARK    4  A    between atoms: C_11  and  C_12
REMARK    5  A    between atoms: C_12  and  O_14
REMARK    6  A    between atoms: N_15  and  C_16
REMARK    7  A    between atoms: C_16  and  C_17
REMARK                            x       y       z     vdW  Elec       q    Type
REMARK                         _______ _______ _______ _____ _____    ______ ____
ROOT
ATOM      1  C   UNL     1       3.203   4.251  20.134  0.00  0.00    +0.000 C 
ENDROOT
BRANCH   1   3
ATOM      2  O   UNL     1       1.979   5.049  18.229  0.00  0.00    +0.000 OA
ATOM      3  C   UNL     1       2.568   5.323  19.270  0.00  0.00    +0.000 C 
ATOM      4  N   UNL     1       2.723   6.596  19.754  0.00  0.00    +0.000 N 
ATOM      5  H   UNL     1       3.353   6.752  20.530  0.00  0.00    +0.000 HD
BRANCH   4   6
ATOM      6  C   UNL     1       2.223   7.764  19.066  0.00  0.00    +0.000 C 
BRANCH   6   7
ATOM      7  C   UNL     1       1.410   8.616  20.006  0.00  0.00    +0.000 A 
ATOM      8  C   UNL     1       0.876   9.844  19.585  0.00  0.00    +0.000 A 
ATOM      9  C   UNL     1       0.137  10.633  20.471  0.00  0.00    +0.000 A 
ATOM     10  C   UNL     1      -0.065  10.204  21.781  0.00  0.00    +0.000 A 
ATOM     11 CL   UNL     1      -0.981  11.173  22.867  0.00  0.00    +0.000 Cl
ATOM     12  C   UNL     1       0.473   8.995  22.216  0.00  0.00    +0.000 A 
ATOM     13  C   UNL     1       1.213   8.206  21.334  0.00  0.00    +0.000 A 
ENDBRANCH   6   7
ENDBRANCH   4   6
ENDBRANCH   1   3
BRANCH   1  14
ATOM     14  C   UNL     1       4.272   3.510  19.340  0.00  0.00    +0.000 C 
BRANCH  14  15
ATOM     15  C   UNL     1       5.399   4.435  18.929  0.00  0.00    +0.000 C 
ATOM     16  O   UNL     1       6.123   4.983  19.764  0.00  0.00    +0.000 OA
ATOM     17  N   UNL     1       5.600   4.648  17.581  0.00  0.00    +0.000 N 
ATOM     18  C   UNL     1       4.871   4.053  16.472  0.00  0.00    +0.000 C 
ATOM     19  C   UNL     1       5.961   3.692  15.484  0.00  0.00    +0.000 C 
ATOM     20  C   UNL     1       6.987   4.811  15.647  0.00  0.00    +0.000 C 
ATOM     21  C   UNL     1       6.827   5.307  17.092  0.00  0.00    +0.000 C 
BRANCH  21  22
ATOM     22  C   UNL     1       6.749   6.840  17.107  0.00  0.00    +0.000 C 
ATOM     23  O   UNL     1       7.729   7.568  17.011  0.00  0.00    +0.000 OA
BRANCH  22  24
ATOM     24  O   UNL     1       5.496   7.340  17.197  0.00  0.00    +0.000 OA
ATOM     25  H   UNL     1       5.293   7.898  16.419  0.00  0.00    +0.000 HD
ENDBRANCH  22  24
ENDBRANCH  21  22
ENDBRANCH  14  15
ENDBRANCH   1  14
TORSDOF 7
ENDMDL
MODEL 6
REMARK VINA RESULT:      -7.3      5.709      7.541
REMARK  Name = 
REMARK  7 active torsions:
REMARK  status: ('A' for Active; 'I' for Inactive)
REMARK    1  A    between atoms: C_2  and  C_3
REMARK    2  A    between atoms: C_3  and  C_4
REMARK    3  A    between atoms: C_4  and  C_5
REMARK    4  A    between atoms: C_11  and  C_12
REMARK    5  A    between atoms: C_12  and  O_14
REMARK    6  A    between atoms: N_15  and  C_16
REMARK    7  A    between atoms: C_16  and  C_17
REMARK                            x       y       z     vdW  Elec       q    Type
REMARK                         _______ _______ _______ _____ _____    ______ ____
ROOT
ATOM      1  C   UNL     1       7.271   5.484  18.621  0.00  0.00    +0.000 C 
ENDROOT
BRANCH   1   3
ATOM      2  O   UNL     1       7.474   6.400  16.411  0.00  0.00    +0.000 OA
ATOM      3  C   UNL     1       7.552   6.588  17.621  0.00  0.00    +0.000 C 
ATOM      4  N   UNL     1       7.901   7.784  18.193  0.00  0.00    +0.000 N 
ATOM      5  H   UNL     1       8.096   7.815  19.185  0.00  0.00    +0.000 HD
BRANCH   4   6
ATOM      6  C   UNL     1       8.242   8.955  17.418  0.00  0.00    +0.000 C 
BRANCH   6   7
ATOM      7  C   UNL     1       8.765  10.044  18.319  0.00  0.00    +0.000 A 
ATOM      8  C   UNL     1       9.098   9.774  19.655  0.00  0.00    +0.000 A 
ATOM      9  C   UNL     1       9.567  10.796  20.486  0.00  0.00    +0.000 A 
ATOM     10  C   UNL     1       9.698  12.090  19.988  0.00  0.00    +0.000 A 
ATOM     11 CL   UNL     1      10.282  13.345  21.010  0.00  0.00    +0.000 Cl
ATOM     12  C   UNL     1       9.356  12.375  18.669  0.00  0.00    +0.000 A 
ATOM     13  C   UNL     1       8.885  11.357  17.838  0.00  0.00    +0.000 A 
ENDBRANCH   6   7
ENDBRANCH   4   6
ENDBRANCH   1   3
BRANCH   1  14
ATOM     14  C   UNL     1       5.910   5.706  19.272  0.00  0.00    +0.000 C 
BRANCH  14  15
ATOM     15  C   UNL     1       5.038   4.473  19.169  0.00  0.00    +0.000 C 
ATOM     16  O   UNL     1       5.522   3.349  19.010  0.00  0.00    +0.000 OA
ATOM     17  N   UNL     1       3.672   4.639  19.262  0.00  0.00    +0.000 N 
ATOM     18  C   UNL     1       2.944   5.877  19.489  0.00  0.00    +0.000 C 
ATOM     19  C   UNL     1       1.887   5.486  20.501  0.00  0.00    +0.000 C 
ATOM     20  C   UNL     1       1.522   4.055  20.115  0.00  0.00    +0.000 C 
ATOM     21  C   UNL     1       2.777   3.479  19.444  0.00  0.00    +0.000 C 
BRANCH  21  22
ATOM     22  C   UNL     1       2.391   2.789  18.127  0.00  0.00    +0.000 C 
ATOM     23  O   UNL     1       2.437   3.341  17.035  0.00  0.00    +0.000 OA
BRANCH  22  24
ATOM     24  O   UNL     1       2.025   1.494  18.258  0.00  0.00    +0.000 OA
ATOM     25  H   UNL     1       1.372   1.393  18.980  0.00  0.00    +0.000 HD
ENDBRANCH  22  24
ENDBRANCH  21  22
ENDBRANCH  14  15
ENDBRANCH   1  14
TORSDOF 7
ENDMDL
MODEL 7
REMARK VINA RESULT:      -7.3      3.124      4.913
REMARK  Name = 
REMARK  7 active torsions:
REMARK  status: ('A' for Active; 'I' for Inactive)
REMARK    1  A    between atoms: C_2  and  C_3
REMARK    2  A    between atoms: C_3  and  C_4
REMARK    3  A    between atoms: C_4  and  C_5
REMARK    4  A    between atoms: C_11  and  C_12
REMARK    5  A    between atoms: C_12  and  O_14
REMARK    6  A    between atoms: N_15  and  C_16
REMARK    7  A    between atoms: C_16  and  C_17
REMARK                            x       y       z     vdW  Elec       q    Type
REMARK                         _______ _______ _______ _____ _____    ______ ____
ROOT
ATOM      1  C   UNL     1       3.052   4.066  19.692  0.00  0.00    +0.000 C 
ENDROOT
BRANCH   1   3
ATOM      2  O   UNL     1       1.903   5.060  17.833  0.00  0.00    +0.000 OA
ATOM      3  C   UNL     1       2.493   5.229  18.895  0.00  0.00    +0.000 C 
ATOM      4  N   UNL     1       2.716   6.455  19.465  0.00  0.00    +0.000 N 
ATOM      5  H   UNL     1       3.344   6.522  20.256  0.00  0.00    +0.000 HD
BRANCH   4   6
ATOM      6  C   UNL     1       2.295   7.694  18.853  0.00  0.00    +0.000 C 
BRANCH   6   7
ATOM      7  C   UNL     1       1.511   8.524  19.836  0.00  0.00    +0.000 A 
ATOM      8  C   UNL     1       1.412   8.142  21.183  0.00  0.00    +0.000 A 
ATOM      9  C   UNL     1       0.668   8.910  22.082  0.00  0.00    +0.000 A 
ATOM     10  C   UNL     1       0.015  10.058  21.640  0.00  0.00    +0.000 A 
ATOM     11 CL   UNL     1      -0.894  11.007  22.750  0.00  0.00    +0.000 Cl
ATOM     12  C   UNL     1       0.092  10.440  20.303  0.00  0.00    +0.000 A 
ATOM     13  C   UNL     1       0.832   9.673  19.402  0.00  0.00    +0.000 A 
ENDBRANCH   6   7
ENDBRANCH   4   6
ENDBRANCH   1   3
BRANCH   1  14
ATOM     14  C   UNL     1       4.095   3.323  18.865  0.00  0.00    +0.000 C 
BRANCH  14  15
ATOM     15  C   UNL     1       5.302   4.193  18.583  0.00  0.00    +0.000 C 
ATOM     16  O   UNL     1       6.026   4.608  19.492  0.00  0.00    +0.000 OA
ATOM     17  N   UNL     1       5.578   4.509  17.269  0.00  0.00    +0.000 N 
ATOM     18  C   UNL     1       4.858   4.072  16.084  0.00  0.00    +0.000 C 
ATOM     19  C   UNL     1       5.963   3.718  15.109  0.00  0.00    +0.000 C 
ATOM     20  C   UNL     1       7.058   4.737  15.413  0.00  0.00    +0.000 C 
ATOM     21  C   UNL     1       6.869   5.114  16.890  0.00  0.00    +0.000 C 
BRANCH  21  22
ATOM     22  C   UNL     1       6.902   6.642  17.043  0.00  0.00    +0.000 C 
ATOM     23  O   UNL     1       7.882   7.327  16.780  0.00  0.00    +0.000 OA
BRANCH  22  24
ATOM     24  O   UNL     1       5.738   7.190  17.458  0.00  0.00    +0.000 OA
ATOM     25  H   UNL     1       5.866   8.135  17.681  0.00  0.00    +0.000 HD
ENDBRANCH  22  24
ENDBRANCH  21  22
ENDBRANCH  14  15
ENDBRANCH   1  14
TORSDOF 7
ENDMDL
MODEL 8
REMARK VINA RESULT:      -7.3      2.338      3.372
REMARK  Name = 
REMARK  7 active torsions:
REMARK  status: ('A' for Active; 'I' for Inactive)
REMARK    1  A    between atoms: C_2  and  C_3
REMARK    2  A    between atoms: C_3  and  C_4
REMARK    3  A    between atoms: C_4  and  C_5
REMARK    4  A    between atoms: C_11  and  C_12
REMARK    5  A    between atoms: C_12  and  O_14
REMARK    6  A    between atoms: N_15  and  C_16
REMARK    7  A    between atoms: C_16  and  C_17
REMARK                            x       y       z     vdW  Elec       q    Type
REMARK                         _______ _______ _______ _____ _____    ______ ____
ROOT
ATOM      1  C   UNL     1       2.903   7.900  17.923  0.00  0.00    +0.000 C 
ENDROOT
BRANCH   1   3
ATOM      2  O   UNL     1       1.812   7.816  20.059  0.00  0.00    +0.000 OA
ATOM      3  C   UNL     1       1.984   8.425  19.008  0.00  0.00    +0.000 C 
ATOM      4  N   UNL     1       1.376   9.613  18.699  0.00  0.00    +0.000 N 
ATOM      5  H   UNL     1       1.446   9.969  17.754  0.00  0.00    +0.000 HD
BRANCH   4   6
ATOM      6  C   UNL     1       0.437  10.268  19.581  0.00  0.00    +0.000 C 
BRANCH   6   7
ATOM      7  C   UNL     1      -0.837  10.589  18.843  0.00  0.00    +0.000 A 
ATOM      8  C   UNL     1      -1.773  11.488  19.378  0.00  0.00    +0.000 A 
ATOM      9  C   UNL     1      -2.958  11.766  18.692  0.00  0.00    +0.000 A 
ATOM     10  C   UNL     1      -3.218  11.141  17.474  0.00  0.00    +0.000 A 
ATOM     11 CL   UNL     1      -4.675  11.490  16.628  0.00  0.00    +0.000 Cl
ATOM     12  C   UNL     1      -2.306  10.235  16.939  0.00  0.00    +0.000 A 
ATOM     13  C   UNL     1      -1.122   9.954  17.624  0.00  0.00    +0.000 A 
ENDBRANCH   6   7
ENDBRANCH   4   6
ENDBRANCH   1   3
BRANCH   1  14
ATOM     14  C   UNL     1       2.887   6.375  17.921  0.00  0.00    +0.000 C 
BRANCH  14  15
ATOM     15  C   UNL     1       4.149   5.806  18.534  0.00  0.00    +0.000 C 
ATOM     16  O   UNL     1       4.181   5.418  19.704  0.00  0.00    +0.000 OA
ATOM     17  N   UNL     1       5.275   5.729  17.740  0.00  0.00    +0.000 N 
ATOM     18  C   UNL     1       5.397   6.101  16.340  0.00  0.00    +0.000 C 
ATOM     19  C   UNL     1       6.208   4.969  15.742  0.00  0.00    +0.000 C 
ATOM     20  C   UNL     1       7.170   4.578  16.861  0.00  0.00    +0.000 C 
ATOM     21  C   UNL     1       6.452   4.948  18.167  0.00  0.00    +0.000 C 
BRANCH  21  22
ATOM     22  C   UNL     1       7.408   5.728  19.081  0.00  0.00    +0.000 C 
ATOM     23  O   UNL     1       7.649   5.408  20.239  0.00  0.00    +0.000 OA
BRANCH  22  24
ATOM     24  O   UNL     1       8.007   6.789  18.495  0.00  0.00    +0.000 OA
ATOM     25  H   UNL     1       7.689   7.625  18.894  0.00  0.00    +0.000 HD
ENDBRANCH  22  24
ENDBRANCH  21  22
ENDBRANCH  14  15
ENDBRANCH   1  14
TORSDOF 7
ENDMDL
MODEL 9
REMARK VINA RESULT:      -7.3      3.321      5.457
REMARK  Name = 
REMARK  7 active torsions:
REMARK  status: ('A' for Active; 'I' for Inactive)
REMARK    1  A    between atoms: C_2  and  C_3
REMARK    2  A    between atoms: C_3  and  C_4
REMARK    3  A    between atoms: C_4  and  C_5
REMARK    4  A    between atoms: C_11  and  C_12
REMARK    5  A    between atoms: C_12  and  O_14
REMARK    6  A    between atoms: N_15  and  C_16
REMARK    7  A    between atoms: C_16  and  C_17
REMARK                            x       y       z     vdW  Elec       q    Type
REMARK                         _______ _______ _______ _____ _____    ______ ____
ROOT
ATOM      1  C   UNL     1       4.117   2.308  19.893  0.00  0.00    +0.000 C 
ENDROOT
BRANCH   1   3
ATOM      2  O   UNL     1       2.848   2.719  21.889  0.00  0.00    +0.000 OA
ATOM      3  C   UNL     1       3.180   3.110  20.774  0.00  0.00    +0.000 C 
ATOM      4  N   UNL     1       2.747   4.281  20.210  0.00  0.00    +0.000 N 
ATOM      5  H   UNL     1       2.938   4.454  19.232  0.00  0.00    +0.000 HD
BRANCH   4   6
ATOM      6  C   UNL     1       1.823   5.176  20.869  0.00  0.00    +0.000 C 
BRANCH   6   7
ATOM      7  C   UNL     1       1.822   6.521  20.189  0.00  0.00    +0.000 A 
ATOM      8  C   UNL     1       1.312   7.656  20.838  0.00  0.00    +0.000 A 
ATOM      9  C   UNL     1       1.302   8.894  20.191  0.00  0.00    +0.000 A 
ATOM     10  C   UNL     1       1.793   9.003  18.892  0.00  0.00    +0.000 A 
ATOM     11 CL   UNL     1       1.787  10.530  18.100  0.00  0.00    +0.000 Cl
ATOM     12  C   UNL     1       2.288   7.882  18.231  0.00  0.00    +0.000 A 
ATOM     13  C   UNL     1       2.297   6.643  18.874  0.00  0.00    +0.000 A 
ENDBRANCH   6   7
ENDBRANCH   4   6
ENDBRANCH   1   3
BRANCH   1  14
ATOM     14  C   UNL     1       4.156   2.910  18.493  0.00  0.00    +0.000 C 
BRANCH  14  15
ATOM     15  C   UNL     1       5.292   3.901  18.347  0.00  0.00    +0.000 C 
ATOM     16  O   UNL     1       5.945   4.285  19.320  0.00  0.00    +0.000 OA
ATOM     17  N   UNL     1       5.584   4.366  17.081  0.00  0.00    +0.000 N 
ATOM     18  C   UNL     1       4.947   3.988  15.830  0.00  0.00    +0.000 C 
ATOM     19  C   UNL     1       6.111   3.824  14.875  0.00  0.00    +0.000 C 
ATOM     20  C   UNL     1       7.103   4.896  15.320  0.00  0.00    +0.000 C 
ATOM     21  C   UNL     1       6.831   5.110  16.816  0.00  0.00    +0.000 C 
BRANCH  21  22
ATOM     22  C   UNL     1       6.724   6.613  17.114  0.00  0.00    +0.000 C 
ATOM     23  O   UNL     1       5.727   7.139  17.593  0.00  0.00    +0.000 OA
BRANCH  22  24
ATOM     24  O   UNL     1       7.843   7.322  16.840  0.00  0.00    +0.000 OA
ATOM     25  H   UNL     1       8.137   7.155  15.921  0.00  0.00    +0.000 HD
ENDBRANCH  22  24
ENDBRANCH  21  22
ENDBRANCH  14  15
ENDBRANCH   1  14
TORSDOF 7
ENDMDL
