MODEL 1
REMARK VINA RESULT:      -9.0      0.000      0.000
REMARK  Name = 
REMARK  10 active torsions:
REMARK  status: ('A' for Active; 'I' for Inactive)
REMARK    1  A    between atoms: C_1  and  C_2
REMARK    2  A    between atoms: C_2  and  C_3
REMARK    3  A    between atoms: C_7  and  C_8
REMARK    4  A    between atoms: C_8  and  C_9
REMARK    5  A    between atoms: C_9  and  C_10
REMARK    6  A    between atoms: C_9  and  O_11
REMARK    7  A    between atoms: C_9  and  C_25
REMARK    8  A    between atoms: O_11  and  C_12
REMARK    9  A    between atoms: C_15  and  C_16
REMARK   10  A    between atoms: C_16  and  C_17
REMARK                            x       y       z     vdW  Elec       q    Type
REMARK                         _______ _______ _______ _____ _____    ______ ____
ROOT
ATOM      1  C   UNL     1       2.771   4.777  19.309  0.00  0.00    +0.000 C 
ATOM      2  C   UNL     1       2.067   4.892  20.670  0.00  0.00    +0.000 C 
ENDROOT
BRANCH   1   3
ATOM      3  C   UNL     1       1.636   3.969  18.553  0.00  0.00    +0.000 C 
ATOM      4  O   UNL     1       1.117   3.005  19.202  0.00  0.00    +0.000 OA
ATOM      5  O   UNL     1       1.288   4.413  17.417  0.00  0.00    +0.000 OA
ENDBRANCH   1   3
BRANCH   1   6
ATOM      6  C   UNL     1       4.056   3.919  19.382  0.00  0.00    +0.000 C 
BRANCH   6  11
ATOM      7  C   UNL     1       7.032   5.737  17.846  0.00  0.00    +0.000 A 
ATOM      8  C   UNL     1       6.890   5.417  16.496  0.00  0.00    +0.000 A 
ATOM      9  C   UNL     1       5.887   4.531  16.084  0.00  0.00    +0.000 A 
ATOM     10  C   UNL     1       4.992   3.994  17.009  0.00  0.00    +0.000 A 
ATOM     11  C   UNL     1       5.117   4.307  18.369  0.00  0.00    +0.000 A 
ATOM     12  C   UNL     1       6.177   5.128  18.770  0.00  0.00    +0.000 A 
BRANCH   7  14
ATOM     13  C   UNL     1       7.871   8.181  17.654  0.00  0.00    +0.000 C 
ATOM     14  C   UNL     1       7.907   6.848  18.378  0.00  0.00    +0.000 C 
ENDBRANCH   7  14
ENDBRANCH   6  11
ENDBRANCH   1   6
BRANCH   1  15
ATOM     15  O   UNL     1       2.961   6.034  18.621  0.00  0.00    +0.000 OA
BRANCH  15  16
ATOM     16  C   UNL     1       2.402   7.242  18.877  0.00  0.00    +0.000 A 
ATOM     17  C   UNL     1       2.376   8.093  17.765  0.00  0.00    +0.000 A 
ATOM     18  C   UNL     1       1.747   9.342  17.807  0.00  0.00    +0.000 A 
ATOM     19  C   UNL     1       1.092   9.757  18.969  0.00  0.00    +0.000 A 
ATOM     20  C   UNL     1       1.168   8.932  20.102  0.00  0.00    +0.000 A 
ATOM     21  C   UNL     1       1.838   7.695  20.060  0.00  0.00    +0.000 A 
BRANCH  19  22
ATOM     22  C   UNL     1       0.247  11.013  18.962  0.00  0.00    +0.000 C 
BRANCH  22  23
ATOM     23  C   UNL     1      -1.179  10.882  18.449  0.00  0.00    +0.000 A 
ATOM     24  C   UNL     1      -1.560   9.966  17.457  0.00  0.00    +0.000 A 
ATOM     25  C   UNL     1      -2.887   9.881  17.025  0.00  0.00    +0.000 A 
ATOM     26  C   UNL     1      -3.858  10.713  17.572  0.00  0.00    +0.000 A 
ATOM     27  C   UNL     1      -3.500  11.640  18.548  0.00  0.00    +0.000 A 
ATOM     28  C   UNL     1      -2.173  11.724  18.981  0.00  0.00    +0.000 A 
ENDBRANCH  22  23
ENDBRANCH  19  22
ENDBRANCH  15  16
ENDBRANCH   1  15
TORSDOF 8
ENDMDL
MODEL 2
REMARK VINA RESULT:      -8.9      0.958      1.561
REMARK  Name = 
REMARK  10 active torsions:
REMARK  status: ('A' for Active; 'I' for Inactive)
REMARK    1  A    between atoms: C_1  and  C_2
REMARK    2  A    between atoms: C_2  and  C_3
REMARK    3  A    between atoms: C_7  and  C_8
REMARK    4  A    between atoms: C_8  and  C_9
REMARK    5  A    between atoms: C_9  and  C_10
REMARK    6  A    between atoms: C_9  and  O_11
REMARK    7  A    between atoms: C_9  and  C_25
REMARK    8  A    between atoms: O_11  and  C_12
REMARK    9  A    between atoms: C_15  and  C_16
REMARK   10  A    between atoms: C_16  and  C_17
REMARK                            x       y       z     vdW  Elec       q    Type
REMARK                         _______ _______ _______ _____ _____    ______ ____
ROOT
ATOM      1  C   UNL     1       2.981   3.925  19.361  0.00  0.00    +0.000 C 
ATOM      2  C   UNL     1       2.789   3.138  20.666  0.00  0.00    +0.000 C 
ENDROOT
BRANCH   1   3
ATOM      3  C   UNL     1       1.462   3.960  18.910  0.00  0.00    +0.000 C 
ATOM      4  O   UNL     1       1.257   3.973  17.654  0.00  0.00    +0.000 OA
ATOM      5  O   UNL     1       0.597   3.877  19.834  0.00  0.00    +0.000 OA
ENDBRANCH   1   3
BRANCH   1   6
ATOM      6  C   UNL     1       3.812   3.141  18.318  0.00  0.00    +0.000 C 
BRANCH   6  11
ATOM      7  C   UNL     1       6.721   5.484  17.566  0.00  0.00    +0.000 A 
ATOM      8  C   UNL     1       6.401   5.924  16.281  0.00  0.00    +0.000 A 
ATOM      9  C   UNL     1       5.294   5.393  15.609  0.00  0.00    +0.000 A 
ATOM     10  C   UNL     1       4.473   4.452  16.231  0.00  0.00    +0.000 A 
ATOM     11  C   UNL     1       4.776   4.000  17.522  0.00  0.00    +0.000 A 
ATOM     12  C   UNL     1       5.933   4.483  18.142  0.00  0.00    +0.000 A 
BRANCH   7  14
ATOM     13  C   UNL     1       7.846   5.629  19.895  0.00  0.00    +0.000 C 
ATOM     14  C   UNL     1       7.733   6.144  18.472  0.00  0.00    +0.000 C 
ENDBRANCH   7  14
ENDBRANCH   6  11
ENDBRANCH   1   6
BRANCH   1  15
ATOM     15  O   UNL     1       3.427   5.288  19.539  0.00  0.00    +0.000 OA
BRANCH  15  16
ATOM     16  C   UNL     1       2.804   6.443  19.197  0.00  0.00    +0.000 A 
ATOM     17  C   UNL     1       2.066   7.011  20.243  0.00  0.00    +0.000 A 
ATOM     18  C   UNL     1       1.437   8.254  20.112  0.00  0.00    +0.000 A 
ATOM     19  C   UNL     1       1.565   8.981  18.927  0.00  0.00    +0.000 A 
ATOM     20  C   UNL     1       2.254   8.388  17.857  0.00  0.00    +0.000 A 
ATOM     21  C   UNL     1       2.848   7.119  17.987  0.00  0.00    +0.000 A 
BRANCH  19  22
ATOM     22  C   UNL     1       1.058  10.405  18.845  0.00  0.00    +0.000 C 
BRANCH  22  23
ATOM     23  C   UNL     1      -0.417  10.595  18.526  0.00  0.00    +0.000 A 
ATOM     24  C   UNL     1      -1.112   9.805  17.597  0.00  0.00    +0.000 A 
ATOM     25  C   UNL     1      -2.470  10.017  17.343  0.00  0.00    +0.000 A 
ATOM     26  C   UNL     1      -3.160  11.025  18.010  0.00  0.00    +0.000 A 
ATOM     27  C   UNL     1      -2.488  11.829  18.926  0.00  0.00    +0.000 A 
ATOM     28  C   UNL     1      -1.128  11.617  19.180  0.00  0.00    +0.000 A 
ENDBRANCH  22  23
ENDBRANCH  19  22
ENDBRANCH  15  16
ENDBRANCH   1  15
TORSDOF 8
ENDMDL
MODEL 3
REMARK VINA RESULT:      -8.8      0.890      2.056
REMARK  Name = 
REMARK  10 active torsions:
REMARK  status: ('A' for Active; 'I' for Inactive)
REMARK    1  A    between atoms: C_1  and  C_2
REMARK    2  A    between atoms: C_2  and  C_3
REMARK    3  A    between atoms: C_7  and  C_8
REMARK    4  A    between atoms: C_8  and  C_9
REMARK    5  A    between atoms: C_9  and  C_10
REMARK    6  A    between atoms: C_9  and  O_11
REMARK    7  A    between atoms: C_9  and  C_25
REMARK    8  A    between atoms: O_11  and  C_12
REMARK    9  A    between atoms: C_15  and  C_16
REMARK   10  A    between atoms: C_16  and  C_17
REMARK                            x       y       z     vdW  Elec       q    Type
REMARK                         _______ _______ _______ _____ _____    ______ ____
ROOT
ATOM      1  C   UNL     1       3.043   4.290  19.899  0.00  0.00    +0.000 C 
ATOM      2  C   UNL     1       2.513   3.599  21.165  0.00  0.00    +0.000 C 
ENDROOT
BRANCH   1   3
ATOM      3  C   UNL     1       1.740   4.129  19.011  0.00  0.00    +0.000 C 
ATOM      4  O   UNL     1       1.932   4.058  17.754  0.00  0.00    +0.000 OA
ATOM      5  O   UNL     1       0.644   3.991  19.635  0.00  0.00    +0.000 OA
ENDBRANCH   1   3
BRANCH   1   6
ATOM      6  C   UNL     1       4.211   3.512  19.249  0.00  0.00    +0.000 C 
BRANCH   6  11
ATOM      7  C   UNL     1       6.509   4.858  16.524  0.00  0.00    +0.000 A 
ATOM      8  C   UNL     1       7.373   5.668  17.262  0.00  0.00    +0.000 A 
ATOM      9  C   UNL     1       7.160   5.861  18.632  0.00  0.00    +0.000 A 
ATOM     10  C   UNL     1       6.111   5.214  19.284  0.00  0.00    +0.000 A 
ATOM     11  C   UNL     1       5.235   4.394  18.561  0.00  0.00    +0.000 A 
ATOM     12  C   UNL     1       5.416   4.280  17.178  0.00  0.00    +0.000 A 
BRANCH   7  14
ATOM     13  C   UNL     1       5.578   4.252  14.184  0.00  0.00    +0.000 C 
ATOM     14  C   UNL     1       6.770   4.386  15.113  0.00  0.00    +0.000 C 
ENDBRANCH   7  14
ENDBRANCH   6  11
ENDBRANCH   1   6
BRANCH   1  15
ATOM     15  O   UNL     1       3.310   5.702  20.050  0.00  0.00    +0.000 OA
BRANCH  15  16
ATOM     16  C   UNL     1       2.642   6.759  19.526  0.00  0.00    +0.000 A 
ATOM     17  C   UNL     1       1.827   7.421  20.454  0.00  0.00    +0.000 A 
ATOM     18  C   UNL     1       1.139   8.594  20.127  0.00  0.00    +0.000 A 
ATOM     19  C   UNL     1       1.282   9.157  18.857  0.00  0.00    +0.000 A 
ATOM     20  C   UNL     1       2.049   8.464  17.908  0.00  0.00    +0.000 A 
ATOM     21  C   UNL     1       2.704   7.263  18.236  0.00  0.00    +0.000 A 
BRANCH  19  22
ATOM     22  C   UNL     1       0.702  10.524  18.558  0.00  0.00    +0.000 C 
BRANCH  22  23
ATOM     23  C   UNL     1      -0.793  10.595  18.286  0.00  0.00    +0.000 A 
ATOM     24  C   UNL     1      -1.449   9.763  17.367  0.00  0.00    +0.000 A 
ATOM     25  C   UNL     1      -2.827   9.864  17.157  0.00  0.00    +0.000 A 
ATOM     26  C   UNL     1      -3.577  10.803  17.860  0.00  0.00    +0.000 A 
ATOM     27  C   UNL     1      -2.944  11.648  18.768  0.00  0.00    +0.000 A 
ATOM     28  C   UNL     1      -1.565  11.546  18.977  0.00  0.00    +0.000 A 
ENDBRANCH  22  23
ENDBRANCH  19  22
ENDBRANCH  15  16
ENDBRANCH   1  15
TORSDOF 8
ENDMDL
MODEL 4
REMARK VINA RESULT:      -8.8      1.145      2.363
REMARK  Name = 
REMARK  10 active torsions:
REMARK  status: ('A' for Active; 'I' for Inactive)
REMARK    1  A    between atoms: C_1  and  C_2
REMARK    2  A    between atoms: C_2  and  C_3
REMARK    3  A    between atoms: C_7  and  C_8
REMARK    4  A    between atoms: C_8  and  C_9
REMARK    5  A    between atoms: C_9  and  C_10
REMARK    6  A    between atoms: C_9  and  O_11
REMARK    7  A    between atoms: C_9  and  C_25
REMARK    8  A    between atoms: O_11  and  C_12
REMARK    9  A    between atoms: C_15  and  C_16
REMARK   10  A    between atoms: C_16  and  C_17
REMARK                            x       y       z     vdW  Elec       q    Type
REMARK                         _______ _______ _______ _____ _____    ______ ____
ROOT
ATOM      1  C   UNL     1       3.057   4.013  19.384  0.00  0.00    +0.000 C 
ATOM      2  C   UNL     1       3.444   3.003  20.477  0.00  0.00    +0.000 C 
ENDROOT
BRANCH   1   3
ATOM      3  C   UNL     1       1.486   3.813  19.459  0.00  0.00    +0.000 C 
ATOM      4  O   UNL     1       0.962   3.973  20.608  0.00  0.00    +0.000 OA
ATOM      5  O   UNL     1       0.890   3.608  18.359  0.00  0.00    +0.000 OA
ENDBRANCH   1   3
BRANCH   1   6
ATOM      6  C   UNL     1       3.566   3.590  17.986  0.00  0.00    +0.000 C 
BRANCH   6  11
ATOM      7  C   UNL     1       6.365   4.911  15.763  0.00  0.00    +0.000 A 
ATOM      8  C   UNL     1       7.414   5.029  16.674  0.00  0.00    +0.000 A 
ATOM      9  C   UNL     1       7.198   4.774  18.034  0.00  0.00    +0.000 A 
ATOM     10  C   UNL     1       5.947   4.358  18.487  0.00  0.00    +0.000 A 
ATOM     11  C   UNL     1       4.881   4.231  17.586  0.00  0.00    +0.000 A 
ATOM     12  C   UNL     1       5.097   4.570  16.246  0.00  0.00    +0.000 A 
BRANCH   7  14
ATOM     13  C   UNL     1       6.181   3.657  13.503  0.00  0.00    +0.000 C 
ATOM     14  C   UNL     1       6.526   4.925  14.261  0.00  0.00    +0.000 C 
ENDBRANCH   7  14
ENDBRANCH   6  11
ENDBRANCH   1   6
BRANCH   1  15
ATOM     15  O   UNL     1       3.350   5.391  19.706  0.00  0.00    +0.000 OA
BRANCH  15  16
ATOM     16  C   UNL     1       2.730   6.518  19.280  0.00  0.00    +0.000 A 
ATOM     17  C   UNL     1       2.064   7.210  20.299  0.00  0.00    +0.000 A 
ATOM     18  C   UNL     1       1.452   8.448  20.074  0.00  0.00    +0.000 A 
ATOM     19  C   UNL     1       1.525   9.044  18.813  0.00  0.00    +0.000 A 
ATOM     20  C   UNL     1       2.140   8.326  17.776  0.00  0.00    +0.000 A 
ATOM     21  C   UNL     1       2.717   7.064  18.005  0.00  0.00    +0.000 A 
BRANCH  19  22
ATOM     22  C   UNL     1       1.040  10.464  18.611  0.00  0.00    +0.000 C 
BRANCH  22  23
ATOM     23  C   UNL     1      -0.459  10.666  18.456  0.00  0.00    +0.000 A 
ATOM     24  C   UNL     1      -1.172  11.678  19.117  0.00  0.00    +0.000 A 
ATOM     25  C   UNL     1      -2.551  11.825  18.935  0.00  0.00    +0.000 A 
ATOM     26  C   UNL     1      -3.244  10.962  18.092  0.00  0.00    +0.000 A 
ATOM     27  C   UNL     1      -2.559   9.943  17.436  0.00  0.00    +0.000 A 
ATOM     28  C   UNL     1      -1.179   9.796  17.618  0.00  0.00    +0.000 A 
ENDBRANCH  22  23
ENDBRANCH  19  22
ENDBRANCH  15  16
ENDBRANCH   1  15
TORSDOF 8
ENDMDL
MODEL 5
REMARK VINA RESULT:      -8.7      0.862      1.404
REMARK  Name = 
REMARK  10 active torsions:
REMARK  status: ('A' for Active; 'I' for Inactive)
REMARK    1  A    between atoms: C_1  and  C_2
REMARK    2  A    between atoms: C_2  and  C_3
REMARK    3  A    between atoms: C_7  and  C_8
REMARK    4  A    between atoms: C_8  and  C_9
REMARK    5  A    between atoms: C_9  and  C_10
REMARK    6  A    between atoms: C_9  and  O_11
REMARK    7  A    between atoms: C_9  and  C_25
REMARK    8  A    between atoms: O_11  and  C_12
REMARK    9  A    between atoms: C_15  and  C_16
REMARK   10  A    between atoms: C_16  and  C_17
REMARK                            x       y       z     vdW  Elec       q    Type
REMARK                         _______ _______ _______ _____ _____    ______ ____
ROOT
ATOM      1  C   UNL     1       2.891   4.663  19.012  0.00  0.00    +0.000 C 
ATOM      2  C   UNL     1       3.687   3.526  19.672  0.00  0.00    +0.000 C 
ENDROOT
BRANCH   1   3
ATOM      3  C   UNL     1       1.454   4.002  19.117  0.00  0.00    +0.000 C 
ATOM      4  O   UNL     1       0.901   4.058  20.262  0.00  0.00    +0.000 OA
ATOM      5  O   UNL     1       0.952   3.567  18.036  0.00  0.00    +0.000 OA
ENDBRANCH   1   3
BRANCH   1   6
ATOM      6  C   UNL     1       3.264   4.855  17.523  0.00  0.00    +0.000 C 
BRANCH   6  11
ATOM      7  C   UNL     1       6.993   5.636  17.579  0.00  0.00    +0.000 A 
ATOM      8  C   UNL     1       7.455   4.875  16.506  0.00  0.00    +0.000 A 
ATOM      9  C   UNL     1       6.581   4.028  15.815  0.00  0.00    +0.000 A 
ATOM     10  C   UNL     1       5.231   3.967  16.162  0.00  0.00    +0.000 A 
ATOM     11  C   UNL     1       4.748   4.726  17.235  0.00  0.00    +0.000 A 
ATOM     12  C   UNL     1       5.655   5.503  17.964  0.00  0.00    +0.000 A 
BRANCH   7  14
ATOM     13  C   UNL     1       7.739   8.118  17.583  0.00  0.00    +0.000 C 
ATOM     14  C   UNL     1       7.771   6.750  18.240  0.00  0.00    +0.000 C 
ENDBRANCH   7  14
ENDBRANCH   6  11
ENDBRANCH   1   6
BRANCH   1  15
ATOM     15  O   UNL     1       2.872   5.899  19.760  0.00  0.00    +0.000 OA
BRANCH  15  16
ATOM     16  C   UNL     1       2.279   7.077  19.449  0.00  0.00    +0.000 A 
ATOM     17  C   UNL     1       1.567   7.643  20.515  0.00  0.00    +0.000 A 
ATOM     18  C   UNL     1       0.973   8.906  20.417  0.00  0.00    +0.000 A 
ATOM     19  C   UNL     1       1.109   9.654  19.246  0.00  0.00    +0.000 A 
ATOM     20  C   UNL     1       1.770   9.065  18.157  0.00  0.00    +0.000 A 
ATOM     21  C   UNL     1       2.330   7.777  18.253  0.00  0.00    +0.000 A 
BRANCH  19  22
ATOM     22  C   UNL     1       0.641  11.093  19.200  0.00  0.00    +0.000 C 
BRANCH  22  23
ATOM     23  C   UNL     1      -0.850  11.329  19.011  0.00  0.00    +0.000 A 
ATOM     24  C   UNL     1      -1.592  10.762  17.963  0.00  0.00    +0.000 A 
ATOM     25  C   UNL     1      -2.962  11.005  17.836  0.00  0.00    +0.000 A 
ATOM     26  C   UNL     1      -3.618  11.822  18.753  0.00  0.00    +0.000 A 
ATOM     27  C   UNL     1      -2.899  12.405  19.793  0.00  0.00    +0.000 A 
ATOM     28  C   UNL     1      -1.527  12.161  19.919  0.00  0.00    +0.000 A 
ENDBRANCH  22  23
ENDBRANCH  19  22
ENDBRANCH  15  16
ENDBRANCH   1  15
TORSDOF 8
ENDMDL
MODEL 6
REMARK VINA RESULT:      -8.7      0.906      1.787
REMARK  Name = 
REMARK  10 active torsions:
REMARK  status: ('A' for Active; 'I' for Inactive)
REMARK    1  A    between atoms: C_1  and  C_2
REMARK    2  A    between atoms: C_2  and  C_3
REMARK    3  A    between atoms: C_7  and  C_8
REMARK    4  A    between atoms: C_8  and  C_9
REMARK    5  A    between atoms: C_9  and  C_10
REMARK    6  A    between atoms: C_9  and  O_11
REMARK    7  A    between atoms: C_9  and  C_25
REMARK    8  A    between atoms: O_11  and  C_12
REMARK    9  A    between atoms: C_15  and  C_16
REMARK   10  A    between atoms: C_16  and  C_17
REMARK                            x       y       z     vdW  Elec       q    Type
REMARK                         _______ _______ _______ _____ _____    ______ ____
ROOT
ATOM      1  C   UNL     1       3.104   4.427  19.017  0.00  0.00    +0.000 C 
ATOM      2  C   UNL     1       4.060   3.367  19.586  0.00  0.00    +0.000 C 
ENDROOT
BRANCH   1   3
ATOM      3  C   UNL     1       1.743   3.690  19.364  0.00  0.00    +0.000 C 
ATOM      4  O   UNL     1       0.950   3.503  18.387  0.00  0.00    +0.000 OA
ATOM      5  O   UNL     1       1.614   3.276  20.556  0.00  0.00    +0.000 OA
ENDBRANCH   1   3
BRANCH   1   6
ATOM      6  C   UNL     1       3.234   4.574  17.482  0.00  0.00    +0.000 C 
BRANCH   6  11
ATOM      7  C   UNL     1       6.708   6.027  16.902  0.00  0.00    +0.000 A 
ATOM      8  C   UNL     1       7.173   5.233  15.854  0.00  0.00    +0.000 A 
ATOM      9  C   UNL     1       6.405   4.158  15.390  0.00  0.00    +0.000 A 
ATOM     10  C   UNL     1       5.150   3.896  15.939  0.00  0.00    +0.000 A 
ATOM     11  C   UNL     1       4.665   4.684  16.991  0.00  0.00    +0.000 A 
ATOM     12  C   UNL     1       5.484   5.701  17.494  0.00  0.00    +0.000 A 
BRANCH   7  14
ATOM     13  C   UNL     1       8.231   7.335  18.541  0.00  0.00    +0.000 C 
ATOM     14  C   UNL     1       7.325   7.340  17.324  0.00  0.00    +0.000 C 
ENDBRANCH   7  14
ENDBRANCH   6  11
ENDBRANCH   1   6
BRANCH   1  15
ATOM     15  O   UNL     1       3.120   5.691  19.716  0.00  0.00    +0.000 OA
BRANCH  15  16
ATOM     16  C   UNL     1       2.473   6.844  19.413  0.00  0.00    +0.000 A 
ATOM     17  C   UNL     1       1.757   7.382  20.490  0.00  0.00    +0.000 A 
ATOM     18  C   UNL     1       1.109   8.619  20.400  0.00  0.00    +0.000 A 
ATOM     19  C   UNL     1       1.195   9.369  19.226  0.00  0.00    +0.000 A 
ATOM     20  C   UNL     1       1.860   8.805  18.127  0.00  0.00    +0.000 A 
ATOM     21  C   UNL     1       2.475   7.543  18.215  0.00  0.00    +0.000 A 
BRANCH  19  22
ATOM     22  C   UNL     1       0.666  10.788  19.186  0.00  0.00    +0.000 C 
BRANCH  22  23
ATOM     23  C   UNL     1      -0.805  10.967  18.843  0.00  0.00    +0.000 A 
ATOM     24  C   UNL     1      -1.653  11.850  19.528  0.00  0.00    +0.000 A 
ATOM     25  C   UNL     1      -2.997  11.984  19.170  0.00  0.00    +0.000 A 
ATOM     26  C   UNL     1      -3.522  11.234  18.121  0.00  0.00    +0.000 A 
ATOM     27  C   UNL     1      -2.701  10.342  17.435  0.00  0.00    +0.000 A 
ATOM     28  C   UNL     1      -1.356  10.209  17.794  0.00  0.00    +0.000 A 
ENDBRANCH  22  23
ENDBRANCH  19  22
ENDBRANCH  15  16
ENDBRANCH   1  15
TORSDOF 8
ENDMDL
MODEL 7
REMARK VINA RESULT:      -8.5      1.319      2.222
REMARK  Name = 
REMARK  10 active torsions:
REMARK  status: ('A' for Active; 'I' for Inactive)
REMARK    1  A    between atoms: C_1  and  C_2
REMARK    2  A    between atoms: C_2  and  C_3
REMARK    3  A    between atoms: C_7  and  C_8
REMARK    4  A    between atoms: C_8  and  C_9
REMARK    5  A    between atoms: C_9  and  C_10
REMARK    6  A    between atoms: C_9  and  O_11
REMARK    7  A    between atoms: C_9  and  C_25
REMARK    8  A    between atoms: O_11  and  C_12
REMARK    9  A    between atoms: C_15  and  C_16
REMARK   10  A    between atoms: C_16  and  C_17
REMARK                            x       y       z     vdW  Elec       q    Type
REMARK                         _______ _______ _______ _____ _____    ______ ____
ROOT
ATOM      1  C   UNL     1       3.219   3.542  19.162  0.00  0.00    +0.000 C 
ATOM      2  C   UNL     1       2.550   3.187  20.499  0.00  0.00    +0.000 C 
ENDROOT
BRANCH   1   3
ATOM      3  C   UNL     1       2.886   2.195  18.395  0.00  0.00    +0.000 C 
ATOM      4  O   UNL     1       1.903   2.246  17.587  0.00  0.00    +0.000 OA
ATOM      5  O   UNL     1       3.681   1.226  18.585  0.00  0.00    +0.000 OA
ENDBRANCH   1   3
BRANCH   1   6
ATOM      6  C   UNL     1       4.752   3.697  19.293  0.00  0.00    +0.000 C 
BRANCH   6  11
ATOM      7  C   UNL     1       6.066   4.711  15.863  0.00  0.00    +0.000 A 
ATOM      8  C   UNL     1       6.860   5.813  16.182  0.00  0.00    +0.000 A 
ATOM      9  C   UNL     1       6.900   6.296  17.495  0.00  0.00    +0.000 A 
ATOM     10  C   UNL     1       6.184   5.657  18.507  0.00  0.00    +0.000 A 
ATOM     11  C   UNL     1       5.384   4.547  18.207  0.00  0.00    +0.000 A 
ATOM     12  C   UNL     1       5.293   4.132  16.874  0.00  0.00    +0.000 A 
BRANCH   7  14
ATOM     13  C   UNL     1       6.987   4.540  13.447  0.00  0.00    +0.000 C 
ATOM     14  C   UNL     1       6.124   3.961  14.553  0.00  0.00    +0.000 C 
ENDBRANCH   7  14
ENDBRANCH   6  11
ENDBRANCH   1   6
BRANCH   1  15
ATOM     15  O   UNL     1       2.593   4.631  18.446  0.00  0.00    +0.000 OA
BRANCH  15  16
ATOM     16  C   UNL     1       2.386   5.909  18.847  0.00  0.00    +0.000 A 
ATOM     17  C   UNL     1       2.580   6.853  17.830  0.00  0.00    +0.000 A 
ATOM     18  C   UNL     1       2.314   8.213  18.025  0.00  0.00    +0.000 A 
ATOM     19  C   UNL     1       1.809   8.658  19.248  0.00  0.00    +0.000 A 
ATOM     20  C   UNL     1       1.670   7.725  20.286  0.00  0.00    +0.000 A 
ATOM     21  C   UNL     1       1.978   6.366  20.092  0.00  0.00    +0.000 A 
BRANCH  19  22
ATOM     22  C   UNL     1       1.335  10.088  19.403  0.00  0.00    +0.000 C 
BRANCH  22  23
ATOM     23  C   UNL     1      -0.066  10.409  18.907  0.00  0.00    +0.000 A 
ATOM     24  C   UNL     1      -0.647   9.794  17.787  0.00  0.00    +0.000 A 
ATOM     25  C   UNL     1      -1.942  10.121  17.376  0.00  0.00    +0.000 A 
ATOM     26  C   UNL     1      -2.682  11.071  18.073  0.00  0.00    +0.000 A 
ATOM     27  C   UNL     1      -2.120  11.704  19.179  0.00  0.00    +0.000 A 
ATOM     28  C   UNL     1      -0.824  11.376  19.591  0.00  0.00    +0.000 A 
ENDBRANCH  22  23
ENDBRANCH  19  22
ENDBRANCH  15  16
ENDBRANCH   1  15
TORSDOF 8
ENDMDL
MODEL 8
REMARK VINA RESULT:      -8.4      1.072      2.314
REMARK  Name = 
REMARK  10 active torsions:
REMARK  status: ('A' for Active; 'I' for Inactive)
REMARK    1  A    between atoms: C_1  and  C_2
REMARK    2  A    between atoms: C_2  and  C_3
REMARK    3  A    between atoms: C_7  and  C_8
REMARK    4  A    between atoms: C_8  and  C_9
REMARK    5  A    between atoms: C_9  and  C_10
REMARK    6  A    between atoms: C_9  and  O_11
REMARK    7  A    between atoms: C_9  and  C_25
REMARK    8  A    between atoms: O_11  and  C_12
REMARK    9  A    between atoms: C_15  and  C_16
REMARK   10  A    between atoms: C_16  and  C_17
REMARK                            x       y       z     vdW  Elec       q    Type
REMARK                         _______ _______ _______ _____ _____    ______ ____
ROOT
ATOM      1  C   UNL     1       3.109   4.806  19.052  0.00  0.00    +0.000 C 
ATOM      2  C   UNL     1       4.006   3.793  19.780  0.00  0.00    +0.000 C 
ENDROOT
BRANCH   1   3
ATOM      3  C   UNL     1       1.711   4.165  19.436  0.00  0.00    +0.000 C 
ATOM      4  O   UNL     1       1.072   3.617  18.481  0.00  0.00    +0.000 OA
ATOM      5  O   UNL     1       1.405   4.175  20.667  0.00  0.00    +0.000 OA
ENDBRANCH   1   3
BRANCH   1   6
ATOM      6  C   UNL     1       3.295   4.759  17.517  0.00  0.00    +0.000 C 
BRANCH   6  11
ATOM      7  C   UNL     1       6.405   5.074  15.338  0.00  0.00    +0.000 A 
ATOM      8  C   UNL     1       7.302   5.679  16.217  0.00  0.00    +0.000 A 
ATOM      9  C   UNL     1       6.880   6.079  17.491  0.00  0.00    +0.000 A 
ATOM     10  C   UNL     1       5.573   5.838  17.912  0.00  0.00    +0.000 A 
ATOM     11  C   UNL     1       4.658   5.228  17.044  0.00  0.00    +0.000 A 
ATOM     12  C   UNL     1       5.077   4.912  15.747  0.00  0.00    +0.000 A 
BRANCH   7  14
ATOM     13  C   UNL     1       5.695   3.718  13.246  0.00  0.00    +0.000 C 
ATOM     14  C   UNL     1       6.794   4.391  14.047  0.00  0.00    +0.000 C 
ENDBRANCH   7  14
ENDBRANCH   6  11
ENDBRANCH   1   6
BRANCH   1  15
ATOM     15  O   UNL     1       3.152   6.146  19.592  0.00  0.00    +0.000 OA
BRANCH  15  16
ATOM     16  C   UNL     1       2.399   7.224  19.264  0.00  0.00    +0.000 A 
ATOM     17  C   UNL     1       1.684   7.757  20.344  0.00  0.00    +0.000 A 
ATOM     18  C   UNL     1       0.933   8.931  20.224  0.00  0.00    +0.000 A 
ATOM     19  C   UNL     1       0.907   9.624  19.013  0.00  0.00    +0.000 A 
ATOM     20  C   UNL     1       1.573   9.061  17.913  0.00  0.00    +0.000 A 
ATOM     21  C   UNL     1       2.294   7.858  18.035  0.00  0.00    +0.000 A 
BRANCH  19  22
ATOM     22  C   UNL     1       0.261  10.991  18.928  0.00  0.00    +0.000 C 
BRANCH  22  23
ATOM     23  C   UNL     1      -1.226  11.033  18.613  0.00  0.00    +0.000 A 
ATOM     24  C   UNL     1      -1.848  10.158  17.710  0.00  0.00    +0.000 A 
ATOM     25  C   UNL     1      -3.221  10.234  17.459  0.00  0.00    +0.000 A 
ATOM     26  C   UNL     1      -4.000  11.189  18.105  0.00  0.00    +0.000 A 
ATOM     27  C   UNL     1      -3.402  12.077  18.996  0.00  0.00    +0.000 A 
ATOM     28  C   UNL     1      -2.028  12.000  19.246  0.00  0.00    +0.000 A 
ENDBRANCH  22  23
ENDBRANCH  19  22
ENDBRANCH  15  16
ENDBRANCH   1  15
TORSDOF 8
ENDMDL
MODEL 9
REMARK VINA RESULT:      -8.4      0.847      1.134
REMARK  Name = 
REMARK  10 active torsions:
REMARK  status: ('A' for Active; 'I' for Inactive)
REMARK    1  A    between atoms: C_1  and  C_2
REMARK    2  A    between atoms: C_2  and  C_3
REMARK    3  A    between atoms: C_7  and  C_8
REMARK    4  A    between atoms: C_8  and  C_9
REMARK    5  A    between atoms: C_9  and  C_10
REMARK    6  A    between atoms: C_9  and  O_11
REMARK    7  A    between atoms: C_9  and  C_25
REMARK    8  A    between atoms: O_11  and  C_12
REMARK    9  A    between atoms: C_15  and  C_16
REMARK   10  A    between atoms: C_16  and  C_17
REMARK                            x       y       z     vdW  Elec       q    Type
REMARK                         _______ _______ _______ _____ _____    ______ ____
ROOT
ATOM      1  C   UNL     1       2.821   4.174  19.500  0.00  0.00    +0.000 C 
ATOM      2  C   UNL     1       2.402   4.428  20.957  0.00  0.00    +0.000 C 
ENDROOT
BRANCH   1   3
ATOM      3  C   UNL     1       1.848   2.956  19.211  0.00  0.00    +0.000 C 
ATOM      4  O   UNL     1       1.398   2.877  18.023  0.00  0.00    +0.000 OA
ATOM      5  O   UNL     1       1.684   2.127  20.157  0.00  0.00    +0.000 OA
ENDBRANCH   1   3
BRANCH   1   6
ATOM      6  C   UNL     1       4.289   3.702  19.384  0.00  0.00    +0.000 C 
BRANCH   6  11
ATOM      7  C   UNL     1       6.394   5.902  17.092  0.00  0.00    +0.000 A 
ATOM      8  C   UNL     1       6.037   5.417  15.834  0.00  0.00    +0.000 A 
ATOM      9  C   UNL     1       5.187   4.310  15.720  0.00  0.00    +0.000 A 
ATOM     10  C   UNL     1       4.652   3.708  16.858  0.00  0.00    +0.000 A 
ATOM     11  C   UNL     1       4.996   4.183  18.131  0.00  0.00    +0.000 A 
ATOM     12  C   UNL     1       5.911   5.236  18.224  0.00  0.00    +0.000 A 
BRANCH   7  14
ATOM     13  C   UNL     1       8.114   7.270  18.465  0.00  0.00    +0.000 C 
ATOM     14  C   UNL     1       7.098   7.215  17.338  0.00  0.00    +0.000 C 
ENDBRANCH   7  14
ENDBRANCH   6  11
ENDBRANCH   1   6
BRANCH   1  15
ATOM     15  O   UNL     1       2.489   5.240  18.583  0.00  0.00    +0.000 OA
BRANCH  15  16
ATOM     16  C   UNL     1       2.245   6.548  18.845  0.00  0.00    +0.000 A 
ATOM     17  C   UNL     1       2.500   7.393  17.757  0.00  0.00    +0.000 A 
ATOM     18  C   UNL     1       2.212   8.761  17.803  0.00  0.00    +0.000 A 
ATOM     19  C   UNL     1       1.623   9.315  18.941  0.00  0.00    +0.000 A 
ATOM     20  C   UNL     1       1.422   8.482  20.054  0.00  0.00    +0.000 A 
ATOM     21  C   UNL     1       1.753   7.115  20.011  0.00  0.00    +0.000 A 
BRANCH  19  22
ATOM     22  C   UNL     1       1.130  10.746  18.927  0.00  0.00    +0.000 C 
BRANCH  22  23
ATOM     23  C   UNL     1      -0.365  10.960  18.747  0.00  0.00    +0.000 A 
ATOM     24  C   UNL     1      -1.146  10.217  17.848  0.00  0.00    +0.000 A 
ATOM     25  C   UNL     1      -2.519  10.449  17.724  0.00  0.00    +0.000 A 
ATOM     26  C   UNL     1      -3.138  11.429  18.493  0.00  0.00    +0.000 A 
ATOM     27  C   UNL     1      -2.380  12.187  19.382  0.00  0.00    +0.000 A 
ATOM     28  C   UNL     1      -1.006  11.955  19.506  0.00  0.00    +0.000 A 
ENDBRANCH  22  23
ENDBRANCH  19  22
ENDBRANCH  15  16
ENDBRANCH   1  15
TORSDOF 8
ENDMDL
