MODEL 1
REMARK VINA RESULT:      -6.3      0.000      0.000
REMARK  Name = 
REMARK  8 active torsions:
REMARK  status: ('A' for Active; 'I' for Inactive)
REMARK    1  A    between atoms: C_1  and  O_2
REMARK    2  A    between atoms: O_2  and  C_3
REMARK    3  A    between atoms: C_5  and  C_6
REMARK    4  A    between atoms: C_7  and  C_8
REMARK    5  A    between atoms: C_10  and  N_11
REMARK    6  A    between atoms: C_15  and  O_16
REMARK    7  A    between atoms: C_20  and  O_21
REMARK    8  A    between atoms: O_21  and  C_22
REMARK                            x       y       z     vdW  Elec       q    Type
REMARK                         _______ _______ _______ _____ _____    ______ ____
ROOT
ATOM      1  C   UNL     1      -0.207  10.764  20.420  0.00  0.00    +0.000 C 
ATOM      2  C   UNL     1      -0.408  10.528  21.900  0.00  0.00    +0.000 C 
ATOM      3  C   UNL     1       0.154   9.500  22.560  0.00  0.00    +0.000 C 
ATOM      4  O   UNL     1       1.012   8.604  21.922  0.00  0.00    +0.000 OA
ATOM      5  C   UNL     1       1.231   8.704  20.566  0.00  0.00    +0.000 A 
ATOM      6  C   UNL     1       2.073   7.752  19.987  0.00  0.00    +0.000 A 
ATOM      7  C   UNL     1       2.322   7.804  18.616  0.00  0.00    +0.000 A 
ATOM      8  C   UNL     1       1.737   8.776  17.816  0.00  0.00    +0.000 A 
ATOM      9  C   UNL     1       0.897   9.721  18.394  0.00  0.00    +0.000 A 
ATOM     10  C   UNL     1       0.657   9.704  19.778  0.00  0.00    +0.000 A 
ENDROOT
BRANCH   1  13
ATOM     11  C   UNL     1       2.220  13.746  20.343  0.00  0.00    +0.000 A 
ATOM     12  C   UNL     1       1.652  12.493  20.579  0.00  0.00    +0.000 A 
ATOM     13  C   UNL     1       0.342  12.169  20.143  0.00  0.00    +0.000 A 
ATOM     14  C   UNL     1      -0.420  13.129  19.442  0.00  0.00    +0.000 A 
ATOM     15  C   UNL     1       0.168  14.365  19.215  0.00  0.00    +0.000 A 
ATOM     16  C   UNL     1       1.452  14.663  19.651  0.00  0.00    +0.000 A 
ATOM     17  O   UNL     1       1.821  15.930  19.302  0.00  0.00    +0.000 OA
ATOM     18  C   UNL     1       0.687  16.367  18.544  0.00  0.00    +0.000 C 
ATOM     19  O   UNL     1      -0.390  15.420  18.551  0.00  0.00    +0.000 OA
BRANCH  11  21
ATOM     20  C   UNL     1       3.643  14.705  21.983  0.00  0.00    +0.000 C 
ATOM     21  O   UNL     1       3.484  13.889  20.830  0.00  0.00    +0.000 OA
ENDBRANCH  11  21
BRANCH  14  22
ATOM     22  O   UNL     1      -1.661  12.723  19.041  0.00  0.00    +0.000 OA
ATOM     23  C   UNL     1      -1.782  12.057  17.790  0.00  0.00    +0.000 C 
ENDBRANCH  14  22
ENDBRANCH   1  13
BRANCH   3  24
ATOM     24  N   UNL     1      -0.035   9.219  23.892  0.00  0.00    +0.000 N 
ATOM     25  H   UNL     1       0.628   9.641  24.536  0.00  0.00    +0.000 HD
ATOM     26  H   UNL     1      -0.198   8.230  24.063  0.00  0.00    +0.000 HD
ENDBRANCH   3  24
BRANCH   2  27
ATOM     27  C   UNL     1      -1.331  11.538  22.562  0.00  0.00    +0.000 C 
ATOM     28  N   UNL     1      -2.097  12.374  23.112  0.00  0.00    +0.000 NA
ENDBRANCH   2  27
BRANCH   7  29
ATOM     29  O   UNL     1       3.149   6.906  18.005  0.00  0.00    +0.000 OA
ATOM     30  H   UNL     1       3.305   6.165  18.608  0.00  0.00    +0.000 HD
ENDBRANCH   7  29
TORSDOF 6
ENDMDL
MODEL 2
REMARK VINA RESULT:      -6.2      2.978      5.278
REMARK  Name = 
REMARK  8 active torsions:
REMARK  status: ('A' for Active; 'I' for Inactive)
REMARK    1  A    between atoms: C_1  and  O_2
REMARK    2  A    between atoms: O_2  and  C_3
REMARK    3  A    between atoms: C_5  and  C_6
REMARK    4  A    between atoms: C_7  and  C_8
REMARK    5  A    between atoms: C_10  and  N_11
REMARK    6  A    between atoms: C_15  and  O_16
REMARK    7  A    between atoms: C_20  and  O_21
REMARK    8  A    between atoms: O_21  and  C_22
REMARK                            x       y       z     vdW  Elec       q    Type
REMARK                         _______ _______ _______ _____ _____    ______ ____
ROOT
ATOM      1  C   UNL     1      -0.363  12.169  20.112  0.00  0.00    +0.000 C 
ATOM      2  C   UNL     1       0.451  12.901  19.069  0.00  0.00    +0.000 C 
ATOM      3  C   UNL     1       1.495  12.343  18.431  0.00  0.00    +0.000 C 
ATOM      4  O   UNL     1       1.864  11.017  18.656  0.00  0.00    +0.000 OA
ATOM      5  C   UNL     1       1.215  10.272  19.615  0.00  0.00    +0.000 A 
ATOM      6  C   UNL     1       1.661   8.964  19.813  0.00  0.00    +0.000 A 
ATOM      7  C   UNL     1       1.042   8.169  20.777  0.00  0.00    +0.000 A 
ATOM      8  C   UNL     1       0.001   8.660  21.553  0.00  0.00    +0.000 A 
ATOM      9  C   UNL     1      -0.440   9.965  21.357  0.00  0.00    +0.000 A 
ATOM     10  C   UNL     1       0.151  10.772  20.369  0.00  0.00    +0.000 A 
ENDROOT
BRANCH   1  13
ATOM     11  C   UNL     1      -3.598  11.532  18.133  0.00  0.00    +0.000 A 
ATOM     12  C   UNL     1      -2.257  11.595  18.513  0.00  0.00    +0.000 A 
ATOM     13  C   UNL     1      -1.854  12.153  19.754  0.00  0.00    +0.000 A 
ATOM     14  C   UNL     1      -2.828  12.656  20.644  0.00  0.00    +0.000 A 
ATOM     15  C   UNL     1      -4.155  12.577  20.245  0.00  0.00    +0.000 A 
ATOM     16  C   UNL     1      -4.529  12.028  19.026  0.00  0.00    +0.000 A 
ATOM     17  O   UNL     1      -5.883  12.046  18.859  0.00  0.00    +0.000 OA
ATOM     18  C   UNL     1      -6.325  12.581  20.112  0.00  0.00    +0.000 C 
ATOM     19  O   UNL     1      -5.243  12.992  20.959  0.00  0.00    +0.000 OA
BRANCH  11  21
ATOM     20  C   UNL     1      -2.658  10.658  16.136  0.00  0.00    +0.000 C 
ATOM     21  O   UNL     1      -3.808  10.968  16.910  0.00  0.00    +0.000 OA
ENDBRANCH  11  21
BRANCH  14  22
ATOM     22  O   UNL     1      -2.352  13.153  21.823  0.00  0.00    +0.000 OA
ATOM     23  C   UNL     1      -2.604  12.420  23.016  0.00  0.00    +0.000 C 
ENDBRANCH  14  22
ENDBRANCH   1  13
BRANCH   3  24
ATOM     24  N   UNL     1       2.291  12.982  17.512  0.00  0.00    +0.000 N 
ATOM     25  H   UNL     1       2.673  12.402  16.770  0.00  0.00    +0.000 HD
ATOM     26  H   UNL     1       2.978  13.592  17.947  0.00  0.00    +0.000 HD
ENDBRANCH   3  24
BRANCH   2  27
ATOM     27  C   UNL     1       0.003  14.335  18.838  0.00  0.00    +0.000 C 
ATOM     28  N   UNL     1      -0.369  15.524  18.646  0.00  0.00    +0.000 NA
ENDBRANCH   2  27
BRANCH   7  29
ATOM     29  O   UNL     1       1.430   6.880  20.998  0.00  0.00    +0.000 OA
ATOM     30  H   UNL     1       0.643   6.340  21.161  0.00  0.00    +0.000 HD
ENDBRANCH   7  29
TORSDOF 6
ENDMDL
MODEL 3
REMARK VINA RESULT:      -6.0      4.513      6.708
REMARK  Name = 
REMARK  8 active torsions:
REMARK  status: ('A' for Active; 'I' for Inactive)
REMARK    1  A    between atoms: C_1  and  O_2
REMARK    2  A    between atoms: O_2  and  C_3
REMARK    3  A    between atoms: C_5  and  C_6
REMARK    4  A    between atoms: C_7  and  C_8
REMARK    5  A    between atoms: C_10  and  N_11
REMARK    6  A    between atoms: C_15  and  O_16
REMARK    7  A    between atoms: C_20  and  O_21
REMARK    8  A    between atoms: O_21  and  C_22
REMARK                            x       y       z     vdW  Elec       q    Type
REMARK                         _______ _______ _______ _____ _____    ______ ____
ROOT
ATOM      1  C   UNL     1      -5.268  13.871  21.691  0.00  0.00    +0.000 C 
ATOM      2  C   UNL     1      -5.936  14.131  23.023  0.00  0.00    +0.000 C 
ATOM      3  C   UNL     1      -6.960  13.391  23.485  0.00  0.00    +0.000 C 
ATOM      4  O   UNL     1      -7.441  12.289  22.779  0.00  0.00    +0.000 OA
ATOM      5  C   UNL     1      -6.932  11.988  21.535  0.00  0.00    +0.000 A 
ATOM      6  C   UNL     1      -7.486  10.894  20.869  0.00  0.00    +0.000 A 
ATOM      7  C   UNL     1      -7.011  10.550  19.604  0.00  0.00    +0.000 A 
ATOM      8  C   UNL     1      -6.007  11.287  18.990  0.00  0.00    +0.000 A 
ATOM      9  C   UNL     1      -5.458  12.379  19.654  0.00  0.00    +0.000 A 
ATOM     10  C   UNL     1      -5.902  12.723  20.942  0.00  0.00    +0.000 A 
ENDROOT
BRANCH   1  13
ATOM     11  C   UNL     1      -1.930  12.262  22.716  0.00  0.00    +0.000 A 
ATOM     12  C   UNL     1      -3.291  12.522  22.551  0.00  0.00    +0.000 A 
ATOM     13  C   UNL     1      -3.757  13.662  21.849  0.00  0.00    +0.000 A 
ATOM     14  C   UNL     1      -2.830  14.566  21.288  0.00  0.00    +0.000 A 
ATOM     15  C   UNL     1      -1.482  14.283  21.460  0.00  0.00    +0.000 A 
ATOM     16  C   UNL     1      -1.046  13.161  22.152  0.00  0.00    +0.000 A 
ATOM     17  O   UNL     1       0.317  13.085  22.180  0.00  0.00    +0.000 OA
ATOM     18  C   UNL     1       0.689  14.213  21.380  0.00  0.00    +0.000 C 
ATOM     19  O   UNL     1      -0.431  15.017  20.989  0.00  0.00    +0.000 OA
BRANCH  11  21
ATOM     20  C   UNL     1      -0.772  10.191  22.815  0.00  0.00    +0.000 C 
ATOM     21  O   UNL     1      -1.657  11.125  23.417  0.00  0.00    +0.000 OA
ENDBRANCH  11  21
BRANCH  14  22
ATOM     22  O   UNL     1      -3.368  15.623  20.610  0.00  0.00    +0.000 OA
ATOM     23  C   UNL     1      -3.242  16.922  21.176  0.00  0.00    +0.000 C 
ENDBRANCH  14  22
ENDBRANCH   1  13
BRANCH   3  24
ATOM     24  N   UNL     1      -7.626  13.617  24.665  0.00  0.00    +0.000 N 
ATOM     25  H   UNL     1      -8.594  13.309  24.698  0.00  0.00    +0.000 HD
ATOM     26  H   UNL     1      -7.486  14.559  25.019  0.00  0.00    +0.000 HD
ENDBRANCH   3  24
BRANCH   2  27
ATOM     27  C   UNL     1      -5.368  15.326  23.770  0.00  0.00    +0.000 C 
ATOM     28  N   UNL     1      -4.897  16.318  24.390  0.00  0.00    +0.000 NA
ENDBRANCH   2  27
BRANCH   7  29
ATOM     29  O   UNL     1      -7.509   9.481  18.919  0.00  0.00    +0.000 OA
ATOM     30  H   UNL     1      -8.473   9.557  18.880  0.00  0.00    +0.000 HD
ENDBRANCH   7  29
TORSDOF 6
ENDMDL
MODEL 4
REMARK VINA RESULT:      -5.8      3.967      6.671
REMARK  Name = 
REMARK  8 active torsions:
REMARK  status: ('A' for Active; 'I' for Inactive)
REMARK    1  A    between atoms: C_1  and  O_2
REMARK    2  A    between atoms: O_2  and  C_3
REMARK    3  A    between atoms: C_5  and  C_6
REMARK    4  A    between atoms: C_7  and  C_8
REMARK    5  A    between atoms: C_10  and  N_11
REMARK    6  A    between atoms: C_15  and  O_16
REMARK    7  A    between atoms: C_20  and  O_21
REMARK    8  A    between atoms: O_21  and  C_22
REMARK                            x       y       z     vdW  Elec       q    Type
REMARK                         _______ _______ _______ _____ _____    ______ ____
ROOT
ATOM      1  C   UNL     1      -2.145  13.566  21.960  0.00  0.00    +0.000 C 
ATOM      2  C   UNL     1      -1.795  14.465  20.795  0.00  0.00    +0.000 C 
ATOM      3  C   UNL     1      -0.872  14.140  19.873  0.00  0.00    +0.000 C 
ATOM      4  O   UNL     1      -0.209  12.913  19.903  0.00  0.00    +0.000 OA
ATOM      5  C   UNL     1      -0.423  12.038  20.944  0.00  0.00    +0.000 A 
ATOM      6  C   UNL     1       0.302  10.844  20.929  0.00  0.00    +0.000 A 
ATOM      7  C   UNL     1       0.128   9.926  21.964  0.00  0.00    +0.000 A 
ATOM      8  C   UNL     1      -0.742  10.184  23.014  0.00  0.00    +0.000 A 
ATOM      9  C   UNL     1      -1.461  11.374  23.029  0.00  0.00    +0.000 A 
ATOM     10  C   UNL     1      -1.322  12.299  21.980  0.00  0.00    +0.000 A 
ENDROOT
BRANCH   1  13
ATOM     11  C   UNL     1      -5.609  12.327  20.842  0.00  0.00    +0.000 A 
ATOM     12  C   UNL     1      -4.252  12.655  20.866  0.00  0.00    +0.000 A 
ATOM     13  C   UNL     1      -3.645  13.253  22.000  0.00  0.00    +0.000 A 
ATOM     14  C   UNL     1      -4.421  13.523  23.148  0.00  0.00    +0.000 A 
ATOM     15  C   UNL     1      -5.766  13.182  23.101  0.00  0.00    +0.000 A 
ATOM     16  C   UNL     1      -6.341  12.599  21.981  0.00  0.00    +0.000 A 
ATOM     17  O   UNL     1      -7.668  12.342  22.172  0.00  0.00    +0.000 OA
ATOM     18  C   UNL     1      -7.850  12.744  23.535  0.00  0.00    +0.000 C 
ATOM     19  O   UNL     1      -6.680  13.347  24.103  0.00  0.00    +0.000 OA
BRANCH  11  21
ATOM     20  C   UNL     1      -5.065  11.630  18.638  0.00  0.00    +0.000 C 
ATOM     21  O   UNL     1      -6.028  11.762  19.674  0.00  0.00    +0.000 OA
ENDBRANCH  11  21
BRANCH  14  22
ATOM     22  O   UNL     1      -3.749  14.078  24.200  0.00  0.00    +0.000 OA
ATOM     23  C   UNL     1      -3.881  15.477  24.422  0.00  0.00    +0.000 C 
ENDBRANCH  14  22
ENDBRANCH   1  13
BRANCH   3  24
ATOM     24  N   UNL     1      -0.489  14.941  18.824  0.00  0.00    +0.000 N 
ATOM     25  H   UNL     1      -0.773  15.916  18.879  0.00  0.00    +0.000 HD
ATOM     26  H   UNL     1      -0.670  14.514  17.920  0.00  0.00    +0.000 HD
ENDBRANCH   3  24
BRANCH   2  27
ATOM     27  C   UNL     1      -2.555  15.781  20.787  0.00  0.00    +0.000 C 
ATOM     28  N   UNL     1      -3.185  16.873  20.780  0.00  0.00    +0.000 NA
ENDBRANCH   2  27
BRANCH   7  29
ATOM     29  O   UNL     1       0.802   8.740  21.988  0.00  0.00    +0.000 OA
ATOM     30  H   UNL     1       1.014   8.520  22.907  0.00  0.00    +0.000 HD
ENDBRANCH   7  29
TORSDOF 6
ENDMDL
MODEL 5
REMARK VINA RESULT:      -5.8      2.690      4.478
REMARK  Name = 
REMARK  8 active torsions:
REMARK  status: ('A' for Active; 'I' for Inactive)
REMARK    1  A    between atoms: C_1  and  O_2
REMARK    2  A    between atoms: O_2  and  C_3
REMARK    3  A    between atoms: C_5  and  C_6
REMARK    4  A    between atoms: C_7  and  C_8
REMARK    5  A    between atoms: C_10  and  N_11
REMARK    6  A    between atoms: C_15  and  O_16
REMARK    7  A    between atoms: C_20  and  O_21
REMARK    8  A    between atoms: O_21  and  C_22
REMARK                            x       y       z     vdW  Elec       q    Type
REMARK                         _______ _______ _______ _____ _____    ______ ____
ROOT
ATOM      1  C   UNL     1      -1.558  11.095  19.655  0.00  0.00    +0.000 C 
ATOM      2  C   UNL     1      -0.212  10.406  19.636  0.00  0.00    +0.000 C 
ATOM      3  C   UNL     1       0.249   9.731  18.568  0.00  0.00    +0.000 C 
ATOM      4  O   UNL     1      -0.473   9.669  17.376  0.00  0.00    +0.000 OA
ATOM      5  C   UNL     1      -1.729  10.227  17.299  0.00  0.00    +0.000 A 
ATOM      6  C   UNL     1      -2.409  10.095  16.086  0.00  0.00    +0.000 A 
ATOM      7  C   UNL     1      -3.688  10.637  15.957  0.00  0.00    +0.000 A 
ATOM      8  C   UNL     1      -4.301  11.291  17.017  0.00  0.00    +0.000 A 
ATOM      9  C   UNL     1      -3.623  11.419  18.224  0.00  0.00    +0.000 A 
ATOM     10  C   UNL     1      -2.322  10.907  18.365  0.00  0.00    +0.000 A 
ENDROOT
BRANCH   1  13
ATOM     11  C   UNL     1      -0.527  14.791  19.406  0.00  0.00    +0.000 A 
ATOM     12  C   UNL     1      -0.672  13.426  19.154  0.00  0.00    +0.000 A 
ATOM     13  C   UNL     1      -1.426  12.581  20.008  0.00  0.00    +0.000 A 
ATOM     14  C   UNL     1      -2.060  13.124  21.147  0.00  0.00    +0.000 A 
ATOM     15  C   UNL     1      -1.904  14.485  21.373  0.00  0.00    +0.000 A 
ATOM     16  C   UNL     1      -1.162  15.294  20.525  0.00  0.00    +0.000 A 
ATOM     17  O   UNL     1      -1.162  16.594  20.941  0.00  0.00    +0.000 OA
ATOM     18  C   UNL     1      -2.034  16.537  22.076  0.00  0.00    +0.000 C 
ATOM     19  O   UNL     1      -2.442  15.203  22.403  0.00  0.00    +0.000 OA
BRANCH  11  21
ATOM     20  C   UNL     1       1.585  15.711  18.830  0.00  0.00    +0.000 C 
ATOM     21  O   UNL     1       0.230  15.453  18.487  0.00  0.00    +0.000 OA
ENDBRANCH  11  21
BRANCH  14  22
ATOM     22  O   UNL     1      -2.782  12.242  21.899  0.00  0.00    +0.000 OA
ATOM     23  C   UNL     1      -2.253  11.835  23.156  0.00  0.00    +0.000 C 
ENDBRANCH  14  22
ENDBRANCH   1  13
BRANCH   3  24
ATOM     24  N   UNL     1       1.443   9.053  18.519  0.00  0.00    +0.000 N 
ATOM     25  H   UNL     1       2.228   9.495  18.988  0.00  0.00    +0.000 HD
ATOM     26  H   UNL     1       1.662   8.716  17.585  0.00  0.00    +0.000 HD
ENDBRANCH   3  24
BRANCH   2  27
ATOM     27  C   UNL     1       0.551  10.516  20.945  0.00  0.00    +0.000 C 
ATOM     28  N   UNL     1       1.184  10.608  22.031  0.00  0.00    +0.000 NA
ENDBRANCH   2  27
BRANCH   7  29
ATOM     29  O   UNL     1      -4.388  10.548  14.789  0.00  0.00    +0.000 OA
ATOM     30  H   UNL     1      -5.185  11.093  14.861  0.00  0.00    +0.000 HD
ENDBRANCH   7  29
TORSDOF 6
ENDMDL
MODEL 6
REMARK VINA RESULT:      -5.8      5.867      8.338
REMARK  Name = 
REMARK  8 active torsions:
REMARK  status: ('A' for Active; 'I' for Inactive)
REMARK    1  A    between atoms: C_1  and  O_2
REMARK    2  A    between atoms: O_2  and  C_3
REMARK    3  A    between atoms: C_5  and  C_6
REMARK    4  A    between atoms: C_7  and  C_8
REMARK    5  A    between atoms: C_10  and  N_11
REMARK    6  A    between atoms: C_15  and  O_16
REMARK    7  A    between atoms: C_20  and  O_21
REMARK    8  A    between atoms: O_21  and  C_22
REMARK                            x       y       z     vdW  Elec       q    Type
REMARK                         _______ _______ _______ _____ _____    ______ ____
ROOT
ATOM      1  C   UNL     1      -7.268  13.557  21.040  0.00  0.00    +0.000 C 
ATOM      2  C   UNL     1      -7.479  12.065  21.167  0.00  0.00    +0.000 C 
ATOM      3  C   UNL     1      -7.552  11.243  20.104  0.00  0.00    +0.000 C 
ATOM      4  O   UNL     1      -7.380  11.716  18.803  0.00  0.00    +0.000 OA
ATOM      5  C   UNL     1      -7.224  13.064  18.572  0.00  0.00    +0.000 A 
ATOM      6  C   UNL     1      -7.094  13.470  17.243  0.00  0.00    +0.000 A 
ATOM      7  C   UNL     1      -6.940  14.825  16.954  0.00  0.00    +0.000 A 
ATOM      8  C   UNL     1      -6.927  15.778  17.963  0.00  0.00    +0.000 A 
ATOM      9  C   UNL     1      -7.058  15.372  19.287  0.00  0.00    +0.000 A 
ATOM     10  C   UNL     1      -7.185  14.008  19.601  0.00  0.00    +0.000 A 
ENDROOT
BRANCH   1  13
ATOM     11  C   UNL     1      -3.597  14.024  22.083  0.00  0.00    +0.000 A 
ATOM     12  C   UNL     1      -4.753  13.620  21.413  0.00  0.00    +0.000 A 
ATOM     13  C   UNL     1      -6.045  14.023  21.839  0.00  0.00    +0.000 A 
ATOM     14  C   UNL     1      -6.181  14.862  22.966  0.00  0.00    +0.000 A 
ATOM     15  C   UNL     1      -5.016  15.253  23.611  0.00  0.00    +0.000 A 
ATOM     16  C   UNL     1      -3.761  14.848  23.180  0.00  0.00    +0.000 A 
ATOM     17  O   UNL     1      -2.768  15.367  23.959  0.00  0.00    +0.000 OA
ATOM     18  C   UNL     1      -3.509  16.193  24.864  0.00  0.00    +0.000 C 
ATOM     19  O   UNL     1      -4.928  16.067  24.705  0.00  0.00    +0.000 OA
BRANCH  11  21
ATOM     20  C   UNL     1      -1.655  14.456  20.787  0.00  0.00    +0.000 C 
ATOM     21  O   UNL     1      -2.441  13.545  21.543  0.00  0.00    +0.000 OA
ENDBRANCH  11  21
BRANCH  14  22
ATOM     22  O   UNL     1      -7.460  15.217  23.289  0.00  0.00    +0.000 OA
ATOM     23  C   UNL     1      -7.916  16.511  22.915  0.00  0.00    +0.000 C 
ENDBRANCH  14  22
ENDBRANCH   1  13
BRANCH   3  24
ATOM     24  N   UNL     1      -7.787   9.891  20.167  0.00  0.00    +0.000 N 
ATOM     25  H   UNL     1      -8.040   9.440  19.292  0.00  0.00    +0.000 HD
ATOM     26  H   UNL     1      -8.387   9.635  20.947  0.00  0.00    +0.000 HD
ENDBRANCH   3  24
BRANCH   2  27
ATOM     27  C   UNL     1      -7.639  11.588  22.601  0.00  0.00    +0.000 C 
ATOM     28  N   UNL     1      -7.771  11.192  23.791  0.00  0.00    +0.000 NA
ENDBRANCH   2  27
BRANCH   7  29
ATOM     29  O   UNL     1      -6.795  15.272  15.672  0.00  0.00    +0.000 OA
ATOM     30  H   UNL     1      -6.012  14.855  15.284  0.00  0.00    +0.000 HD
ENDBRANCH   7  29
TORSDOF 6
ENDMDL
MODEL 7
REMARK VINA RESULT:      -5.7      2.616      4.263
REMARK  Name = 
REMARK  8 active torsions:
REMARK  status: ('A' for Active; 'I' for Inactive)
REMARK    1  A    between atoms: C_1  and  O_2
REMARK    2  A    between atoms: O_2  and  C_3
REMARK    3  A    between atoms: C_5  and  C_6
REMARK    4  A    between atoms: C_7  and  C_8
REMARK    5  A    between atoms: C_10  and  N_11
REMARK    6  A    between atoms: C_15  and  O_16
REMARK    7  A    between atoms: C_20  and  O_21
REMARK    8  A    between atoms: O_21  and  C_22
REMARK                            x       y       z     vdW  Elec       q    Type
REMARK                         _______ _______ _______ _____ _____    ______ ____
ROOT
ATOM      1  C   UNL     1      -0.803  10.820  20.530  0.00  0.00    +0.000 C 
ATOM      2  C   UNL     1       0.403   9.916  20.399  0.00  0.00    +0.000 C 
ATOM      3  C   UNL     1       0.752   9.325  19.243  0.00  0.00    +0.000 C 
ATOM      4  O   UNL     1       0.045   9.554  18.063  0.00  0.00    +0.000 OA
ATOM      5  C   UNL     1      -1.094  10.328  18.079  0.00  0.00    +0.000 A 
ATOM      6  C   UNL     1      -1.773  10.485  16.869  0.00  0.00    +0.000 A 
ATOM      7  C   UNL     1      -2.935  11.253  16.831  0.00  0.00    +0.000 A 
ATOM      8  C   UNL     1      -3.438  11.852  17.979  0.00  0.00    +0.000 A 
ATOM      9  C   UNL     1      -2.762  11.693  19.184  0.00  0.00    +0.000 A 
ATOM     10  C   UNL     1      -1.572  10.947  19.236  0.00  0.00    +0.000 A 
ENDROOT
BRANCH   1  13
ATOM     11  C   UNL     1       0.780  14.318  20.736  0.00  0.00    +0.000 A 
ATOM     12  C   UNL     1       0.407  13.045  20.301  0.00  0.00    +0.000 A 
ATOM     13  C   UNL     1      -0.418  12.197  21.083  0.00  0.00    +0.000 A 
ATOM     14  C   UNL     1      -0.890  12.642  22.337  0.00  0.00    +0.000 A 
ATOM     15  C   UNL     1      -0.509  13.913  22.745  0.00  0.00    +0.000 A 
ATOM     16  C   UNL     1       0.300  14.728  21.965  0.00  0.00    +0.000 A 
ATOM     17  O   UNL     1       0.528  15.932  22.564  0.00  0.00    +0.000 OA
ATOM     18  C   UNL     1      -0.273  15.827  23.747  0.00  0.00    +0.000 C 
ATOM     19  O   UNL     1      -0.865  14.532  23.909  0.00  0.00    +0.000 OA
BRANCH  11  21
ATOM     20  C   UNL     1       0.939  15.926  18.997  0.00  0.00    +0.000 C 
ATOM     21  O   UNL     1       1.576  14.998  19.863  0.00  0.00    +0.000 OA
ENDBRANCH  11  21
BRANCH  14  22
ATOM     22  O   UNL     1      -1.696  11.769  23.011  0.00  0.00    +0.000 OA
ATOM     23  C   UNL     1      -3.049  12.141  23.243  0.00  0.00    +0.000 C 
ENDBRANCH  14  22
ENDBRANCH   1  13
BRANCH   3  24
ATOM     24  N   UNL     1       1.810   8.462  19.086  0.00  0.00    +0.000 N 
ATOM     25  H   UNL     1       2.067   7.917  19.904  0.00  0.00    +0.000 HD
ATOM     26  H   UNL     1       2.601   8.896  18.619  0.00  0.00    +0.000 HD
ENDBRANCH   3  24
BRANCH   2  27
ATOM     27  C   UNL     1       1.158   9.710  21.702  0.00  0.00    +0.000 C 
ATOM     28  N   UNL     1       1.786   9.538  22.782  0.00  0.00    +0.000 NA
ENDBRANCH   2  27
BRANCH   7  29
ATOM     29  O   UNL     1      -3.626  11.450  15.671  0.00  0.00    +0.000 OA
ATOM     30  H   UNL     1      -4.575  11.437  15.867  0.00  0.00    +0.000 HD
ENDBRANCH   7  29
TORSDOF 6
ENDMDL
MODEL 8
REMARK VINA RESULT:      -5.7      7.715     10.054
REMARK  Name = 
REMARK  8 active torsions:
REMARK  status: ('A' for Active; 'I' for Inactive)
REMARK    1  A    between atoms: C_1  and  O_2
REMARK    2  A    between atoms: O_2  and  C_3
REMARK    3  A    between atoms: C_5  and  C_6
REMARK    4  A    between atoms: C_7  and  C_8
REMARK    5  A    between atoms: C_10  and  N_11
REMARK    6  A    between atoms: C_15  and  O_16
REMARK    7  A    between atoms: C_20  and  O_21
REMARK    8  A    between atoms: O_21  and  C_22
REMARK                            x       y       z     vdW  Elec       q    Type
REMARK                         _______ _______ _______ _____ _____    ______ ____
ROOT
ATOM      1  C   UNL     1      10.308  14.489  19.908  0.00  0.00    +0.000 C 
ATOM      2  C   UNL     1      10.691  15.191  18.624  0.00  0.00    +0.000 C 
ATOM      3  C   UNL     1      10.729  14.568  17.433  0.00  0.00    +0.000 C 
ATOM      4  O   UNL     1      10.361  13.229  17.298  0.00  0.00    +0.000 OA
ATOM      5  C   UNL     1      10.036  12.486  18.410  0.00  0.00    +0.000 A 
ATOM      6  C   UNL     1       9.714  11.143  18.204  0.00  0.00    +0.000 A 
ATOM      7  C   UNL     1       9.383  10.344  19.298  0.00  0.00    +0.000 A 
ATOM      8  C   UNL     1       9.383  10.856  20.588  0.00  0.00    +0.000 A 
ATOM      9  C   UNL     1       9.707  12.193  20.791  0.00  0.00    +0.000 A 
ATOM     10  C   UNL     1      10.014  13.023  19.699  0.00  0.00    +0.000 A 
ENDROOT
BRANCH   1  13
ATOM     11  C   UNL     1       6.778  15.876  20.540  0.00  0.00    +0.000 A 
ATOM     12  C   UNL     1       7.886  15.266  19.951  0.00  0.00    +0.000 A 
ATOM     13  C   UNL     1       9.141  15.194  20.610  0.00  0.00    +0.000 A 
ATOM     14  C   UNL     1       9.286  15.745  21.901  0.00  0.00    +0.000 A 
ATOM     15  C   UNL     1       8.167  16.341  22.467  0.00  0.00    +0.000 A 
ATOM     16  C   UNL     1       6.948  16.402  21.806  0.00  0.00    +0.000 A 
ATOM     17  O   UNL     1       5.996  17.021  22.562  0.00  0.00    +0.000 OA
ATOM     18  C   UNL     1       6.706  17.269  23.781  0.00  0.00    +0.000 C 
ATOM     19  O   UNL     1       8.093  16.918  23.704  0.00  0.00    +0.000 OA
BRANCH  11  21
ATOM     20  C   UNL     1       5.720  15.140  18.546  0.00  0.00    +0.000 C 
ATOM     21  O   UNL     1       5.653  15.859  19.770  0.00  0.00    +0.000 OA
ENDBRANCH  11  21
BRANCH  14  22
ATOM     22  O   UNL     1      10.521  15.610  22.468  0.00  0.00    +0.000 OA
ATOM     23  C   UNL     1      11.339  16.768  22.589  0.00  0.00    +0.000 C 
ENDBRANCH  14  22
ENDBRANCH   1  13
BRANCH   3  24
ATOM     24  N   UNL     1      11.113  15.151  16.250  0.00  0.00    +0.000 N 
ATOM     25  H   UNL     1      11.464  16.103  16.314  0.00  0.00    +0.000 HD
ATOM     26  H   UNL     1      10.431  15.016  15.509  0.00  0.00    +0.000 HD
ENDBRANCH   3  24
BRANCH   2  27
ATOM     27  C   UNL     1      11.062  16.653  18.812  0.00  0.00    +0.000 C 
ATOM     28  N   UNL     1      11.371  17.865  18.969  0.00  0.00    +0.000 NA
ENDBRANCH   2  27
BRANCH   7  29
ATOM     29  O   UNL     1       9.046   9.030  19.148  0.00  0.00    +0.000 OA
ATOM     30  H   UNL     1       8.363   8.959  18.466  0.00  0.00    +0.000 HD
ENDBRANCH   7  29
TORSDOF 6
ENDMDL
MODEL 9
REMARK VINA RESULT:      -5.7      2.974      5.073
REMARK  Name = 
REMARK  8 active torsions:
REMARK  status: ('A' for Active; 'I' for Inactive)
REMARK    1  A    between atoms: C_1  and  O_2
REMARK    2  A    between atoms: O_2  and  C_3
REMARK    3  A    between atoms: C_5  and  C_6
REMARK    4  A    between atoms: C_7  and  C_8
REMARK    5  A    between atoms: C_10  and  N_11
REMARK    6  A    between atoms: C_15  and  O_16
REMARK    7  A    between atoms: C_20  and  O_21
REMARK    8  A    between atoms: O_21  and  C_22
REMARK                            x       y       z     vdW  Elec       q    Type
REMARK                         _______ _______ _______ _____ _____    ______ ____
ROOT
ATOM      1  C   UNL     1       0.322  12.053  20.401  0.00  0.00    +0.000 C 
ATOM      2  C   UNL     1       0.977  12.711  19.208  0.00  0.00    +0.000 C 
ATOM      3  C   UNL     1       1.771  12.046  18.350  0.00  0.00    +0.000 C 
ATOM      4  O   UNL     1       2.000  10.676  18.480  0.00  0.00    +0.000 OA
ATOM      5  C   UNL     1       1.485   9.988  19.555  0.00  0.00    +0.000 A 
ATOM      6  C   UNL     1       1.784   8.627  19.642  0.00  0.00    +0.000 A 
ATOM      7  C   UNL     1       1.293   7.885  20.715  0.00  0.00    +0.000 A 
ATOM      8  C   UNL     1       0.523   8.479  21.706  0.00  0.00    +0.000 A 
ATOM      9  C   UNL     1       0.228   9.835  21.620  0.00  0.00    +0.000 A 
ATOM     10  C   UNL     1       0.689  10.594  20.530  0.00  0.00    +0.000 A 
ENDROOT
BRANCH   1  13
ATOM     11  C   UNL     1      -3.313  11.999  19.148  0.00  0.00    +0.000 A 
ATOM     12  C   UNL     1      -1.925  11.871  19.223  0.00  0.00    +0.000 A 
ATOM     13  C   UNL     1      -1.200  12.242  20.384  0.00  0.00    +0.000 A 
ATOM     14  C   UNL     1      -1.888  12.751  21.507  0.00  0.00    +0.000 A 
ATOM     15  C   UNL     1      -3.268  12.864  21.408  0.00  0.00    +0.000 A 
ATOM     16  C   UNL     1      -3.960  12.496  20.263  0.00  0.00    +0.000 A 
ATOM     17  O   UNL     1      -5.304  12.682  20.404  0.00  0.00    +0.000 OA
ATOM     18  C   UNL     1      -5.397  13.124  21.763  0.00  0.00    +0.000 C 
ATOM     19  O   UNL     1      -4.117  13.317  22.378  0.00  0.00    +0.000 OA
BRANCH  11  21
ATOM     20  C   UNL     1      -3.523  10.288  17.515  0.00  0.00    +0.000 C 
ATOM     21  O   UNL     1      -3.849  11.597  17.961  0.00  0.00    +0.000 OA
ENDBRANCH  11  21
BRANCH  14  22
ATOM     22  O   UNL     1      -1.112  13.061  22.587  0.00  0.00    +0.000 OA
ATOM     23  C   UNL     1      -0.824  14.431  22.840  0.00  0.00    +0.000 C 
ENDBRANCH  14  22
ENDBRANCH   1  13
BRANCH   3  24
ATOM     24  N   UNL     1       2.423  12.609  17.280  0.00  0.00    +0.000 N 
ATOM     25  H   UNL     1       3.376  12.919  17.449  0.00  0.00    +0.000 HD
ATOM     26  H   UNL     1       1.853  13.294  16.791  0.00  0.00    +0.000 HD
ENDBRANCH   3  24
BRANCH   2  27
ATOM     27  C   UNL     1       0.685  14.198  19.090  0.00  0.00    +0.000 C 
ATOM     28  N   UNL     1       0.443  15.431  18.992  0.00  0.00    +0.000 NA
ENDBRANCH   2  27
BRANCH   7  29
ATOM     29  O   UNL     1       1.544   6.550  20.836  0.00  0.00    +0.000 OA
ATOM     30  H   UNL     1       2.383   6.349  20.396  0.00  0.00    +0.000 HD
ENDBRANCH   7  29
TORSDOF 6
ENDMDL
