MODEL 1
REMARK VINA RESULT:      -9.4      0.000      0.000
REMARK  Name = 
REMARK  5 active torsions:
REMARK  status: ('A' for Active; 'I' for Inactive)
REMARK    1  A    between atoms: N_3  and  C_4
REMARK    2  A    between atoms: C_4  and  C_5
REMARK    3  A    between atoms: C_5  and  C_6
REMARK    4  A    between atoms: N_12  and  C_13
REMARK    5  A    between atoms: C_17  and  C_18
REMARK                            x       y       z     vdW  Elec       q    Type
REMARK                         _______ _______ _______ _____ _____    ______ ____
ROOT
ATOM      1  O   UNL     1       6.904   8.408  17.124  0.00  0.00    +0.000 OA
ATOM      2  C   UNL     1       7.625   7.746  17.859  0.00  0.00    +0.000 C 
ATOM      3  N   UNL     1       8.606   8.336  18.636  0.00  0.00    +0.000 N 
ATOM      4  N   UNL     1       7.596   6.378  18.035  0.00  0.00    +0.000 N 
ATOM      5  H   UNL     1       9.420   7.761  18.798  0.00  0.00    +0.000 HD
ATOM      6  H   UNL     1       8.166   6.013  18.783  0.00  0.00    +0.000 HD
ENDROOT
BRANCH   4   7
ATOM      7  C   UNL     1       6.794   5.448  17.334  0.00  0.00    +0.000 A 
ATOM      8  C   UNL     1       7.060   5.051  16.022  0.00  0.00    +0.000 A 
ATOM      9  C   UNL     1       6.268   4.094  15.393  0.00  0.00    +0.000 A 
ATOM     10  C   UNL     1       5.199   3.518  16.072  0.00  0.00    +0.000 A 
ATOM     11  C   UNL     1       4.880   3.912  17.375  0.00  0.00    +0.000 A 
ATOM     12  C   UNL     1       5.694   4.879  18.000  0.00  0.00    +0.000 A 
BRANCH  11  13
ATOM     13  C   UNL     1       3.754   3.308  18.091  0.00  0.00    +0.000 A 
ATOM     14  C   UNL     1       3.297   1.988  18.153  0.00  0.00    +0.000 A 
ATOM     15  N   UNL     1       2.175   1.846  18.948  0.00  0.00    +0.000 NA
ATOM     16  C   UNL     1       1.941   3.059  19.369  0.00  0.00    +0.000 A 
ATOM     17  N   UNL     1       2.855   3.946  18.890  0.00  0.00    +0.000 N 
ATOM     18  C   UNL     1       2.628   5.292  19.376  0.00  0.00    +0.000 C 
ATOM     19  C   UNL     1       1.634   5.069  20.529  0.00  0.00    +0.000 C 
ATOM     20  C   UNL     1       0.945   3.717  20.236  0.00  0.00    +0.000 C 
ENDBRANCH  11  13
ENDBRANCH   4   7
BRANCH   3  21
ATOM     21  C   UNL     1       8.840   9.766  18.482  0.00  0.00    +0.000 C 
BRANCH  21  22
ATOM     22  C   UNL     1       9.662  10.339  19.634  0.00  0.00    +0.000 C 
BRANCH  22  23
ATOM     23  C   UNL     1      10.582  11.449  19.186  0.00  0.00    +0.000 A 
ATOM     24  C   UNL     1      10.836  11.653  17.824  0.00  0.00    +0.000 A 
ATOM     25  C   UNL     1      11.704  12.666  17.411  0.00  0.00    +0.000 A 
ATOM     26  C   UNL     1      12.328  13.481  18.354  0.00  0.00    +0.000 A 
ATOM     27  C   UNL     1      12.081  13.286  19.711  0.00  0.00    +0.000 A 
ATOM     28  C   UNL     1      11.215  12.274  20.127  0.00  0.00    +0.000 A 
ENDBRANCH  22  23
ENDBRANCH  21  22
ENDBRANCH   3  21
TORSDOF 5
ENDMDL
MODEL 2
REMARK VINA RESULT:      -8.9      1.433      1.788
REMARK  Name = 
REMARK  5 active torsions:
REMARK  status: ('A' for Active; 'I' for Inactive)
REMARK    1  A    between atoms: N_3  and  C_4
REMARK    2  A    between atoms: C_4  and  C_5
REMARK    3  A    between atoms: C_5  and  C_6
REMARK    4  A    between atoms: N_12  and  C_13
REMARK    5  A    between atoms: C_17  and  C_18
REMARK                            x       y       z     vdW  Elec       q    Type
REMARK                         _______ _______ _______ _____ _____    ______ ____
ROOT
ATOM      1  O   UNL     1       8.257   7.003  18.639  0.00  0.00    +0.000 OA
ATOM      2  C   UNL     1       7.738   7.739  17.809  0.00  0.00    +0.000 C 
ATOM      3  N   UNL     1       8.034   9.090  17.752  0.00  0.00    +0.000 N 
ATOM      4  N   UNL     1       6.820   7.381  16.843  0.00  0.00    +0.000 N 
ATOM      5  H   UNL     1       7.275   9.676  17.437  0.00  0.00    +0.000 HD
ATOM      6  H   UNL     1       6.603   8.085  16.154  0.00  0.00    +0.000 HD
ENDROOT
BRANCH   4   7
ATOM      7  C   UNL     1       6.218   6.114  16.672  0.00  0.00    +0.000 A 
ATOM      8  C   UNL     1       6.294   5.390  15.480  0.00  0.00    +0.000 A 
ATOM      9  C   UNL     1       5.726   4.123  15.379  0.00  0.00    +0.000 A 
ATOM     10  C   UNL     1       5.077   3.560  16.473  0.00  0.00    +0.000 A 
ATOM     11  C   UNL     1       4.951   4.266  17.674  0.00  0.00    +0.000 A 
ATOM     12  C   UNL     1       5.535   5.545  17.762  0.00  0.00    +0.000 A 
BRANCH  11  13
ATOM     13  C   UNL     1       4.267   3.675  18.827  0.00  0.00    +0.000 A 
ATOM     14  C   UNL     1       4.555   2.545  19.596  0.00  0.00    +0.000 A 
ATOM     15  N   UNL     1       3.632   2.329  20.601  0.00  0.00    +0.000 NA
ATOM     16  C   UNL     1       2.784   3.312  20.455  0.00  0.00    +0.000 A 
ATOM     17  N   UNL     1       3.130   4.128  19.423  0.00  0.00    +0.000 N 
ATOM     18  C   UNL     1       2.216   5.243  19.269  0.00  0.00    +0.000 C 
ATOM     19  C   UNL     1       1.427   5.214  20.589  0.00  0.00    +0.000 C 
ATOM     20  C   UNL     1       1.551   3.769  21.123  0.00  0.00    +0.000 C 
ENDBRANCH  11  13
ENDBRANCH   4   7
BRANCH   3  21
ATOM     21  C   UNL     1       8.905   9.648  18.778  0.00  0.00    +0.000 C 
BRANCH  21  22
ATOM     22  C   UNL     1       9.517  10.979  18.346  0.00  0.00    +0.000 C 
BRANCH  22  23
ATOM     23  C   UNL     1       9.639  11.953  19.492  0.00  0.00    +0.000 A 
ATOM     24  C   UNL     1      10.150  13.240  19.278  0.00  0.00    +0.000 A 
ATOM     25  C   UNL     1      10.283  14.134  20.342  0.00  0.00    +0.000 A 
ATOM     26  C   UNL     1       9.911  13.750  21.630  0.00  0.00    +0.000 A 
ATOM     27  C   UNL     1       9.402  12.472  21.853  0.00  0.00    +0.000 A 
ATOM     28  C   UNL     1       9.268  11.577  20.791  0.00  0.00    +0.000 A 
ENDBRANCH  22  23
ENDBRANCH  21  22
ENDBRANCH   3  21
TORSDOF 5
ENDMDL
MODEL 3
REMARK VINA RESULT:      -8.8      1.356      1.383
REMARK  Name = 
REMARK  5 active torsions:
REMARK  status: ('A' for Active; 'I' for Inactive)
REMARK    1  A    between atoms: N_3  and  C_4
REMARK    2  A    between atoms: C_4  and  C_5
REMARK    3  A    between atoms: C_5  and  C_6
REMARK    4  A    between atoms: N_12  and  C_13
REMARK    5  A    between atoms: C_17  and  C_18
REMARK                            x       y       z     vdW  Elec       q    Type
REMARK                         _______ _______ _______ _____ _____    ______ ____
ROOT
ATOM      1  O   UNL     1       8.317   6.947  18.654  0.00  0.00    +0.000 OA
ATOM      2  C   UNL     1       7.789   7.731  17.875  0.00  0.00    +0.000 C 
ATOM      3  N   UNL     1       8.119   9.075  17.865  0.00  0.00    +0.000 N 
ATOM      4  N   UNL     1       6.829   7.438  16.929  0.00  0.00    +0.000 N 
ATOM      5  H   UNL     1       7.365   9.693  17.602  0.00  0.00    +0.000 HD
ATOM      6  H   UNL     1       6.606   8.176  16.277  0.00  0.00    +0.000 HD
ENDROOT
BRANCH   4   7
ATOM      7  C   UNL     1       6.188   6.195  16.726  0.00  0.00    +0.000 A 
ATOM      8  C   UNL     1       6.222   5.511  15.509  0.00  0.00    +0.000 A 
ATOM      9  C   UNL     1       5.616   4.265  15.376  0.00  0.00    +0.000 A 
ATOM     10  C   UNL     1       4.970   3.683  16.462  0.00  0.00    +0.000 A 
ATOM     11  C   UNL     1       4.887   4.350  17.688  0.00  0.00    +0.000 A 
ATOM     12  C   UNL     1       5.508   5.609  17.809  0.00  0.00    +0.000 A 
BRANCH  11  13
ATOM     13  C   UNL     1       4.206   3.740  18.833  0.00  0.00    +0.000 A 
ATOM     14  C   UNL     1       4.525   2.625  19.614  0.00  0.00    +0.000 A 
ATOM     15  N   UNL     1       3.594   2.380  20.605  0.00  0.00    +0.000 NA
ATOM     16  C   UNL     1       2.710   3.327  20.438  0.00  0.00    +0.000 A 
ATOM     17  N   UNL     1       3.042   4.151  19.407  0.00  0.00    +0.000 N 
ATOM     18  C   UNL     1       2.088   5.227  19.230  0.00  0.00    +0.000 C 
ATOM     19  C   UNL     1       1.277   5.175  20.536  0.00  0.00    +0.000 C 
ATOM     20  C   UNL     1       1.450   3.739  21.082  0.00  0.00    +0.000 C 
ENDBRANCH  11  13
ENDBRANCH   4   7
BRANCH   3  21
ATOM     21  C   UNL     1       9.040   9.566  18.881  0.00  0.00    +0.000 C 
BRANCH  21  22
ATOM     22  C   UNL     1       8.716  10.998  19.303  0.00  0.00    +0.000 C 
BRANCH  22  23
ATOM     23  C   UNL     1       9.550  12.016  18.565  0.00  0.00    +0.000 A 
ATOM     24  C   UNL     1      10.598  11.606  17.731  0.00  0.00    +0.000 A 
ATOM     25  C   UNL     1      11.384  12.549  17.066  0.00  0.00    +0.000 A 
ATOM     26  C   UNL     1      11.131  13.910  17.230  0.00  0.00    +0.000 A 
ATOM     27  C   UNL     1      10.091  14.329  18.056  0.00  0.00    +0.000 A 
ATOM     28  C   UNL     1       9.305  13.388  18.723  0.00  0.00    +0.000 A 
ENDBRANCH  22  23
ENDBRANCH  21  22
ENDBRANCH   3  21
TORSDOF 5
ENDMDL
MODEL 4
REMARK VINA RESULT:      -8.6      1.869      2.303
REMARK  Name = 
REMARK  5 active torsions:
REMARK  status: ('A' for Active; 'I' for Inactive)
REMARK    1  A    between atoms: N_3  and  C_4
REMARK    2  A    between atoms: C_4  and  C_5
REMARK    3  A    between atoms: C_5  and  C_6
REMARK    4  A    between atoms: N_12  and  C_13
REMARK    5  A    between atoms: C_17  and  C_18
REMARK                            x       y       z     vdW  Elec       q    Type
REMARK                         _______ _______ _______ _____ _____    ______ ____
ROOT
ATOM      1  O   UNL     1       8.183   6.986  18.642  0.00  0.00    +0.000 OA
ATOM      2  C   UNL     1       7.723   7.727  17.782  0.00  0.00    +0.000 C 
ATOM      3  N   UNL     1       8.045   9.072  17.736  0.00  0.00    +0.000 N 
ATOM      4  N   UNL     1       6.854   7.380  16.767  0.00  0.00    +0.000 N 
ATOM      5  H   UNL     1       7.315   9.669  17.376  0.00  0.00    +0.000 HD
ATOM      6  H   UNL     1       6.688   8.084  16.064  0.00  0.00    +0.000 HD
ENDROOT
BRANCH   4   7
ATOM      7  C   UNL     1       6.241   6.122  16.568  0.00  0.00    +0.000 A 
ATOM      8  C   UNL     1       6.763   5.149  15.713  0.00  0.00    +0.000 A 
ATOM      9  C   UNL     1       6.147   3.906  15.590  0.00  0.00    +0.000 A 
ATOM     10  C   UNL     1       5.002   3.618  16.325  0.00  0.00    +0.000 A 
ATOM     11  C   UNL     1       4.430   4.578  17.167  0.00  0.00    +0.000 A 
ATOM     12  C   UNL     1       5.067   5.829  17.285  0.00  0.00    +0.000 A 
BRANCH  11  13
ATOM     13  C   UNL     1       3.223   4.278  17.941  0.00  0.00    +0.000 A 
ATOM     14  C   UNL     1       1.869   4.487  17.664  0.00  0.00    +0.000 A 
ATOM     15  N   UNL     1       1.040   4.063  18.684  0.00  0.00    +0.000 NA
ATOM     16  C   UNL     1       1.869   3.600  19.581  0.00  0.00    +0.000 A 
ATOM     17  N   UNL     1       3.163   3.704  19.174  0.00  0.00    +0.000 N 
ATOM     18  C   UNL     1       4.093   3.163  20.144  0.00  0.00    +0.000 C 
ATOM     19  C   UNL     1       3.172   2.369  21.086  0.00  0.00    +0.000 C 
ATOM     20  C   UNL     1       1.764   2.986  20.918  0.00  0.00    +0.000 C 
ENDBRANCH  11  13
ENDBRANCH   4   7
BRANCH   3  21
ATOM     21  C   UNL     1       8.868   9.620  18.806  0.00  0.00    +0.000 C 
BRANCH  21  22
ATOM     22  C   UNL     1       9.737  10.779  18.323  0.00  0.00    +0.000 C 
BRANCH  22  23
ATOM     23  C   UNL     1       9.149  12.123  18.677  0.00  0.00    +0.000 A 
ATOM     24  C   UNL     1       9.206  12.599  19.993  0.00  0.00    +0.000 A 
ATOM     25  C   UNL     1       8.642  13.833  20.324  0.00  0.00    +0.000 A 
ATOM     26  C   UNL     1       8.014  14.601  19.345  0.00  0.00    +0.000 A 
ATOM     27  C   UNL     1       7.953  14.137  18.033  0.00  0.00    +0.000 A 
ATOM     28  C   UNL     1       8.515  12.904  17.699  0.00  0.00    +0.000 A 
ENDBRANCH  22  23
ENDBRANCH  21  22
ENDBRANCH   3  21
TORSDOF 5
ENDMDL
MODEL 5
REMARK VINA RESULT:      -8.5      1.232      1.832
REMARK  Name = 
REMARK  5 active torsions:
REMARK  status: ('A' for Active; 'I' for Inactive)
REMARK    1  A    between atoms: N_3  and  C_4
REMARK    2  A    between atoms: C_4  and  C_5
REMARK    3  A    between atoms: C_5  and  C_6
REMARK    4  A    between atoms: N_12  and  C_13
REMARK    5  A    between atoms: C_17  and  C_18
REMARK                            x       y       z     vdW  Elec       q    Type
REMARK                         _______ _______ _______ _____ _____    ______ ____
ROOT
ATOM      1  O   UNL     1       8.330   7.155  18.697  0.00  0.00    +0.000 OA
ATOM      2  C   UNL     1       7.843   8.008  17.966  0.00  0.00    +0.000 C 
ATOM      3  N   UNL     1       8.331   9.302  17.937  0.00  0.00    +0.000 N 
ATOM      4  N   UNL     1       6.786   7.845  17.094  0.00  0.00    +0.000 N 
ATOM      5  H   UNL     1       7.639  10.010  17.736  0.00  0.00    +0.000 HD
ATOM      6  H   UNL     1       6.605   8.614  16.466  0.00  0.00    +0.000 HD
ENDROOT
BRANCH   4   7
ATOM      7  C   UNL     1       5.986   6.691  16.934  0.00  0.00    +0.000 A 
ATOM      8  C   UNL     1       6.189   5.761  15.912  0.00  0.00    +0.000 A 
ATOM      9  C   UNL     1       5.404   4.614  15.828  0.00  0.00    +0.000 A 
ATOM     10  C   UNL     1       4.408   4.379  16.771  0.00  0.00    +0.000 A 
ATOM     11  C   UNL     1       4.154   5.301  17.790  0.00  0.00    +0.000 A 
ATOM     12  C   UNL     1       4.958   6.456  17.864  0.00  0.00    +0.000 A 
BRANCH  11  13
ATOM     13  C   UNL     1       3.104   5.057  18.783  0.00  0.00    +0.000 A 
ATOM     14  C   UNL     1       2.645   5.828  19.855  0.00  0.00    +0.000 A 
ATOM     15  N   UNL     1       1.630   5.213  20.562  0.00  0.00    +0.000 NA
ATOM     16  C   UNL     1       1.464   4.078  19.938  0.00  0.00    +0.000 A 
ATOM     17  N   UNL     1       2.311   3.954  18.880  0.00  0.00    +0.000 N 
ATOM     18  C   UNL     1       2.116   2.714  18.157  0.00  0.00    +0.000 C 
ATOM     19  C   UNL     1       0.767   2.217  18.703  0.00  0.00    +0.000 C 
ATOM     20  C   UNL     1       0.591   2.898  20.079  0.00  0.00    +0.000 C 
ENDBRANCH  11  13
ENDBRANCH   4   7
BRANCH   3  21
ATOM     21  C   UNL     1       9.379   9.665  18.883  0.00  0.00    +0.000 C 
BRANCH  21  22
ATOM     22  C   UNL     1       9.149  11.048  19.488  0.00  0.00    +0.000 C 
BRANCH  22  23
ATOM     23  C   UNL     1      10.233  12.027  19.110  0.00  0.00    +0.000 A 
ATOM     24  C   UNL     1      10.957  11.860  17.922  0.00  0.00    +0.000 A 
ATOM     25  C   UNL     1      11.975  12.753  17.583  0.00  0.00    +0.000 A 
ATOM     26  C   UNL     1      12.281  13.819  18.428  0.00  0.00    +0.000 A 
ATOM     27  C   UNL     1      11.567  13.994  19.611  0.00  0.00    +0.000 A 
ATOM     28  C   UNL     1      10.550  13.102  19.953  0.00  0.00    +0.000 A 
ENDBRANCH  22  23
ENDBRANCH  21  22
ENDBRANCH   3  21
TORSDOF 5
ENDMDL
MODEL 6
REMARK VINA RESULT:      -8.5      1.152      1.725
REMARK  Name = 
REMARK  5 active torsions:
REMARK  status: ('A' for Active; 'I' for Inactive)
REMARK    1  A    between atoms: N_3  and  C_4
REMARK    2  A    between atoms: C_4  and  C_5
REMARK    3  A    between atoms: C_5  and  C_6
REMARK    4  A    between atoms: N_12  and  C_13
REMARK    5  A    between atoms: C_17  and  C_18
REMARK                            x       y       z     vdW  Elec       q    Type
REMARK                         _______ _______ _______ _____ _____    ______ ____
ROOT
ATOM      1  O   UNL     1       7.131   8.732  17.168  0.00  0.00    +0.000 OA
ATOM      2  C   UNL     1       7.782   8.095  17.987  0.00  0.00    +0.000 C 
ATOM      3  N   UNL     1       8.713   8.708  18.807  0.00  0.00    +0.000 N 
ATOM      4  N   UNL     1       7.712   6.738  18.226  0.00  0.00    +0.000 N 
ATOM      5  H   UNL     1       9.500   8.128  19.059  0.00  0.00    +0.000 HD
ATOM      6  H   UNL     1       8.217   6.401  19.033  0.00  0.00    +0.000 HD
ENDROOT
BRANCH   4   7
ATOM      7  C   UNL     1       6.947   5.788  17.511  0.00  0.00    +0.000 A 
ATOM      8  C   UNL     1       7.238   5.410  16.199  0.00  0.00    +0.000 A 
ATOM      9  C   UNL     1       6.483   4.432  15.556  0.00  0.00    +0.000 A 
ATOM     10  C   UNL     1       5.428   3.815  16.221  0.00  0.00    +0.000 A 
ATOM     11  C   UNL     1       5.086   4.189  17.524  0.00  0.00    +0.000 A 
ATOM     12  C   UNL     1       5.861   5.177  18.163  0.00  0.00    +0.000 A 
BRANCH  11  13
ATOM     13  C   UNL     1       3.974   3.542  18.226  0.00  0.00    +0.000 A 
ATOM     14  C   UNL     1       3.575   2.204  18.295  0.00  0.00    +0.000 A 
ATOM     15  N   UNL     1       2.446   2.020  19.070  0.00  0.00    +0.000 NA
ATOM     16  C   UNL     1       2.150   3.226  19.473  0.00  0.00    +0.000 A 
ATOM     17  N   UNL     1       3.032   4.148  19.001  0.00  0.00    +0.000 N 
ATOM     18  C   UNL     1       2.736   5.488  19.467  0.00  0.00    +0.000 C 
ATOM     19  C   UNL     1       1.731   5.233  20.603  0.00  0.00    +0.000 C 
ATOM     20  C   UNL     1       1.109   3.848  20.314  0.00  0.00    +0.000 C 
ENDBRANCH  11  13
ENDBRANCH   4   7
BRANCH   3  21
ATOM     21  C   UNL     1       8.985  10.124  18.603  0.00  0.00    +0.000 C 
BRANCH  21  22
ATOM     22  C   UNL     1      10.236  10.580  19.352  0.00  0.00    +0.000 C 
BRANCH  22  23
ATOM     23  C   UNL     1       9.977  11.789  20.217  0.00  0.00    +0.000 A 
ATOM     24  C   UNL     1       9.276  11.662  21.423  0.00  0.00    +0.000 A 
ATOM     25  C   UNL     1       9.017  12.784  22.213  0.00  0.00    +0.000 A 
ATOM     26  C   UNL     1       9.455  14.043  21.805  0.00  0.00    +0.000 A 
ATOM     27  C   UNL     1      10.154  14.180  20.607  0.00  0.00    +0.000 A 
ATOM     28  C   UNL     1      10.412  13.060  19.816  0.00  0.00    +0.000 A 
ENDBRANCH  22  23
ENDBRANCH  21  22
ENDBRANCH   3  21
TORSDOF 5
ENDMDL
MODEL 7
REMARK VINA RESULT:      -8.4      1.552      2.345
REMARK  Name = 
REMARK  5 active torsions:
REMARK  status: ('A' for Active; 'I' for Inactive)
REMARK    1  A    between atoms: N_3  and  C_4
REMARK    2  A    between atoms: C_4  and  C_5
REMARK    3  A    between atoms: C_5  and  C_6
REMARK    4  A    between atoms: N_12  and  C_13
REMARK    5  A    between atoms: C_17  and  C_18
REMARK                            x       y       z     vdW  Elec       q    Type
REMARK                         _______ _______ _______ _____ _____    ______ ____
ROOT
ATOM      1  O   UNL     1       8.284   7.281  18.727  0.00  0.00    +0.000 OA
ATOM      2  C   UNL     1       7.836   8.011  17.852  0.00  0.00    +0.000 C 
ATOM      3  N   UNL     1       8.281   9.311  17.694  0.00  0.00    +0.000 N 
ATOM      4  N   UNL     1       6.866   7.691  16.924  0.00  0.00    +0.000 N 
ATOM      5  H   UNL     1       7.587   9.955  17.344  0.00  0.00    +0.000 HD
ATOM      6  H   UNL     1       6.716   8.364  16.187  0.00  0.00    +0.000 HD
ENDROOT
BRANCH   4   7
ATOM      7  C   UNL     1       6.122   6.491  16.852  0.00  0.00    +0.000 A 
ATOM      8  C   UNL     1       6.410   5.472  15.941  0.00  0.00    +0.000 A 
ATOM      9  C   UNL     1       5.677   4.288  15.945  0.00  0.00    +0.000 A 
ATOM     10  C   UNL     1       4.648   4.105  16.863  0.00  0.00    +0.000 A 
ATOM     11  C   UNL     1       4.309   5.115  17.770  0.00  0.00    +0.000 A 
ATOM     12  C   UNL     1       5.062   6.306  17.757  0.00  0.00    +0.000 A 
BRANCH  11  13
ATOM     13  C   UNL     1       3.225   4.926  18.737  0.00  0.00    +0.000 A 
ATOM     14  C   UNL     1       2.746   5.746  19.763  0.00  0.00    +0.000 A 
ATOM     15  N   UNL     1       1.699   5.175  20.461  0.00  0.00    +0.000 NA
ATOM     16  C   UNL     1       1.534   4.019  19.877  0.00  0.00    +0.000 A 
ATOM     17  N   UNL     1       2.412   3.841  18.853  0.00  0.00    +0.000 N 
ATOM     18  C   UNL     1       2.219   2.576  18.173  0.00  0.00    +0.000 C 
ATOM     19  C   UNL     1       0.845   2.121  18.694  0.00  0.00    +0.000 C 
ATOM     20  C   UNL     1       0.638   2.859  20.037  0.00  0.00    +0.000 C 
ENDBRANCH  11  13
ENDBRANCH   4   7
BRANCH   3  21
ATOM     21  C   UNL     1       9.229   9.838  18.667  0.00  0.00    +0.000 C 
BRANCH  21  22
ATOM     22  C   UNL     1       9.873  11.138  18.191  0.00  0.00    +0.000 C 
BRANCH  22  23
ATOM     23  C   UNL     1       9.773  12.238  19.220  0.00  0.00    +0.000 A 
ATOM     24  C   UNL     1      10.111  11.992  20.557  0.00  0.00    +0.000 A 
ATOM     25  C   UNL     1       9.997  13.003  21.513  0.00  0.00    +0.000 A 
ATOM     26  C   UNL     1       9.543  14.268  21.142  0.00  0.00    +0.000 A 
ATOM     27  C   UNL     1       9.205  14.523  19.815  0.00  0.00    +0.000 A 
ATOM     28  C   UNL     1       9.317  13.514  18.858  0.00  0.00    +0.000 A 
ENDBRANCH  22  23
ENDBRANCH  21  22
ENDBRANCH   3  21
TORSDOF 5
ENDMDL
MODEL 8
REMARK VINA RESULT:      -8.3      0.988      1.360
REMARK  Name = 
REMARK  5 active torsions:
REMARK  status: ('A' for Active; 'I' for Inactive)
REMARK    1  A    between atoms: N_3  and  C_4
REMARK    2  A    between atoms: C_4  and  C_5
REMARK    3  A    between atoms: C_5  and  C_6
REMARK    4  A    between atoms: N_12  and  C_13
REMARK    5  A    between atoms: C_17  and  C_18
REMARK                            x       y       z     vdW  Elec       q    Type
REMARK                         _______ _______ _______ _____ _____    ______ ____
ROOT
ATOM      1  O   UNL     1       7.569   6.804  18.740  0.00  0.00    +0.000 OA
ATOM      2  C   UNL     1       7.610   7.317  17.629  0.00  0.00    +0.000 C 
ATOM      3  N   UNL     1       8.189   8.556  17.424  0.00  0.00    +0.000 N 
ATOM      4  N   UNL     1       7.116   6.788  16.454  0.00  0.00    +0.000 N 
ATOM      5  H   UNL     1       7.774   9.099  16.680  0.00  0.00    +0.000 HD
ATOM      6  H   UNL     1       7.359   7.280  15.607  0.00  0.00    +0.000 HD
ENDROOT
BRANCH   4   7
ATOM      7  C   UNL     1       6.378   5.592  16.305  0.00  0.00    +0.000 A 
ATOM      8  C   UNL     1       6.500   4.756  15.193  0.00  0.00    +0.000 A 
ATOM      9  C   UNL     1       5.787   3.563  15.118  0.00  0.00    +0.000 A 
ATOM     10  C   UNL     1       4.943   3.187  16.159  0.00  0.00    +0.000 A 
ATOM     11  C   UNL     1       4.769   4.012  17.274  0.00  0.00    +0.000 A 
ATOM     12  C   UNL     1       5.501   5.215  17.338  0.00  0.00    +0.000 A 
BRANCH  11  13
ATOM     13  C   UNL     1       3.880   3.619  18.371  0.00  0.00    +0.000 A 
ATOM     14  C   UNL     1       3.679   2.390  19.006  0.00  0.00    +0.000 A 
ATOM     15  N   UNL     1       2.724   2.450  20.002  0.00  0.00    +0.000 NA
ATOM     16  C   UNL     1       2.337   3.697  19.982  0.00  0.00    +0.000 A 
ATOM     17  N   UNL     1       3.002   4.418  19.038  0.00  0.00    +0.000 N 
ATOM     18  C   UNL     1       2.608   5.812  19.027  0.00  0.00    +0.000 C 
ATOM     19  C   UNL     1       1.841   5.955  20.353  0.00  0.00    +0.000 C 
ATOM     20  C   UNL     1       1.371   4.529  20.723  0.00  0.00    +0.000 C 
ENDBRANCH  11  13
ENDBRANCH   4   7
BRANCH   3  21
ATOM     21  C   UNL     1       8.662   9.297  18.586  0.00  0.00    +0.000 C 
BRANCH  21  22
ATOM     22  C   UNL     1       8.564  10.807  18.380  0.00  0.00    +0.000 C 
BRANCH  22  23
ATOM     23  C   UNL     1       9.884  11.504  18.606  0.00  0.00    +0.000 A 
ATOM     24  C   UNL     1      10.548  11.384  19.834  0.00  0.00    +0.000 A 
ATOM     25  C   UNL     1      11.757  12.046  20.051  0.00  0.00    +0.000 A 
ATOM     26  C   UNL     1      12.313  12.836  19.046  0.00  0.00    +0.000 A 
ATOM     27  C   UNL     1      11.661  12.961  17.821  0.00  0.00    +0.000 A 
ATOM     28  C   UNL     1      10.452  12.301  17.602  0.00  0.00    +0.000 A 
ENDBRANCH  22  23
ENDBRANCH  21  22
ENDBRANCH   3  21
TORSDOF 5
ENDMDL
MODEL 9
REMARK VINA RESULT:      -8.3      5.115      8.705
REMARK  Name = 
REMARK  5 active torsions:
REMARK  status: ('A' for Active; 'I' for Inactive)
REMARK    1  A    between atoms: N_3  and  C_4
REMARK    2  A    between atoms: C_4  and  C_5
REMARK    3  A    between atoms: C_5  and  C_6
REMARK    4  A    between atoms: N_12  and  C_13
REMARK    5  A    between atoms: C_17  and  C_18
REMARK                            x       y       z     vdW  Elec       q    Type
REMARK                         _______ _______ _______ _____ _____    ______ ____
ROOT
ATOM      1  O   UNL     1       1.536   8.078  18.140  0.00  0.00    +0.000 OA
ATOM      2  C   UNL     1       1.597   8.174  19.359  0.00  0.00    +0.000 C 
ATOM      3  N   UNL     1       1.215   9.331  20.015  0.00  0.00    +0.000 N 
ATOM      4  N   UNL     1       2.032   7.210  20.245  0.00  0.00    +0.000 N 
ATOM      5  H   UNL     1       1.724   9.521  20.867  0.00  0.00    +0.000 HD
ATOM      6  H   UNL     1       1.884   7.405  21.224  0.00  0.00    +0.000 HD
ENDROOT
BRANCH   4   7
ATOM      7  C   UNL     1       2.586   5.949  19.924  0.00  0.00    +0.000 A 
ATOM      8  C   UNL     1       1.984   4.741  20.282  0.00  0.00    +0.000 A 
ATOM      9  C   UNL     1       2.544   3.526  19.898  0.00  0.00    +0.000 A 
ATOM     10  C   UNL     1       3.714   3.503  19.145  0.00  0.00    +0.000 A 
ATOM     11  C   UNL     1       4.364   4.691  18.794  0.00  0.00    +0.000 A 
ATOM     12  C   UNL     1       3.782   5.913  19.187  0.00  0.00    +0.000 A 
BRANCH  11  13
ATOM     13  C   UNL     1       5.596   4.670  18.002  0.00  0.00    +0.000 A 
ATOM     14  C   UNL     1       6.942   4.697  18.382  0.00  0.00    +0.000 A 
ATOM     15  N   UNL     1       7.804   4.674  17.302  0.00  0.00    +0.000 NA
ATOM     16  C   UNL     1       7.005   4.635  16.271  0.00  0.00    +0.000 A 
ATOM     17  N   UNL     1       5.696   4.624  16.645  0.00  0.00    +0.000 N 
ATOM     18  C   UNL     1       4.797   4.547  15.512  0.00  0.00    +0.000 C 
ATOM     19  C   UNL     1       5.739   4.149  14.363  0.00  0.00    +0.000 C 
ATOM     20  C   UNL     1       7.153   4.592  14.804  0.00  0.00    +0.000 C 
ENDBRANCH  11  13
ENDBRANCH   4   7
BRANCH   3  21
ATOM     21  C   UNL     1       0.834  10.485  19.212  0.00  0.00    +0.000 C 
BRANCH  21  22
ATOM     22  C   UNL     1      -0.466  11.119  19.702  0.00  0.00    +0.000 C 
BRANCH  22  23
ATOM     23  C   UNL     1      -1.591  10.960  18.709  0.00  0.00    +0.000 A 
ATOM     24  C   UNL     1      -2.761  11.720  18.835  0.00  0.00    +0.000 A 
ATOM     25  C   UNL     1      -3.812  11.557  17.929  0.00  0.00    +0.000 A 
ATOM     26  C   UNL     1      -3.704  10.631  16.892  0.00  0.00    +0.000 A 
ATOM     27  C   UNL     1      -2.544   9.871  16.758  0.00  0.00    +0.000 A 
ATOM     28  C   UNL     1      -1.494  10.032  17.662  0.00  0.00    +0.000 A 
ENDBRANCH  22  23
ENDBRANCH  21  22
ENDBRANCH   3  21
TORSDOF 5
ENDMDL
