MODEL 1
REMARK VINA RESULT:      -8.2      0.000      0.000
REMARK  Name = 
REMARK  6 active torsions:
REMARK  status: ('A' for Active; 'I' for Inactive)
REMARK    1  A    between atoms: C_2  and  O_3
REMARK    2  A    between atoms: C_2  and  C_4
REMARK    3  A    between atoms: C_7  and  N_8
REMARK    4  A    between atoms: C_9  and  C_21
REMARK    5  A    between atoms: N_10  and  S_11
REMARK    6  A    between atoms: S_11  and  C_14
REMARK                            x       y       z     vdW  Elec       q    Type
REMARK                         _______ _______ _______ _____ _____    ______ ____
ROOT
ATOM      1  N   UNL     1       4.594   3.370  16.027  0.00  0.00    +0.000 N 
ATOM      2  C   UNL     1       5.621   4.267  15.802  0.00  0.00    +0.000 C 
ATOM      3  N   UNL     1       6.275   5.102  16.526  0.00  0.00    +0.000 NA
ATOM      4  H   UNL     1       4.612   2.555  15.419  0.00  0.00    +0.000 HD
ENDROOT
BRANCH   1   8
ATOM      5  C   UNL     1       2.030   3.036  19.323  0.00  0.00    +0.000 A 
ATOM      6  C   UNL     1       1.578   3.717  18.191  0.00  0.00    +0.000 A 
ATOM      7  C   UNL     1       2.405   3.812  17.063  0.00  0.00    +0.000 A 
ATOM      8  C   UNL     1       3.664   3.213  17.055  0.00  0.00    +0.000 A 
ATOM      9  C   UNL     1       4.040   2.423  18.156  0.00  0.00    +0.000 A 
ATOM     10  C   UNL     1       3.238   2.344  19.291  0.00  0.00    +0.000 A 
BRANCH   5  12
ATOM     11  O   UNL     1       1.402   2.319  21.498  0.00  0.00    +0.000 OA
ATOM     12  C   UNL     1       1.236   3.085  20.568  0.00  0.00    +0.000 C 
BRANCH  12  13
ATOM     13  O   UNL     1       0.269   4.025  20.518  0.00  0.00    +0.000 OA
ATOM     14  H   UNL     1      -0.147   4.145  19.640  0.00  0.00    +0.000 HD
ENDBRANCH  12  13
ENDBRANCH   5  12
ENDBRANCH   1   8
BRANCH   2  15
ATOM     15  C   UNL     1       6.135   4.218  14.357  0.00  0.00    +0.000 A 
ATOM     16  C   UNL     1       5.496   3.405  13.405  0.00  0.00    +0.000 A 
ATOM     17  C   UNL     1       5.989   3.315  12.100  0.00  0.00    +0.000 A 
ATOM     18  C   UNL     1       7.109   4.053  11.727  0.00  0.00    +0.000 A 
ATOM     19  C   UNL     1       7.724   4.899  12.649  0.00  0.00    +0.000 A 
ATOM     20  C   UNL     1       7.239   4.986  13.959  0.00  0.00    +0.000 A 
ENDBRANCH   2  15
BRANCH   3  21
ATOM     21  S   UNL     1       6.142   5.630  18.025  0.00  0.00    +0.000 S 
ATOM     22  O   UNL     1       6.185   4.459  18.889  0.00  0.00    +0.000 OA
ATOM     23  O   UNL     1       7.124   6.679  18.241  0.00  0.00    +0.000 OA
BRANCH  21  24
ATOM     24  C   UNL     1       4.536   6.331  18.367  0.00  0.00    +0.000 A 
ATOM     25  C   UNL     1       3.867   6.053  19.563  0.00  0.00    +0.000 A 
ATOM     26  C   UNL     1       2.703   6.770  19.878  0.00  0.00    +0.000 A 
ATOM     27  C   UNL     1       2.223   7.753  19.010  0.00  0.00    +0.000 A 
ATOM     28 CL   UNL     1       0.805   8.640  19.410  0.00  0.00    +0.000 Cl
ATOM     29  C   UNL     1       2.893   8.035  17.821  0.00  0.00    +0.000 A 
ATOM     30  C   UNL     1       4.052   7.326  17.502  0.00  0.00    +0.000 A 
ENDBRANCH  21  24
ENDBRANCH   3  21
TORSDOF 6
ENDMDL
MODEL 2
REMARK VINA RESULT:      -7.6      0.258      1.318
REMARK  Name = 
REMARK  6 active torsions:
REMARK  status: ('A' for Active; 'I' for Inactive)
REMARK    1  A    between atoms: C_2  and  O_3
REMARK    2  A    between atoms: C_2  and  C_4
REMARK    3  A    between atoms: C_7  and  N_8
REMARK    4  A    between atoms: C_9  and  C_21
REMARK    5  A    between atoms: N_10  and  S_11
REMARK    6  A    between atoms: S_11  and  C_14
REMARK                            x       y       z     vdW  Elec       q    Type
REMARK                         _______ _______ _______ _____ _____    ______ ____
ROOT
ATOM      1  N   UNL     1       4.626   3.354  15.973  0.00  0.00    +0.000 N 
ATOM      2  C   UNL     1       5.726   4.173  15.802  0.00  0.00    +0.000 C 
ATOM      3  N   UNL     1       6.442   4.908  16.574  0.00  0.00    +0.000 NA
ATOM      4  H   UNL     1       4.581   2.576  15.320  0.00  0.00    +0.000 HD
ENDROOT
BRANCH   1   8
ATOM      5  C   UNL     1       2.021   3.041  19.239  0.00  0.00    +0.000 A 
ATOM      6  C   UNL     1       1.653   3.855  18.167  0.00  0.00    +0.000 A 
ATOM      7  C   UNL     1       2.493   3.949  17.047  0.00  0.00    +0.000 A 
ATOM      8  C   UNL     1       3.678   3.219  16.988  0.00  0.00    +0.000 A 
ATOM      9  C   UNL     1       3.959   2.307  18.020  0.00  0.00    +0.000 A 
ATOM     10  C   UNL     1       3.147   2.225  19.148  0.00  0.00    +0.000 A 
BRANCH   5  12
ATOM     11  O   UNL     1       1.403   2.304  21.410  0.00  0.00    +0.000 OA
ATOM     12  C   UNL     1       1.230   3.076  20.486  0.00  0.00    +0.000 C 
BRANCH  12  13
ATOM     13  O   UNL     1       0.258   4.011  20.445  0.00  0.00    +0.000 OA
ATOM     14  H   UNL     1       0.301   4.620  19.681  0.00  0.00    +0.000 HD
ENDBRANCH  12  13
ENDBRANCH   5  12
ENDBRANCH   1   8
BRANCH   2  15
ATOM     15  C   UNL     1       6.245   4.163  14.358  0.00  0.00    +0.000 A 
ATOM     16  C   UNL     1       7.316   4.995  13.986  0.00  0.00    +0.000 A 
ATOM     17  C   UNL     1       7.762   5.030  12.661  0.00  0.00    +0.000 A 
ATOM     18  C   UNL     1       7.161   4.219  11.703  0.00  0.00    +0.000 A 
ATOM     19  C   UNL     1       6.129   3.355  12.069  0.00  0.00    +0.000 A 
ATOM     20  C   UNL     1       5.674   3.323  13.392  0.00  0.00    +0.000 A 
ENDBRANCH   2  15
BRANCH   3  21
ATOM     21  S   UNL     1       6.342   5.360  18.101  0.00  0.00    +0.000 S 
ATOM     22  O   UNL     1       6.120   4.153  18.883  0.00  0.00    +0.000 OA
ATOM     23  O   UNL     1       7.496   6.183  18.421  0.00  0.00    +0.000 OA
BRANCH  21  24
ATOM     24  C   UNL     1       4.887   6.337  18.434  0.00  0.00    +0.000 A 
ATOM     25  C   UNL     1       4.401   7.253  17.496  0.00  0.00    +0.000 A 
ATOM     26  C   UNL     1       3.154   7.858  17.711  0.00  0.00    +0.000 A 
ATOM     27  C   UNL     1       2.404   7.542  18.846  0.00  0.00    +0.000 A 
ATOM     28 CL   UNL     1       0.867   8.274  19.095  0.00  0.00    +0.000 Cl
ATOM     29  C   UNL     1       2.882   6.624  19.778  0.00  0.00    +0.000 A 
ATOM     30  C   UNL     1       4.122   6.019  19.569  0.00  0.00    +0.000 A 
ENDBRANCH  21  24
ENDBRANCH   3  21
TORSDOF 6
ENDMDL
MODEL 3
REMARK VINA RESULT:      -7.5      0.496      1.036
REMARK  Name = 
REMARK  6 active torsions:
REMARK  status: ('A' for Active; 'I' for Inactive)
REMARK    1  A    between atoms: C_2  and  O_3
REMARK    2  A    between atoms: C_2  and  C_4
REMARK    3  A    between atoms: C_7  and  N_8
REMARK    4  A    between atoms: C_9  and  C_21
REMARK    5  A    between atoms: N_10  and  S_11
REMARK    6  A    between atoms: S_11  and  C_14
REMARK                            x       y       z     vdW  Elec       q    Type
REMARK                         _______ _______ _______ _____ _____    ______ ____
ROOT
ATOM      1  N   UNL     1       4.786   3.513  16.087  0.00  0.00    +0.000 N 
ATOM      2  C   UNL     1       5.759   4.422  15.719  0.00  0.00    +0.000 C 
ATOM      3  N   UNL     1       6.423   5.340  16.324  0.00  0.00    +0.000 NA
ATOM      4  H   UNL     1       4.799   2.648  15.552  0.00  0.00    +0.000 HD
ENDROOT
BRANCH   1   8
ATOM      5  C   UNL     1       1.996   3.058  19.180  0.00  0.00    +0.000 A 
ATOM      6  C   UNL     1       3.293   2.580  19.374  0.00  0.00    +0.000 A 
ATOM      7  C   UNL     1       4.254   2.751  18.366  0.00  0.00    +0.000 A 
ATOM      8  C   UNL     1       3.930   3.415  17.184  0.00  0.00    +0.000 A 
ATOM      9  C   UNL     1       2.657   4.002  17.070  0.00  0.00    +0.000 A 
ATOM     10  C   UNL     1       1.688   3.815  18.051  0.00  0.00    +0.000 A 
BRANCH   5  12
ATOM     11  O   UNL     1       1.134   2.683  21.360  0.00  0.00    +0.000 OA
ATOM     12  C   UNL     1       0.942   2.726  20.160  0.00  0.00    +0.000 C 
BRANCH  12  13
ATOM     13  O   UNL     1      -0.226   2.409  19.563  0.00  0.00    +0.000 OA
ATOM     14  H   UNL     1      -0.663   3.148  19.091  0.00  0.00    +0.000 HD
ENDBRANCH  12  13
ENDBRANCH   5  12
ENDBRANCH   1   8
BRANCH   2  15
ATOM     15  C   UNL     1       6.184   4.264  14.252  0.00  0.00    +0.000 A 
ATOM     16  C   UNL     1       5.478   3.397  13.401  0.00  0.00    +0.000 A 
ATOM     17  C   UNL     1       5.889   3.208  12.078  0.00  0.00    +0.000 A 
ATOM     18  C   UNL     1       6.993   3.901  11.587  0.00  0.00    +0.000 A 
ATOM     19  C   UNL     1       7.673   4.799  12.408  0.00  0.00    +0.000 A 
ATOM     20  C   UNL     1       7.270   4.985  13.735  0.00  0.00    +0.000 A 
ENDBRANCH   2  15
BRANCH   3  21
ATOM     21  S   UNL     1       6.363   5.993  17.778  0.00  0.00    +0.000 S 
ATOM     22  O   UNL     1       6.644   4.927  18.729  0.00  0.00    +0.000 OA
ATOM     23  O   UNL     1       7.212   7.172  17.797  0.00  0.00    +0.000 OA
BRANCH  21  24
ATOM     24  C   UNL     1       4.718   6.518  18.228  0.00  0.00    +0.000 A 
ATOM     25  C   UNL     1       4.159   6.166  19.461  0.00  0.00    +0.000 A 
ATOM     26  C   UNL     1       2.949   6.754  19.857  0.00  0.00    +0.000 A 
ATOM     27  C   UNL     1       2.314   7.685  19.031  0.00  0.00    +0.000 A 
ATOM     28 CL   UNL     1       0.838   8.415  19.529  0.00  0.00    +0.000 Cl
ATOM     29  C   UNL     1       2.872   8.041  17.806  0.00  0.00    +0.000 A 
ATOM     30  C   UNL     1       4.077   7.460  17.407  0.00  0.00    +0.000 A 
ENDBRANCH  21  24
ENDBRANCH   3  21
TORSDOF 6
ENDMDL
MODEL 4
REMARK VINA RESULT:      -7.2      0.564      1.678
REMARK  Name = 
REMARK  6 active torsions:
REMARK  status: ('A' for Active; 'I' for Inactive)
REMARK    1  A    between atoms: C_2  and  O_3
REMARK    2  A    between atoms: C_2  and  C_4
REMARK    3  A    between atoms: C_7  and  N_8
REMARK    4  A    between atoms: C_9  and  C_21
REMARK    5  A    between atoms: N_10  and  S_11
REMARK    6  A    between atoms: S_11  and  C_14
REMARK                            x       y       z     vdW  Elec       q    Type
REMARK                         _______ _______ _______ _____ _____    ______ ____
ROOT
ATOM      1  N   UNL     1       4.880   3.406  16.064  0.00  0.00    +0.000 N 
ATOM      2  C   UNL     1       5.933   4.241  15.742  0.00  0.00    +0.000 C 
ATOM      3  N   UNL     1       6.685   5.051  16.395  0.00  0.00    +0.000 NA
ATOM      4  H   UNL     1       4.808   2.580  15.475  0.00  0.00    +0.000 HD
ENDROOT
BRANCH   1   8
ATOM      5  C   UNL     1       2.089   2.997  19.161  0.00  0.00    +0.000 A 
ATOM      6  C   UNL     1       3.369   2.468  19.341  0.00  0.00    +0.000 A 
ATOM      7  C   UNL     1       4.330   2.623  18.332  0.00  0.00    +0.000 A 
ATOM      8  C   UNL     1       4.025   3.319  17.163  0.00  0.00    +0.000 A 
ATOM      9  C   UNL     1       2.775   3.954  17.066  0.00  0.00    +0.000 A 
ATOM     10  C   UNL     1       1.804   3.785  18.048  0.00  0.00    +0.000 A 
BRANCH   5  12
ATOM     11  O   UNL     1       1.240   2.517  21.326  0.00  0.00    +0.000 OA
ATOM     12  C   UNL     1       1.028   2.685  20.140  0.00  0.00    +0.000 C 
BRANCH  12  13
ATOM     13  O   UNL     1      -0.179   2.540  19.554  0.00  0.00    +0.000 OA
ATOM     14  H   UNL     1      -0.893   3.091  19.934  0.00  0.00    +0.000 HD
ENDBRANCH  12  13
ENDBRANCH   5  12
ENDBRANCH   1   8
BRANCH   2  15
ATOM     15  C   UNL     1       6.332   4.138  14.263  0.00  0.00    +0.000 A 
ATOM     16  C   UNL     1       7.378   4.929  13.756  0.00  0.00    +0.000 A 
ATOM     17  C   UNL     1       7.712   4.880  12.400  0.00  0.00    +0.000 A 
ATOM     18  C   UNL     1       7.024   4.024  11.543  0.00  0.00    +0.000 A 
ATOM     19  C   UNL     1       6.016   3.201  12.043  0.00  0.00    +0.000 A 
ATOM     20  C   UNL     1       5.671   3.253  13.399  0.00  0.00    +0.000 A 
ENDBRANCH   2  15
BRANCH   3  21
ATOM     21  S   UNL     1       6.697   5.612  17.889  0.00  0.00    +0.000 S 
ATOM     22  O   UNL     1       6.747   4.456  18.772  0.00  0.00    +0.000 OA
ATOM     23  O   UNL     1       7.746   6.611  18.005  0.00  0.00    +0.000 OA
BRANCH  21  24
ATOM     24  C   UNL     1       5.162   6.402  18.338  0.00  0.00    +0.000 A 
ATOM     25  C   UNL     1       4.507   7.264  17.452  0.00  0.00    +0.000 A 
ATOM     26  C   UNL     1       3.214   7.711  17.761  0.00  0.00    +0.000 A 
ATOM     27  C   UNL     1       2.587   7.295  18.938  0.00  0.00    +0.000 A 
ATOM     28 CL   UNL     1       0.995   7.833  19.304  0.00  0.00    +0.000 Cl
ATOM     29  C   UNL     1       3.235   6.431  19.818  0.00  0.00    +0.000 A 
ATOM     30  C   UNL     1       4.521   5.982  19.515  0.00  0.00    +0.000 A 
ENDBRANCH  21  24
ENDBRANCH   3  21
TORSDOF 6
ENDMDL
MODEL 5
REMARK VINA RESULT:      -7.2      2.809      3.339
REMARK  Name = 
REMARK  6 active torsions:
REMARK  status: ('A' for Active; 'I' for Inactive)
REMARK    1  A    between atoms: C_2  and  O_3
REMARK    2  A    between atoms: C_2  and  C_4
REMARK    3  A    between atoms: C_7  and  N_8
REMARK    4  A    between atoms: C_9  and  C_21
REMARK    5  A    between atoms: N_10  and  S_11
REMARK    6  A    between atoms: S_11  and  C_14
REMARK                            x       y       z     vdW  Elec       q    Type
REMARK                         _______ _______ _______ _____ _____    ______ ____
ROOT
ATOM      1  N   UNL     1       5.095   3.636  16.421  0.00  0.00    +0.000 N 
ATOM      2  C   UNL     1       6.101   4.483  15.997  0.00  0.00    +0.000 C 
ATOM      3  N   UNL     1       6.879   5.330  16.569  0.00  0.00    +0.000 NA
ATOM      4  H   UNL     1       5.000   2.790  15.864  0.00  0.00    +0.000 HD
ENDROOT
BRANCH   1   8
ATOM      5  C   UNL     1       2.573   3.220  19.740  0.00  0.00    +0.000 A 
ATOM      6  C   UNL     1       3.925   2.907  19.886  0.00  0.00    +0.000 A 
ATOM      7  C   UNL     1       4.795   3.071  18.798  0.00  0.00    +0.000 A 
ATOM      8  C   UNL     1       4.325   3.565  17.583  0.00  0.00    +0.000 A 
ATOM      9  C   UNL     1       2.990   3.997  17.504  0.00  0.00    +0.000 A 
ATOM     10  C   UNL     1       2.111   3.814  18.568  0.00  0.00    +0.000 A 
BRANCH   5  12
ATOM     11  O   UNL     1       1.971   2.414  21.891  0.00  0.00    +0.000 OA
ATOM     12  C   UNL     1       1.626   2.884  20.824  0.00  0.00    +0.000 C 
BRANCH  12  13
ATOM     13  O   UNL     1       0.343   3.093  20.461  0.00  0.00    +0.000 OA
ATOM     14  H   UNL     1      -0.186   2.281  20.324  0.00  0.00    +0.000 HD
ENDBRANCH  12  13
ENDBRANCH   5  12
ENDBRANCH   1   8
BRANCH   2  15
ATOM     15  C   UNL     1       6.393   4.342  14.497  0.00  0.00    +0.000 A 
ATOM     16  C   UNL     1       5.607   3.491  13.700  0.00  0.00    +0.000 A 
ATOM     17  C   UNL     1       5.898   3.317  12.345  0.00  0.00    +0.000 A 
ATOM     18  C   UNL     1       6.960   4.008  11.766  0.00  0.00    +0.000 A 
ATOM     19  C   UNL     1       7.717   4.890  12.535  0.00  0.00    +0.000 A 
ATOM     20  C   UNL     1       7.435   5.061  13.895  0.00  0.00    +0.000 A 
ENDBRANCH   2  15
BRANCH   3  21
ATOM     21  S   UNL     1       6.986   5.939  18.040  0.00  0.00    +0.000 S 
ATOM     22  O   UNL     1       5.626   6.203  18.486  0.00  0.00    +0.000 OA
ATOM     23  O   UNL     1       7.816   5.062  18.849  0.00  0.00    +0.000 OA
BRANCH  21  24
ATOM     24  C   UNL     1       7.744   7.554  18.061  0.00  0.00    +0.000 A 
ATOM     25  C   UNL     1       7.315   8.564  17.194  0.00  0.00    +0.000 A 
ATOM     26  C   UNL     1       7.799   9.869  17.370  0.00  0.00    +0.000 A 
ATOM     27  C   UNL     1       8.693  10.156  18.405  0.00  0.00    +0.000 A 
ATOM     28 CL   UNL     1       9.270  11.761  18.626  0.00  0.00    +0.000 Cl
ATOM     29  C   UNL     1       9.116   9.152  19.273  0.00  0.00    +0.000 A 
ATOM     30  C   UNL     1       8.638   7.852  19.103  0.00  0.00    +0.000 A 
ENDBRANCH  21  24
ENDBRANCH   3  21
TORSDOF 6
ENDMDL
MODEL 6
REMARK VINA RESULT:      -6.9      2.646      3.050
REMARK  Name = 
REMARK  6 active torsions:
REMARK  status: ('A' for Active; 'I' for Inactive)
REMARK    1  A    between atoms: C_2  and  O_3
REMARK    2  A    between atoms: C_2  and  C_4
REMARK    3  A    between atoms: C_7  and  N_8
REMARK    4  A    between atoms: C_9  and  C_21
REMARK    5  A    between atoms: N_10  and  S_11
REMARK    6  A    between atoms: S_11  and  C_14
REMARK                            x       y       z     vdW  Elec       q    Type
REMARK                         _______ _______ _______ _____ _____    ______ ____
ROOT
ATOM      1  N   UNL     1       4.611   4.110  15.874  0.00  0.00    +0.000 N 
ATOM      2  C   UNL     1       5.943   4.226  15.529  0.00  0.00    +0.000 C 
ATOM      3  N   UNL     1       7.040   4.396  16.176  0.00  0.00    +0.000 NA
ATOM      4  H   UNL     1       4.064   3.536  15.237  0.00  0.00    +0.000 HD
ENDROOT
BRANCH   1   8
ATOM      5  C   UNL     1       2.650   4.818  19.508  0.00  0.00    +0.000 A 
ATOM      6  C   UNL     1       3.120   5.911  18.778  0.00  0.00    +0.000 A 
ATOM      7  C   UNL     1       3.749   5.701  17.543  0.00  0.00    +0.000 A 
ATOM      8  C   UNL     1       3.887   4.413  17.028  0.00  0.00    +0.000 A 
ATOM      9  C   UNL     1       3.289   3.345  17.719  0.00  0.00    +0.000 A 
ATOM     10  C   UNL     1       2.686   3.538  18.958  0.00  0.00    +0.000 A 
BRANCH   5  12
ATOM     11  O   UNL     1       1.964   4.110  21.669  0.00  0.00    +0.000 OA
ATOM     12  C   UNL     1       2.149   5.020  20.883  0.00  0.00    +0.000 C 
BRANCH  12  13
ATOM     13  O   UNL     1       1.855   6.314  21.132  0.00  0.00    +0.000 OA
ATOM     14  H   UNL     1       1.003   6.464  21.590  0.00  0.00    +0.000 HD
ENDBRANCH  12  13
ENDBRANCH   5  12
ENDBRANCH   1   8
BRANCH   2  15
ATOM     15  C   UNL     1       6.174   4.066  14.020  0.00  0.00    +0.000 A 
ATOM     16  C   UNL     1       5.281   3.307  13.244  0.00  0.00    +0.000 A 
ATOM     17  C   UNL     1       5.512   3.112  11.880  0.00  0.00    +0.000 A 
ATOM     18  C   UNL     1       6.622   3.693  11.272  0.00  0.00    +0.000 A 
ATOM     19  C   UNL     1       7.490   4.487  12.021  0.00  0.00    +0.000 A 
ATOM     20  C   UNL     1       7.268   4.677  13.389  0.00  0.00    +0.000 A 
ENDBRANCH   2  15
BRANCH   3  21
ATOM     21  S   UNL     1       7.408   4.696  17.699  0.00  0.00    +0.000 S 
ATOM     22  O   UNL     1       6.236   4.351  18.490  0.00  0.00    +0.000 OA
ATOM     23  O   UNL     1       8.666   4.042  18.014  0.00  0.00    +0.000 OA
BRANCH  21  24
ATOM     24  C   UNL     1       7.621   6.438  18.022  0.00  0.00    +0.000 A 
ATOM     25  C   UNL     1       8.494   6.886  19.019  0.00  0.00    +0.000 A 
ATOM     26  C   UNL     1       8.779   8.256  19.114  0.00  0.00    +0.000 A 
ATOM     27  C   UNL     1       8.203   9.161  18.218  0.00  0.00    +0.000 A 
ATOM     28 CL   UNL     1       8.570  10.837  18.329  0.00  0.00    +0.000 Cl
ATOM     29  C   UNL     1       7.339   8.715  17.221  0.00  0.00    +0.000 A 
ATOM     30  C   UNL     1       7.051   7.353  17.121  0.00  0.00    +0.000 A 
ENDBRANCH  21  24
ENDBRANCH   3  21
TORSDOF 6
ENDMDL
MODEL 7
REMARK VINA RESULT:      -6.8      2.703      3.285
REMARK  Name = 
REMARK  6 active torsions:
REMARK  status: ('A' for Active; 'I' for Inactive)
REMARK    1  A    between atoms: C_2  and  O_3
REMARK    2  A    between atoms: C_2  and  C_4
REMARK    3  A    between atoms: C_7  and  N_8
REMARK    4  A    between atoms: C_9  and  C_21
REMARK    5  A    between atoms: N_10  and  S_11
REMARK    6  A    between atoms: S_11  and  C_14
REMARK                            x       y       z     vdW  Elec       q    Type
REMARK                         _______ _______ _______ _____ _____    ______ ____
ROOT
ATOM      1  N   UNL     1       5.005   3.577  16.274  0.00  0.00    +0.000 N 
ATOM      2  C   UNL     1       6.103   4.354  15.959  0.00  0.00    +0.000 C 
ATOM      3  N   UNL     1       6.925   5.081  16.625  0.00  0.00    +0.000 NA
ATOM      4  H   UNL     1       4.861   2.786  15.651  0.00  0.00    +0.000 HD
ENDROOT
BRANCH   1   8
ATOM      5  C   UNL     1       2.269   3.227  19.428  0.00  0.00    +0.000 A 
ATOM      6  C   UNL     1       3.486   2.549  19.521  0.00  0.00    +0.000 A 
ATOM      7  C   UNL     1       4.431   2.679  18.493  0.00  0.00    +0.000 A 
ATOM      8  C   UNL     1       4.175   3.496  17.393  0.00  0.00    +0.000 A 
ATOM      9  C   UNL     1       3.001   4.269  17.389  0.00  0.00    +0.000 A 
ATOM     10  C   UNL     1       2.044   4.128  18.390  0.00  0.00    +0.000 A 
BRANCH   5  12
ATOM     11  O   UNL     1       1.410   2.875  21.614  0.00  0.00    +0.000 OA
ATOM     12  C   UNL     1       1.206   2.956  20.417  0.00  0.00    +0.000 C 
BRANCH  12  13
ATOM     13  O   UNL     1       0.010   2.739  19.832  0.00  0.00    +0.000 OA
ATOM     14  H   UNL     1       0.012   2.792  18.854  0.00  0.00    +0.000 HD
ENDBRANCH  12  13
ENDBRANCH   5  12
ENDBRANCH   1   8
BRANCH   2  15
ATOM     15  C   UNL     1       6.454   4.294  14.466  0.00  0.00    +0.000 A 
ATOM     16  C   UNL     1       7.464   5.121  13.943  0.00  0.00    +0.000 A 
ATOM     17  C   UNL     1       7.754   5.110  12.576  0.00  0.00    +0.000 A 
ATOM     18  C   UNL     1       7.058   4.257  11.723  0.00  0.00    +0.000 A 
ATOM     19  C   UNL     1       6.088   3.399  12.237  0.00  0.00    +0.000 A 
ATOM     20  C   UNL     1       5.787   3.412  13.603  0.00  0.00    +0.000 A 
ENDBRANCH   2  15
BRANCH   3  21
ATOM     21  S   UNL     1       7.014   5.570  18.141  0.00  0.00    +0.000 S 
ATOM     22  O   UNL     1       5.651   5.609  18.651  0.00  0.00    +0.000 OA
ATOM     23  O   UNL     1       7.986   4.748  18.841  0.00  0.00    +0.000 OA
BRANCH  21  24
ATOM     24  C   UNL     1       7.553   7.265  18.285  0.00  0.00    +0.000 A 
ATOM     25  C   UNL     1       8.574   7.626  19.171  0.00  0.00    +0.000 A 
ATOM     26  C   UNL     1       9.099   8.925  19.117  0.00  0.00    +0.000 A 
ATOM     27  C   UNL     1       8.613   9.845  18.185  0.00  0.00    +0.000 A 
ATOM     28 CL   UNL     1       9.274  11.431  18.112  0.00  0.00    +0.000 Cl
ATOM     29  C   UNL     1       7.602   9.485  17.297  0.00  0.00    +0.000 A 
ATOM     30  C   UNL     1       7.075   8.193  17.345  0.00  0.00    +0.000 A 
ENDBRANCH  21  24
ENDBRANCH   3  21
TORSDOF 6
ENDMDL
MODEL 8
REMARK VINA RESULT:      -6.8      2.651      2.984
REMARK  Name = 
REMARK  6 active torsions:
REMARK  status: ('A' for Active; 'I' for Inactive)
REMARK    1  A    between atoms: C_2  and  O_3
REMARK    2  A    between atoms: C_2  and  C_4
REMARK    3  A    between atoms: C_7  and  N_8
REMARK    4  A    between atoms: C_9  and  C_21
REMARK    5  A    between atoms: N_10  and  S_11
REMARK    6  A    between atoms: S_11  and  C_14
REMARK                            x       y       z     vdW  Elec       q    Type
REMARK                         _______ _______ _______ _____ _____    ______ ____
ROOT
ATOM      1  N   UNL     1       4.908   3.349  16.205  0.00  0.00    +0.000 N 
ATOM      2  C   UNL     1       5.927   4.231  15.898  0.00  0.00    +0.000 C 
ATOM      3  N   UNL     1       6.669   5.035  16.571  0.00  0.00    +0.000 NA
ATOM      4  H   UNL     1       4.848   2.549  15.581  0.00  0.00    +0.000 HD
ENDROOT
BRANCH   1   8
ATOM      5  C   UNL     1       2.667   3.016  19.729  0.00  0.00    +0.000 A 
ATOM      6  C   UNL     1       2.079   3.623  18.618  0.00  0.00    +0.000 A 
ATOM      7  C   UNL     1       2.797   3.715  17.417  0.00  0.00    +0.000 A 
ATOM      8  C   UNL     1       4.083   3.186  17.318  0.00  0.00    +0.000 A 
ATOM      9  C   UNL     1       4.599   2.464  18.409  0.00  0.00    +0.000 A 
ATOM     10  C   UNL     1       3.906   2.389  19.614  0.00  0.00    +0.000 A 
BRANCH   5  12
ATOM     11  O   UNL     1       2.541   2.840  22.094  0.00  0.00    +0.000 OA
ATOM     12  C   UNL     1       1.984   3.073  21.037  0.00  0.00    +0.000 C 
BRANCH  12  13
ATOM     13  O   UNL     1       0.667   3.342  20.913  0.00  0.00    +0.000 OA
ATOM     14  H   UNL     1       0.069   2.630  21.217  0.00  0.00    +0.000 HD
ENDBRANCH  12  13
ENDBRANCH   5  12
ENDBRANCH   1   8
BRANCH   2  15
ATOM     15  C   UNL     1       6.293   4.208  14.408  0.00  0.00    +0.000 A 
ATOM     16  C   UNL     1       5.573   3.396  13.515  0.00  0.00    +0.000 A 
ATOM     17  C   UNL     1       5.932   3.329  12.166  0.00  0.00    +0.000 A 
ATOM     18  C   UNL     1       6.997   4.090  11.691  0.00  0.00    +0.000 A 
ATOM     19  C   UNL     1       7.690   4.935  12.557  0.00  0.00    +0.000 A 
ATOM     20  C   UNL     1       7.339   4.999  13.911  0.00  0.00    +0.000 A 
ENDBRANCH   2  15
BRANCH   3  21
ATOM     21  S   UNL     1       6.698   5.528  18.088  0.00  0.00    +0.000 S 
ATOM     22  O   UNL     1       5.313   5.682  18.508  0.00  0.00    +0.000 OA
ATOM     23  O   UNL     1       7.553   4.637  18.853  0.00  0.00    +0.000 OA
BRANCH  21  24
ATOM     24  C   UNL     1       7.362   7.176  18.261  0.00  0.00    +0.000 A 
ATOM     25  C   UNL     1       8.446   7.433  19.107  0.00  0.00    +0.000 A 
ATOM     26  C   UNL     1       9.059   8.694  19.071  0.00  0.00    +0.000 A 
ATOM     27  C   UNL     1       8.596   9.678  18.194  0.00  0.00    +0.000 A 
ATOM     28 CL   UNL     1       9.362  11.217  18.141  0.00  0.00    +0.000 Cl
ATOM     29  C   UNL     1       7.521   9.421  17.346  0.00  0.00    +0.000 A 
ATOM     30  C   UNL     1       6.907   8.169  17.378  0.00  0.00    +0.000 A 
ENDBRANCH  21  24
ENDBRANCH   3  21
TORSDOF 6
ENDMDL
MODEL 9
REMARK VINA RESULT:      -6.7      2.797      3.334
REMARK  Name = 
REMARK  6 active torsions:
REMARK  status: ('A' for Active; 'I' for Inactive)
REMARK    1  A    between atoms: C_2  and  O_3
REMARK    2  A    between atoms: C_2  and  C_4
REMARK    3  A    between atoms: C_7  and  N_8
REMARK    4  A    between atoms: C_9  and  C_21
REMARK    5  A    between atoms: N_10  and  S_11
REMARK    6  A    between atoms: S_11  and  C_14
REMARK                            x       y       z     vdW  Elec       q    Type
REMARK                         _______ _______ _______ _____ _____    ______ ____
ROOT
ATOM      1  N   UNL     1       4.943   3.624  16.228  0.00  0.00    +0.000 N 
ATOM      2  C   UNL     1       6.007   4.424  15.857  0.00  0.00    +0.000 C 
ATOM      3  N   UNL     1       6.800   5.226  16.471  0.00  0.00    +0.000 NA
ATOM      4  H   UNL     1       4.831   2.789  15.658  0.00  0.00    +0.000 HD
ENDROOT
BRANCH   1   8
ATOM      5  C   UNL     1       2.725   3.643  19.782  0.00  0.00    +0.000 A 
ATOM      6  C   UNL     1       2.172   4.238  18.646  0.00  0.00    +0.000 A 
ATOM      7  C   UNL     1       2.882   4.214  17.437  0.00  0.00    +0.000 A 
ATOM      8  C   UNL     1       4.121   3.581  17.355  0.00  0.00    +0.000 A 
ATOM      9  C   UNL     1       4.592   2.877  18.476  0.00  0.00    +0.000 A 
ATOM     10  C   UNL     1       3.910   2.916  19.689  0.00  0.00    +0.000 A 
BRANCH   5  12
ATOM     11  O   UNL     1       1.384   2.959  21.619  0.00  0.00    +0.000 OA
ATOM     12  C   UNL     1       2.064   3.819  21.091  0.00  0.00    +0.000 C 
BRANCH  12  13
ATOM     13  O   UNL     1       2.246   5.060  21.590  0.00  0.00    +0.000 OA
ATOM     14  H   UNL     1       2.940   5.132  22.276  0.00  0.00    +0.000 HD
ENDBRANCH  12  13
ENDBRANCH   5  12
ENDBRANCH   1   8
BRANCH   2  15
ATOM     15  C   UNL     1       6.357   4.282  14.370  0.00  0.00    +0.000 A 
ATOM     16  C   UNL     1       7.415   5.025  13.818  0.00  0.00    +0.000 A 
ATOM     17  C   UNL     1       7.707   4.941  12.454  0.00  0.00    +0.000 A 
ATOM     18  C   UNL     1       6.962   4.098  11.633  0.00  0.00    +0.000 A 
ATOM     19  C   UNL     1       5.940   3.322  12.177  0.00  0.00    +0.000 A 
ATOM     20  C   UNL     1       5.638   3.409  13.541  0.00  0.00    +0.000 A 
ENDBRANCH   2  15
BRANCH   3  21
ATOM     21  S   UNL     1       6.873   5.815  17.952  0.00  0.00    +0.000 S 
ATOM     22  O   UNL     1       5.505   6.107  18.356  0.00  0.00    +0.000 OA
ATOM     23  O   UNL     1       7.654   4.910  18.778  0.00  0.00    +0.000 OA
BRANCH  21  24
ATOM     24  C   UNL     1       7.668   7.412  18.018  0.00  0.00    +0.000 A 
ATOM     25  C   UNL     1       7.252   8.460  17.190  0.00  0.00    +0.000 A 
ATOM     26  C   UNL     1       7.767   9.747  17.404  0.00  0.00    +0.000 A 
ATOM     27  C   UNL     1       8.680   9.978  18.436  0.00  0.00    +0.000 A 
ATOM     28 CL   UNL     1       9.295  11.562  18.704  0.00  0.00    +0.000 Cl
ATOM     29  C   UNL     1       9.089   8.937  19.266  0.00  0.00    +0.000 A 
ATOM     30  C   UNL     1       8.580   7.655  19.058  0.00  0.00    +0.000 A 
ENDBRANCH  21  24
ENDBRANCH   3  21
TORSDOF 6
ENDMDL
