MODEL 1
REMARK VINA RESULT:      -7.0      0.000      0.000
REMARK  Name = 
REMARK  22 active torsions:
REMARK  status: ('A' for Active; 'I' for Inactive)
REMARK    1  A    between atoms: C_1  and  C_2
REMARK    2  A    between atoms: C_2  and  C_3
REMARK    3  A    between atoms: C_4  and  C_5
REMARK    4  A    between atoms: C_6  and  C_7
REMARK    5  A    between atoms: C_8  and  C_9
REMARK    6  A    between atoms: C_10  and  C_11
REMARK    7  A    between atoms: C_10  and  C_12
REMARK    8  A    between atoms: N_14  and  CA_15
REMARK    9  A    between atoms: CA_15  and  CB_16
REMARK   10  A    between atoms: CA_15  and  C_17
REMARK   11  A    between atoms: C_17  and  O_18
REMARK   12  A    between atoms: C_19  and  C_20
REMARK   13  A    between atoms: C_20  and  C_21
REMARK   14  A    between atoms: C_20  and  C_22
REMARK   15  A    between atoms: C_22  and  O_23
REMARK   16  A    between atoms: C_22  and  C_24
REMARK   17  A    between atoms: C_24  and  C_25
REMARK   18  A    between atoms: C_26  and  C_27
REMARK   19  A    between atoms: C_27  and  C_28
REMARK   20  A    between atoms: C_27  and  C_29
REMARK   21  A    between atoms: C_29  and  C_30
REMARK   22  A    between atoms: C_30  and  C_31
REMARK                            x       y       z     vdW  Elec       q    Type
REMARK                         _______ _______ _______ _____ _____    ______ ____
ROOT
ATOM      1  C   UNK A   0      -0.329   9.784  18.443  0.00  0.00    +0.000 C 
ATOM      2  C   UNK A   0       1.083  10.263  18.612  0.00  0.00    +0.000 C 
ATOM      3  C   UNK A   0       2.151   9.445  18.647  0.00  0.00    +0.000 C 
ENDROOT
BRANCH   3   4
ATOM      4  C   UNK A   0       2.124   7.932  18.575  0.00  0.00    +0.000 C 
ATOM      5  C   UNK A   0       3.292   7.488  17.688  0.00  0.00    +0.000 C 
BRANCH   4   6
ATOM      6  C   UNK A   0       2.159   7.220  19.960  0.00  0.00    +0.000 C 
BRANCH   6   7
ATOM      7  C   UNK A   0       2.254   5.699  19.897  0.00  0.00    +0.000 C 
ATOM      8  C   UNK A   0       2.670   4.940  21.130  0.00  0.00    +0.000 C 
ATOM      9  C   UNK A   0       1.903   5.050  18.765  0.00  0.00    +0.000 C 
BRANCH   9  10
ATOM     10  C   UNK A   0       1.867   3.550  18.568  0.00  0.00    +0.000 C 
ATOM     11  C   UNK A   0       0.410   3.085  18.554  0.00  0.00    +0.000 C 
BRANCH  10  12
ATOM     12  C   UNK A   0       2.594   3.126  17.281  0.00  0.00    +0.000 C 
BRANCH  12  13
ATOM     13  C   UNK A   0       4.065   2.777  17.533  0.00  0.00    +0.000 C 
BRANCH  13  14
ATOM     14  C   UNK A   0       4.959   3.972  17.332  0.00  0.00    +0.000 A 
ATOM     15  C   UNK A   0       5.136   4.514  16.050  0.00  0.00    +0.000 A 
ATOM     16  C   UNK A   0       5.972   5.613  15.859  0.00  0.00    +0.000 A 
ATOM     17  C   UNK A   0       6.641   6.175  16.943  0.00  0.00    +0.000 A 
ATOM     18  C   UNK A   0       6.479   5.638  18.220  0.00  0.00    +0.000 A 
ATOM     19  C   UNK A   0       5.643   4.538  18.413  0.00  0.00    +0.000 A 
ENDBRANCH  13  14
ENDBRANCH  12  13
ENDBRANCH  10  12
ENDBRANCH   9  10
ENDBRANCH   6   7
BRANCH   6  20
ATOM     20  O   UNK A   0       1.079   7.618  20.800  0.00  0.00    +0.000 OA
ATOM     21  H   UNK A   0       0.534   8.253  20.312  0.00  0.00    +0.000 HD
ENDBRANCH   6  20
ENDBRANCH   4   6
ENDBRANCH   3   4
BRANCH   2  22
ATOM     22  C   UNK A   0       1.269  11.702  18.709  0.00  0.00    +0.000 C 
ATOM     23  C   UNK A   0       0.243  12.561  18.621  0.00  0.00    +0.000 C 
BRANCH  23  24
ATOM     24  C   UNK A   0       0.384  13.993  18.695  0.00  0.00    +0.000 C 
ATOM     25  C   UNK A   0      -0.394  14.798  19.438  0.00  0.00    +0.000 C 
BRANCH  25  26
ATOM     26  C   UNK A   0      -1.553  14.375  20.196  0.00  0.00    +0.000 C 
ATOM     27  C   UNK A   0      -1.559  14.330  21.537  0.00  0.00    +0.000 C 
BRANCH  27  28
ATOM     28  C   UNK A   0      -2.730  13.947  22.302  0.00  0.00    +0.000 C 
ATOM     29  C   UNK A   0      -2.918  12.784  22.959  0.00  0.00    +0.000 C 
ATOM     30  C   UNK A   0      -1.938  11.650  23.019  0.00  0.00    +0.000 C 
BRANCH  29  31
ATOM     31  C   UNK A   0      -4.239  12.653  23.675  0.00  0.00    +0.000 C 
ATOM     32  O   UNK A   0      -4.407  11.843  24.580  0.00  0.00    +0.000 OA
ATOM     33  N   ALA A   1      -5.232  13.514  23.261  0.00  0.00    +0.000 N 
ATOM     34  H   ALA A   1      -5.062  14.169  22.517  0.00  0.00    +0.000 HD
BRANCH  33  35
ATOM     35  CA  ALA A   1      -6.581  13.523  23.837  0.00  0.00    +0.000 C 
ATOM     36  CB  ALA A   1      -7.205  14.915  23.835  0.00  0.00    +0.000 C 
BRANCH  35  37
ATOM     37  C   ALA A   1      -7.505  12.483  23.187  0.00  0.00    +0.000 C 
BRANCH  37  38
ATOM     38  O   ALA A   1      -7.440  11.256  23.918  0.00  0.00    +0.000 OA
ATOM     39  H   ALA A   1      -8.321  10.851  23.825  0.00  0.00    +0.000 HD
ENDBRANCH  37  38
ENDBRANCH  35  37
ENDBRANCH  33  35
ENDBRANCH  29  31
ENDBRANCH  27  28
ENDBRANCH  25  26
ENDBRANCH  23  24
ENDBRANCH   2  22
TORSDOF 16
ENDMDL
MODEL 2
REMARK VINA RESULT:      -6.7      4.771     12.102
REMARK  Name = 
REMARK  22 active torsions:
REMARK  status: ('A' for Active; 'I' for Inactive)
REMARK    1  A    between atoms: C_1  and  C_2
REMARK    2  A    between atoms: C_2  and  C_3
REMARK    3  A    between atoms: C_4  and  C_5
REMARK    4  A    between atoms: C_6  and  C_7
REMARK    5  A    between atoms: C_8  and  C_9
REMARK    6  A    between atoms: C_10  and  C_11
REMARK    7  A    between atoms: C_10  and  C_12
REMARK    8  A    between atoms: N_14  and  CA_15
REMARK    9  A    between atoms: CA_15  and  CB_16
REMARK   10  A    between atoms: CA_15  and  C_17
REMARK   11  A    between atoms: C_17  and  O_18
REMARK   12  A    between atoms: C_19  and  C_20
REMARK   13  A    between atoms: C_20  and  C_21
REMARK   14  A    between atoms: C_20  and  C_22
REMARK   15  A    between atoms: C_22  and  O_23
REMARK   16  A    between atoms: C_22  and  C_24
REMARK   17  A    between atoms: C_24  and  C_25
REMARK   18  A    between atoms: C_26  and  C_27
REMARK   19  A    between atoms: C_27  and  C_28
REMARK   20  A    between atoms: C_27  and  C_29
REMARK   21  A    between atoms: C_29  and  C_30
REMARK   22  A    between atoms: C_30  and  C_31
REMARK                            x       y       z     vdW  Elec       q    Type
REMARK                         _______ _______ _______ _____ _____    ______ ____
ROOT
ATOM      1  C   UNK A   0       2.309   8.525  18.242  0.00  0.00    +0.000 C 
ATOM      2  C   UNK A   0       1.504   8.548  19.509  0.00  0.00    +0.000 C 
ATOM      3  C   UNK A   0       0.727   9.581  19.883  0.00  0.00    +0.000 C 
ENDROOT
BRANCH   3   4
ATOM      4  C   UNK A   0       0.564  10.894  19.143  0.00  0.00    +0.000 C 
ATOM      5  C   UNK A   0      -0.799  10.866  18.446  0.00  0.00    +0.000 C 
BRANCH   4   6
ATOM      6  C   UNK A   0       0.720  12.160  20.036  0.00  0.00    +0.000 C 
BRANCH   6   7
ATOM      7  C   UNK A   0       1.237  13.398  19.309  0.00  0.00    +0.000 C 
ATOM      8  C   UNK A   0       2.457  13.275  18.434  0.00  0.00    +0.000 C 
ATOM      9  C   UNK A   0       0.563  14.565  19.406  0.00  0.00    +0.000 C 
BRANCH   9  10
ATOM     10  C   UNK A   0       0.899  15.854  18.689  0.00  0.00    +0.000 C 
ATOM     11  C   UNK A   0      -0.398  16.598  18.369  0.00  0.00    +0.000 C 
BRANCH  10  12
ATOM     12  C   UNK A   0       1.850  16.735  19.517  0.00  0.00    +0.000 C 
BRANCH  12  13
ATOM     13  C   UNK A   0       3.173  17.002  18.790  0.00  0.00    +0.000 C 
BRANCH  13  14
ATOM     14  C   UNK A   0       4.318  16.266  19.436  0.00  0.00    +0.000 A 
ATOM     15  C   UNK A   0       5.470  15.962  18.696  0.00  0.00    +0.000 A 
ATOM     16  C   UNK A   0       6.526  15.271  19.289  0.00  0.00    +0.000 A 
ATOM     17  C   UNK A   0       6.438  14.874  20.621  0.00  0.00    +0.000 A 
ATOM     18  C   UNK A   0       5.292  15.165  21.363  0.00  0.00    +0.000 A 
ATOM     19  C   UNK A   0       4.234  15.856  20.771  0.00  0.00    +0.000 A 
ENDBRANCH  13  14
ENDBRANCH  12  13
ENDBRANCH  10  12
ENDBRANCH   9  10
ENDBRANCH   6   7
BRANCH   6  20
ATOM     20  O   UNK A   0       1.498  11.906  21.203  0.00  0.00    +0.000 OA
ATOM     21  H   UNK A   0       1.094  11.167  21.682  0.00  0.00    +0.000 HD
ENDBRANCH   6  20
ENDBRANCH   4   6
ENDBRANCH   3   4
BRANCH   2  22
ATOM     22  C   UNK A   0       1.571   7.355  20.338  0.00  0.00    +0.000 C 
ATOM     23  C   UNK A   0       2.039   6.188  19.870  0.00  0.00    +0.000 C 
BRANCH  23  24
ATOM     24  C   UNK A   0       2.107   4.978  20.650  0.00  0.00    +0.000 C 
ATOM     25  C   UNK A   0       3.050   4.031  20.508  0.00  0.00    +0.000 C 
BRANCH  25  26
ATOM     26  C   UNK A   0       4.079   4.022  19.490  0.00  0.00    +0.000 C 
ATOM     27  C   UNK A   0       3.816   3.751  18.202  0.00  0.00    +0.000 C 
BRANCH  27  28
ATOM     28  C   UNK A   0       4.837   3.782  17.172  0.00  0.00    +0.000 C 
ATOM     29  C   UNK A   0       5.307   4.875  16.537  0.00  0.00    +0.000 C 
ATOM     30  C   UNK A   0       4.853   6.284  16.777  0.00  0.00    +0.000 C 
BRANCH  29  31
ATOM     31  C   UNK A   0       6.375   4.611  15.504  0.00  0.00    +0.000 C 
ATOM     32  O   UNK A   0       7.568   4.656  15.782  0.00  0.00    +0.000 OA
ATOM     33  N   ALA A   1       5.923   4.299  14.241  0.00  0.00    +0.000 N 
ATOM     34  H   ALA A   1       4.936   4.269  14.045  0.00  0.00    +0.000 HD
BRANCH  33  35
ATOM     35  CA  ALA A   1       6.816   4.023  13.112  0.00  0.00    +0.000 C 
ATOM     36  CB  ALA A   1       6.166   3.128  12.061  0.00  0.00    +0.000 C 
BRANCH  35  37
ATOM     37  C   ALA A   1       7.394   5.303  12.492  0.00  0.00    +0.000 C 
BRANCH  37  38
ATOM     38  O   ALA A   1       8.527   5.737  13.248  0.00  0.00    +0.000 OA
ATOM     39  H   ALA A   1       9.147   6.110  12.596  0.00  0.00    +0.000 HD
ENDBRANCH  37  38
ENDBRANCH  35  37
ENDBRANCH  33  35
ENDBRANCH  29  31
ENDBRANCH  27  28
ENDBRANCH  25  26
ENDBRANCH  23  24
ENDBRANCH   2  22
TORSDOF 16
ENDMDL
MODEL 3
REMARK VINA RESULT:      -6.5      5.332     11.506
REMARK  Name = 
REMARK  22 active torsions:
REMARK  status: ('A' for Active; 'I' for Inactive)
REMARK    1  A    between atoms: C_1  and  C_2
REMARK    2  A    between atoms: C_2  and  C_3
REMARK    3  A    between atoms: C_4  and  C_5
REMARK    4  A    between atoms: C_6  and  C_7
REMARK    5  A    between atoms: C_8  and  C_9
REMARK    6  A    between atoms: C_10  and  C_11
REMARK    7  A    between atoms: C_10  and  C_12
REMARK    8  A    between atoms: N_14  and  CA_15
REMARK    9  A    between atoms: CA_15  and  CB_16
REMARK   10  A    between atoms: CA_15  and  C_17
REMARK   11  A    between atoms: C_17  and  O_18
REMARK   12  A    between atoms: C_19  and  C_20
REMARK   13  A    between atoms: C_20  and  C_21
REMARK   14  A    between atoms: C_20  and  C_22
REMARK   15  A    between atoms: C_22  and  O_23
REMARK   16  A    between atoms: C_22  and  C_24
REMARK   17  A    between atoms: C_24  and  C_25
REMARK   18  A    between atoms: C_26  and  C_27
REMARK   19  A    between atoms: C_27  and  C_28
REMARK   20  A    between atoms: C_27  and  C_29
REMARK   21  A    between atoms: C_29  and  C_30
REMARK   22  A    between atoms: C_30  and  C_31
REMARK                            x       y       z     vdW  Elec       q    Type
REMARK                         _______ _______ _______ _____ _____    ______ ____
ROOT
ATOM      1  C   UNK A   0       2.462   5.292  18.687  0.00  0.00    +0.000 C 
ATOM      2  C   UNK A   0       3.263   6.463  18.197  0.00  0.00    +0.000 C 
ATOM      3  C   UNK A   0       2.885   7.745  18.353  0.00  0.00    +0.000 C 
ENDROOT
BRANCH   3   4
ATOM      4  C   UNK A   0       1.597   8.229  18.987  0.00  0.00    +0.000 C 
ATOM      5  C   UNK A   0       1.609   7.790  20.455  0.00  0.00    +0.000 C 
BRANCH   4   6
ATOM      6  C   UNK A   0       1.350   9.761  18.854  0.00  0.00    +0.000 C 
BRANCH   6   7
ATOM      7  C   UNK A   0       0.138  10.284  19.620  0.00  0.00    +0.000 C 
ATOM      8  C   UNK A   0      -1.202  10.319  18.933  0.00  0.00    +0.000 C 
ATOM      9  C   UNK A   0       0.267  10.646  20.916  0.00  0.00    +0.000 C 
BRANCH   9  10
ATOM     10  C   UNK A   0      -0.846  11.108  21.831  0.00  0.00    +0.000 C 
ATOM     11  C   UNK A   0      -0.799  10.291  23.123  0.00  0.00    +0.000 C 
BRANCH  10  12
ATOM     12  C   UNK A   0      -0.753  12.614  22.126  0.00  0.00    +0.000 C 
BRANCH  12  13
ATOM     13  C   UNK A   0      -1.527  13.455  21.104  0.00  0.00    +0.000 C 
BRANCH  13  14
ATOM     14  C   UNK A   0      -2.997  13.121  21.115  0.00  0.00    +0.000 A 
ATOM     15  C   UNK A   0      -3.718  13.149  22.317  0.00  0.00    +0.000 A 
ATOM     16  C   UNK A   0      -5.076  12.830  22.331  0.00  0.00    +0.000 A 
ATOM     17  C   UNK A   0      -5.720  12.476  21.149  0.00  0.00    +0.000 A 
ATOM     18  C   UNK A   0      -5.009  12.437  19.950  0.00  0.00    +0.000 A 
ATOM     19  C   UNK A   0      -3.650  12.755  19.933  0.00  0.00    +0.000 A 
ENDBRANCH  13  14
ENDBRANCH  12  13
ENDBRANCH  10  12
ENDBRANCH   9  10
ENDBRANCH   6   7
BRANCH   6  20
ATOM     20  O   UNK A   0       1.300  10.184  17.494  0.00  0.00    +0.000 OA
ATOM     21  H   UNK A   0       2.208  10.257  17.166  0.00  0.00    +0.000 HD
ENDBRANCH   6  20
ENDBRANCH   4   6
ENDBRANCH   3   4
BRANCH   2  22
ATOM     22  C   UNK A   0       4.528   6.154  17.549  0.00  0.00    +0.000 C 
ATOM     23  C   UNK A   0       5.670   6.771  17.885  0.00  0.00    +0.000 C 
BRANCH  23  24
ATOM     24  C   UNK A   0       6.941   6.508  17.259  0.00  0.00    +0.000 C 
ATOM     25  C   UNK A   0       7.961   7.381  17.209  0.00  0.00    +0.000 C 
BRANCH  25  26
ATOM     26  C   UNK A   0       7.916   8.749  17.681  0.00  0.00    +0.000 C 
ATOM     27  C   UNK A   0       8.783   9.228  18.586  0.00  0.00    +0.000 C 
BRANCH  27  28
ATOM     28  C   UNK A   0       8.768  10.608  19.030  0.00  0.00    +0.000 C 
ATOM     29  C   UNK A   0       9.631  11.580  18.669  0.00  0.00    +0.000 C 
ATOM     30  C   UNK A   0      10.789  11.411  17.731  0.00  0.00    +0.000 C 
BRANCH  29  31
ATOM     31  C   UNK A   0       9.376  12.932  19.288  0.00  0.00    +0.000 C 
ATOM     32  O   UNK A   0       8.801  13.052  20.364  0.00  0.00    +0.000 OA
ATOM     33  N   ALA A   1       9.847  14.014  18.578  0.00  0.00    +0.000 N 
ATOM     34  H   ALA A   1      10.317  13.882  17.698  0.00  0.00    +0.000 HD
BRANCH  33  35
ATOM     35  CA  ALA A   1       9.681  15.402  19.022  0.00  0.00    +0.000 C 
ATOM     36  CB  ALA A   1      10.988  16.016  19.513  0.00  0.00    +0.000 C 
BRANCH  35  37
ATOM     37  C   ALA A   1       9.001  16.281  17.962  0.00  0.00    +0.000 C 
BRANCH  37  38
ATOM     38  O   ALA A   1       7.584  16.245  18.142  0.00  0.00    +0.000 OA
ATOM     39  H   ALA A   1       7.303  15.370  17.819  0.00  0.00    +0.000 HD
ENDBRANCH  37  38
ENDBRANCH  35  37
ENDBRANCH  33  35
ENDBRANCH  29  31
ENDBRANCH  27  28
ENDBRANCH  25  26
ENDBRANCH  23  24
ENDBRANCH   2  22
TORSDOF 16
ENDMDL
MODEL 4
REMARK VINA RESULT:      -6.3      5.458     10.549
REMARK  Name = 
REMARK  22 active torsions:
REMARK  status: ('A' for Active; 'I' for Inactive)
REMARK    1  A    between atoms: C_1  and  C_2
REMARK    2  A    between atoms: C_2  and  C_3
REMARK    3  A    between atoms: C_4  and  C_5
REMARK    4  A    between atoms: C_6  and  C_7
REMARK    5  A    between atoms: C_8  and  C_9
REMARK    6  A    between atoms: C_10  and  C_11
REMARK    7  A    between atoms: C_10  and  C_12
REMARK    8  A    between atoms: N_14  and  CA_15
REMARK    9  A    between atoms: CA_15  and  CB_16
REMARK   10  A    between atoms: CA_15  and  C_17
REMARK   11  A    between atoms: C_17  and  O_18
REMARK   12  A    between atoms: C_19  and  C_20
REMARK   13  A    between atoms: C_20  and  C_21
REMARK   14  A    between atoms: C_20  and  C_22
REMARK   15  A    between atoms: C_22  and  O_23
REMARK   16  A    between atoms: C_22  and  C_24
REMARK   17  A    between atoms: C_24  and  C_25
REMARK   18  A    between atoms: C_26  and  C_27
REMARK   19  A    between atoms: C_27  and  C_28
REMARK   20  A    between atoms: C_27  and  C_29
REMARK   21  A    between atoms: C_29  and  C_30
REMARK   22  A    between atoms: C_30  and  C_31
REMARK                            x       y       z     vdW  Elec       q    Type
REMARK                         _______ _______ _______ _____ _____    ______ ____
ROOT
ATOM      1  C   UNK A   0      -0.734  13.706  18.821  0.00  0.00    +0.000 C 
ATOM      2  C   UNK A   0       0.066  12.923  19.821  0.00  0.00    +0.000 C 
ATOM      3  C   UNK A   0       1.334  13.219  20.161  0.00  0.00    +0.000 C 
ENDROOT
BRANCH   3   4
ATOM      4  C   UNK A   0       2.181  14.334  19.581  0.00  0.00    +0.000 C 
ATOM      5  C   UNK A   0       2.576  15.264  20.731  0.00  0.00    +0.000 C 
BRANCH   4   6
ATOM      6  C   UNK A   0       3.431  13.847  18.789  0.00  0.00    +0.000 C 
BRANCH   6   7
ATOM      7  C   UNK A   0       4.398  14.952  18.375  0.00  0.00    +0.000 C 
ATOM      8  C   UNK A   0       3.862  16.158  17.647  0.00  0.00    +0.000 C 
ATOM      9  C   UNK A   0       5.702  14.868  18.719  0.00  0.00    +0.000 C 
BRANCH   9  10
ATOM     10  C   UNK A   0       6.766  15.910  18.454  0.00  0.00    +0.000 C 
ATOM     11  C   UNK A   0       7.190  16.539  19.782  0.00  0.00    +0.000 C 
BRANCH  10  12
ATOM     12  C   UNK A   0       7.976  15.313  17.715  0.00  0.00    +0.000 C 
BRANCH  12  13
ATOM     13  C   UNK A   0       9.263  15.402  18.544  0.00  0.00    +0.000 C 
BRANCH  13  14
ATOM     14  C   UNK A   0       9.871  14.042  18.769  0.00  0.00    +0.000 A 
ATOM     15  C   UNK A   0      10.186  13.220  17.677  0.00  0.00    +0.000 A 
ATOM     16  C   UNK A   0      10.739  11.956  17.883  0.00  0.00    +0.000 A 
ATOM     17  C   UNK A   0      10.974  11.502  19.178  0.00  0.00    +0.000 A 
ATOM     18  C   UNK A   0      10.655  12.309  20.270  0.00  0.00    +0.000 A 
ATOM     19  C   UNK A   0      10.103  13.574  20.067  0.00  0.00    +0.000 A 
ENDBRANCH  13  14
ENDBRANCH  12  13
ENDBRANCH  10  12
ENDBRANCH   9  10
ENDBRANCH   6   7
BRANCH   6  20
ATOM     20  O   UNK A   0       3.080  13.045  17.664  0.00  0.00    +0.000 OA
ATOM     21  H   UNK A   0       2.153  12.780  17.759  0.00  0.00    +0.000 HD
ENDBRANCH   6  20
ENDBRANCH   4   6
ENDBRANCH   3   4
BRANCH   2  22
ATOM     22  C   UNK A   0      -0.612  11.806  20.458  0.00  0.00    +0.000 C 
ATOM     23  C   UNK A   0       0.052  10.869  21.152  0.00  0.00    +0.000 C 
BRANCH  23  24
ATOM     24  C   UNK A   0      -0.577   9.738  21.785  0.00  0.00    +0.000 C 
ATOM     25  C   UNK A   0      -0.052   8.502  21.834  0.00  0.00    +0.000 C 
BRANCH  25  26
ATOM     26  C   UNK A   0       1.169   8.085  21.177  0.00  0.00    +0.000 C 
ATOM     27  C   UNK A   0       1.347   6.838  20.714  0.00  0.00    +0.000 C 
BRANCH  27  28
ATOM     28  C   UNK A   0       2.552   6.427  20.019  0.00  0.00    +0.000 C 
ATOM     29  C   UNK A   0       2.724   5.295  19.307  0.00  0.00    +0.000 C 
ATOM     30  C   UNK A   0       1.688   4.231  19.100  0.00  0.00    +0.000 C 
BRANCH  29  31
ATOM     31  C   UNK A   0       4.089   5.124  18.687  0.00  0.00    +0.000 C 
ATOM     32  O   UNK A   0       4.938   4.393  19.185  0.00  0.00    +0.000 OA
ATOM     33  N   ALA A   1       4.309   5.823  17.521  0.00  0.00    +0.000 N 
ATOM     34  H   ALA A   1       3.591   6.413  17.136  0.00  0.00    +0.000 HD
BRANCH  33  35
ATOM     35  CA  ALA A   1       5.578   5.784  16.787  0.00  0.00    +0.000 C 
ATOM     36  CB  ALA A   1       5.375   5.733  15.276  0.00  0.00    +0.000 C 
BRANCH  35  37
ATOM     37  C   ALA A   1       6.529   6.918  17.196  0.00  0.00    +0.000 C 
BRANCH  37  38
ATOM     38  O   ALA A   1       7.773   6.777  16.506  0.00  0.00    +0.000 OA
ATOM     39  H   ALA A   1       8.452   6.723  17.203  0.00  0.00    +0.000 HD
ENDBRANCH  37  38
ENDBRANCH  35  37
ENDBRANCH  33  35
ENDBRANCH  29  31
ENDBRANCH  27  28
ENDBRANCH  25  26
ENDBRANCH  23  24
ENDBRANCH   2  22
TORSDOF 16
ENDMDL
MODEL 5
REMARK VINA RESULT:      -6.3      5.011      8.149
REMARK  Name = 
REMARK  22 active torsions:
REMARK  status: ('A' for Active; 'I' for Inactive)
REMARK    1  A    between atoms: C_1  and  C_2
REMARK    2  A    between atoms: C_2  and  C_3
REMARK    3  A    between atoms: C_4  and  C_5
REMARK    4  A    between atoms: C_6  and  C_7
REMARK    5  A    between atoms: C_8  and  C_9
REMARK    6  A    between atoms: C_10  and  C_11
REMARK    7  A    between atoms: C_10  and  C_12
REMARK    8  A    between atoms: N_14  and  CA_15
REMARK    9  A    between atoms: CA_15  and  CB_16
REMARK   10  A    between atoms: CA_15  and  C_17
REMARK   11  A    between atoms: C_17  and  O_18
REMARK   12  A    between atoms: C_19  and  C_20
REMARK   13  A    between atoms: C_20  and  C_21
REMARK   14  A    between atoms: C_20  and  C_22
REMARK   15  A    between atoms: C_22  and  O_23
REMARK   16  A    between atoms: C_22  and  C_24
REMARK   17  A    between atoms: C_24  and  C_25
REMARK   18  A    between atoms: C_26  and  C_27
REMARK   19  A    between atoms: C_27  and  C_28
REMARK   20  A    between atoms: C_27  and  C_29
REMARK   21  A    between atoms: C_29  and  C_30
REMARK   22  A    between atoms: C_30  and  C_31
REMARK                            x       y       z     vdW  Elec       q    Type
REMARK                         _______ _______ _______ _____ _____    ______ ____
ROOT
ATOM      1  C   UNK A   0       0.725  10.378  21.547  0.00  0.00    +0.000 C 
ATOM      2  C   UNK A   0       0.733  11.440  20.487  0.00  0.00    +0.000 C 
ATOM      3  C   UNK A   0       0.618  11.182  19.171  0.00  0.00    +0.000 C 
ENDROOT
BRANCH   3   4
ATOM      4  C   UNK A   0       0.514   9.813  18.530  0.00  0.00    +0.000 C 
ATOM      5  C   UNK A   0      -0.814   9.757  17.769  0.00  0.00    +0.000 C 
BRANCH   4   6
ATOM      6  C   UNK A   0       1.713   9.439  17.610  0.00  0.00    +0.000 C 
BRANCH   6   7
ATOM      7  C   UNK A   0       2.410   8.129  17.965  0.00  0.00    +0.000 C 
ATOM      8  C   UNK A   0       3.763   7.835  17.370  0.00  0.00    +0.000 C 
ATOM      9  C   UNK A   0       1.841   7.284  18.853  0.00  0.00    +0.000 C 
BRANCH   9  10
ATOM     10  C   UNK A   0       2.437   5.992  19.367  0.00  0.00    +0.000 C 
ATOM     11  C   UNK A   0       1.792   5.645  20.709  0.00  0.00    +0.000 C 
BRANCH  10  12
ATOM     12  C   UNK A   0       2.262   4.843  18.358  0.00  0.00    +0.000 C 
BRANCH  12  13
ATOM     13  C   UNK A   0       3.347   3.770  18.507  0.00  0.00    +0.000 C 
BRANCH  13  14
ATOM     14  C   UNK A   0       4.615   4.164  17.795  0.00  0.00    +0.000 A 
ATOM     15  C   UNK A   0       4.675   4.139  16.394  0.00  0.00    +0.000 A 
ATOM     16  C   UNK A   0       5.851   4.492  15.733  0.00  0.00    +0.000 A 
ATOM     17  C   UNK A   0       6.975   4.865  16.464  0.00  0.00    +0.000 A 
ATOM     18  C   UNK A   0       6.928   4.884  17.858  0.00  0.00    +0.000 A 
ATOM     19  C   UNK A   0       5.753   4.531  18.522  0.00  0.00    +0.000 A 
ENDBRANCH  13  14
ENDBRANCH  12  13
ENDBRANCH  10  12
ENDBRANCH   9  10
ENDBRANCH   6   7
BRANCH   6  20
ATOM     20  O   UNK A   0       2.664  10.496  17.504  0.00  0.00    +0.000 OA
ATOM     21  H   UNK A   0       3.531  10.106  17.320  0.00  0.00    +0.000 HD
ENDBRANCH   6  20
ENDBRANCH   4   6
ENDBRANCH   3   4
BRANCH   2  22
ATOM     22  C   UNK A   0       0.842  12.814  20.949  0.00  0.00    +0.000 C 
ATOM     23  C   UNK A   0       1.260  13.805  20.148  0.00  0.00    +0.000 C 
BRANCH  23  24
ATOM     24  C   UNK A   0       1.398  15.176  20.569  0.00  0.00    +0.000 C 
ATOM     25  C   UNK A   0       2.557  15.857  20.580  0.00  0.00    +0.000 C 
BRANCH  25  26
ATOM     26  C   UNK A   0       3.858  15.301  20.272  0.00  0.00    +0.000 C 
ATOM     27  C   UNK A   0       4.896  16.064  19.898  0.00  0.00    +0.000 C 
BRANCH  27  28
ATOM     28  C   UNK A   0       6.212  15.516  19.629  0.00  0.00    +0.000 C 
ATOM     29  C   UNK A   0       7.234  15.408  20.504  0.00  0.00    +0.000 C 
ATOM     30  C   UNK A   0       7.201  15.846  21.938  0.00  0.00    +0.000 C 
BRANCH  29  31
ATOM     31  C   UNK A   0       8.495  14.795  19.949  0.00  0.00    +0.000 C 
ATOM     32  O   UNK A   0       9.487  15.471  19.698  0.00  0.00    +0.000 OA
ATOM     33  N   ALA A   1       8.467  13.431  19.764  0.00  0.00    +0.000 N 
ATOM     34  H   ALA A   1       7.638  12.903  19.982  0.00  0.00    +0.000 HD
BRANCH  33  35
ATOM     35  CA  ALA A   1       9.598  12.667  19.226  0.00  0.00    +0.000 C 
ATOM     36  CB  ALA A   1      10.044  11.550  20.163  0.00  0.00    +0.000 C 
BRANCH  35  37
ATOM     37  C   ALA A   1       9.334  12.148  17.805  0.00  0.00    +0.000 C 
BRANCH  37  38
ATOM     38  O   ALA A   1       8.289  12.911  17.198  0.00  0.00    +0.000 OA
ATOM     39  H   ALA A   1       7.471  12.636  17.650  0.00  0.00    +0.000 HD
ENDBRANCH  37  38
ENDBRANCH  35  37
ENDBRANCH  33  35
ENDBRANCH  29  31
ENDBRANCH  27  28
ENDBRANCH  25  26
ENDBRANCH  23  24
ENDBRANCH   2  22
TORSDOF 16
ENDMDL
MODEL 6
REMARK VINA RESULT:      -6.1      5.107     12.046
REMARK  Name = 
REMARK  22 active torsions:
REMARK  status: ('A' for Active; 'I' for Inactive)
REMARK    1  A    between atoms: C_1  and  C_2
REMARK    2  A    between atoms: C_2  and  C_3
REMARK    3  A    between atoms: C_4  and  C_5
REMARK    4  A    between atoms: C_6  and  C_7
REMARK    5  A    between atoms: C_8  and  C_9
REMARK    6  A    between atoms: C_10  and  C_11
REMARK    7  A    between atoms: C_10  and  C_12
REMARK    8  A    between atoms: N_14  and  CA_15
REMARK    9  A    between atoms: CA_15  and  CB_16
REMARK   10  A    between atoms: CA_15  and  C_17
REMARK   11  A    between atoms: C_17  and  O_18
REMARK   12  A    between atoms: C_19  and  C_20
REMARK   13  A    between atoms: C_20  and  C_21
REMARK   14  A    between atoms: C_20  and  C_22
REMARK   15  A    between atoms: C_22  and  O_23
REMARK   16  A    between atoms: C_22  and  C_24
REMARK   17  A    between atoms: C_24  and  C_25
REMARK   18  A    between atoms: C_26  and  C_27
REMARK   19  A    between atoms: C_27  and  C_28
REMARK   20  A    between atoms: C_27  and  C_29
REMARK   21  A    between atoms: C_29  and  C_30
REMARK   22  A    between atoms: C_30  and  C_31
REMARK                            x       y       z     vdW  Elec       q    Type
REMARK                         _______ _______ _______ _____ _____    ______ ____
ROOT
ATOM      1  C   UNK A   0       2.441   8.322  18.256  0.00  0.00    +0.000 C 
ATOM      2  C   UNK A   0       1.722   8.297  19.574  0.00  0.00    +0.000 C 
ATOM      3  C   UNK A   0       0.959   9.308  20.028  0.00  0.00    +0.000 C 
ENDROOT
BRANCH   3   4
ATOM      4  C   UNK A   0       0.728  10.638  19.339  0.00  0.00    +0.000 C 
ATOM      5  C   UNK A   0      -0.549  10.513  18.503  0.00  0.00    +0.000 C 
BRANCH   4   6
ATOM      6  C   UNK A   0       0.660  11.859  20.302  0.00  0.00    +0.000 C 
BRANCH   6   7
ATOM      7  C   UNK A   0       1.544  13.038  19.907  0.00  0.00    +0.000 C 
ATOM      8  C   UNK A   0       2.192  13.863  20.989  0.00  0.00    +0.000 C 
ATOM      9  C   UNK A   0       1.788  13.288  18.601  0.00  0.00    +0.000 C 
BRANCH   9  10
ATOM     10  C   UNK A   0       2.699  14.363  18.051  0.00  0.00    +0.000 C 
ATOM     11  C   UNK A   0       2.204  15.729  18.530  0.00  0.00    +0.000 C 
BRANCH  10  12
ATOM     12  C   UNK A   0       4.164  14.133  18.459  0.00  0.00    +0.000 C 
BRANCH  12  13
ATOM     13  C   UNK A   0       5.122  15.099  17.753  0.00  0.00    +0.000 C 
BRANCH  13  14
ATOM     14  C   UNK A   0       6.027  15.796  18.734  0.00  0.00    +0.000 A 
ATOM     15  C   UNK A   0       5.770  17.122  19.115  0.00  0.00    +0.000 A 
ATOM     16  C   UNK A   0       6.613  17.773  20.015  0.00  0.00    +0.000 A 
ATOM     17  C   UNK A   0       7.720  17.109  20.536  0.00  0.00    +0.000 A 
ATOM     18  C   UNK A   0       7.990  15.794  20.157  0.00  0.00    +0.000 A 
ATOM     19  C   UNK A   0       7.148  15.141  19.256  0.00  0.00    +0.000 A 
ENDBRANCH  13  14
ENDBRANCH  12  13
ENDBRANCH  10  12
ENDBRANCH   9  10
ENDBRANCH   6   7
BRANCH   6  20
ATOM     20  O   UNK A   0       0.897  11.492  21.659  0.00  0.00    +0.000 OA
ATOM     21  H   UNK A   0       1.028  12.303  22.173  0.00  0.00    +0.000 HD
ENDBRANCH   6  20
ENDBRANCH   4   6
ENDBRANCH   3   4
BRANCH   2  22
ATOM     22  C   UNK A   0       1.860   7.083  20.361  0.00  0.00    +0.000 C 
ATOM     23  C   UNK A   0       1.847   5.864  19.801  0.00  0.00    +0.000 C 
BRANCH  23  24
ATOM     24  C   UNK A   0       1.964   4.636  20.544  0.00  0.00    +0.000 C 
ATOM     25  C   UNK A   0       2.962   3.748  20.397  0.00  0.00    +0.000 C 
BRANCH  25  26
ATOM     26  C   UNK A   0       4.016   3.829  19.408  0.00  0.00    +0.000 C 
ATOM     27  C   UNK A   0       3.841   3.438  18.136  0.00  0.00    +0.000 C 
BRANCH  27  28
ATOM     28  C   UNK A   0       4.880   3.556  17.131  0.00  0.00    +0.000 C 
ATOM     29  C   UNK A   0       5.279   4.688  16.515  0.00  0.00    +0.000 C 
ATOM     30  C   UNK A   0       4.711   6.056  16.753  0.00  0.00    +0.000 C 
BRANCH  29  31
ATOM     31  C   UNK A   0       6.388   4.517  15.507  0.00  0.00    +0.000 C 
ATOM     32  O   UNK A   0       7.569   4.615  15.822  0.00  0.00    +0.000 OA
ATOM     33  N   ALA A   1       5.990   4.225  14.221  0.00  0.00    +0.000 N 
ATOM     34  H   ALA A   1       5.012   4.150  13.995  0.00  0.00    +0.000 HD
BRANCH  33  35
ATOM     35  CA  ALA A   1       6.929   4.036  13.111  0.00  0.00    +0.000 C 
ATOM     36  CB  ALA A   1       6.360   3.141  12.014  0.00  0.00    +0.000 C 
BRANCH  35  37
ATOM     37  C   ALA A   1       7.451   5.366  12.548  0.00  0.00    +0.000 C 
BRANCH  37  38
ATOM     38  O   ALA A   1       8.598   5.786  13.291  0.00  0.00    +0.000 OA
ATOM     39  H   ALA A   1       9.358   5.642  12.698  0.00  0.00    +0.000 HD
ENDBRANCH  37  38
ENDBRANCH  35  37
ENDBRANCH  33  35
ENDBRANCH  29  31
ENDBRANCH  27  28
ENDBRANCH  25  26
ENDBRANCH  23  24
ENDBRANCH   2  22
TORSDOF 16
ENDMDL
MODEL 7
REMARK VINA RESULT:      -6.1      5.499      8.557
REMARK  Name = 
REMARK  22 active torsions:
REMARK  status: ('A' for Active; 'I' for Inactive)
REMARK    1  A    between atoms: C_1  and  C_2
REMARK    2  A    between atoms: C_2  and  C_3
REMARK    3  A    between atoms: C_4  and  C_5
REMARK    4  A    between atoms: C_6  and  C_7
REMARK    5  A    between atoms: C_8  and  C_9
REMARK    6  A    between atoms: C_10  and  C_11
REMARK    7  A    between atoms: C_10  and  C_12
REMARK    8  A    between atoms: N_14  and  CA_15
REMARK    9  A    between atoms: CA_15  and  CB_16
REMARK   10  A    between atoms: CA_15  and  C_17
REMARK   11  A    between atoms: C_17  and  O_18
REMARK   12  A    between atoms: C_19  and  C_20
REMARK   13  A    between atoms: C_20  and  C_21
REMARK   14  A    between atoms: C_20  and  C_22
REMARK   15  A    between atoms: C_22  and  O_23
REMARK   16  A    between atoms: C_22  and  C_24
REMARK   17  A    between atoms: C_24  and  C_25
REMARK   18  A    between atoms: C_26  and  C_27
REMARK   19  A    between atoms: C_27  and  C_28
REMARK   20  A    between atoms: C_27  and  C_29
REMARK   21  A    between atoms: C_29  and  C_30
REMARK   22  A    between atoms: C_30  and  C_31
REMARK                            x       y       z     vdW  Elec       q    Type
REMARK                         _______ _______ _______ _____ _____    ______ ____
ROOT
ATOM      1  C   UNK A   0       0.302  10.174  21.638  0.00  0.00    +0.000 C 
ATOM      2  C   UNK A   0       0.446  11.338  20.702  0.00  0.00    +0.000 C 
ATOM      3  C   UNK A   0       0.454  11.222  19.361  0.00  0.00    +0.000 C 
ENDROOT
BRANCH   3   4
ATOM      4  C   UNK A   0       0.372   9.931  18.572  0.00  0.00    +0.000 C 
ATOM      5  C   UNK A   0      -0.928   9.964  17.762  0.00  0.00    +0.000 C 
BRANCH   4   6
ATOM      6  C   UNK A   0       1.603   9.655  17.659  0.00  0.00    +0.000 C 
BRANCH   6   7
ATOM      7  C   UNK A   0       2.338   8.350  17.951  0.00  0.00    +0.000 C 
ATOM      8  C   UNK A   0       3.684   8.111  17.318  0.00  0.00    +0.000 C 
ATOM      9  C   UNK A   0       1.807   7.459  18.818  0.00  0.00    +0.000 C 
BRANCH   9  10
ATOM     10  C   UNK A   0       2.443   6.163  19.271  0.00  0.00    +0.000 C 
ATOM     11  C   UNK A   0       1.895   5.794  20.649  0.00  0.00    +0.000 C 
BRANCH  10  12
ATOM     12  C   UNK A   0       2.205   5.028  18.260  0.00  0.00    +0.000 C 
BRANCH  12  13
ATOM     13  C   UNK A   0       3.339   3.996  18.269  0.00  0.00    +0.000 C 
BRANCH  13  14
ATOM     14  C   UNK A   0       4.645   4.607  17.831  0.00  0.00    +0.000 A 
ATOM     15  C   UNK A   0       4.913   4.797  16.467  0.00  0.00    +0.000 A 
ATOM     16  C   UNK A   0       6.126   5.352  16.058  0.00  0.00    +0.000 A 
ATOM     17  C   UNK A   0       7.080   5.714  17.005  0.00  0.00    +0.000 A 
ATOM     18  C   UNK A   0       6.826   5.520  18.364  0.00  0.00    +0.000 A 
ATOM     19  C   UNK A   0       5.614   4.965  18.775  0.00  0.00    +0.000 A 
ENDBRANCH  13  14
ENDBRANCH  12  13
ENDBRANCH  10  12
ENDBRANCH   9  10
ENDBRANCH   6   7
BRANCH   6  20
ATOM     20  O   UNK A   0       2.518  10.748  17.640  0.00  0.00    +0.000 OA
ATOM     21  H   UNK A   0       2.048  11.541  17.936  0.00  0.00    +0.000 HD
ENDBRANCH   6  20
ENDBRANCH   4   6
ENDBRANCH   3   4
BRANCH   2  22
ATOM     22  C   UNK A   0       0.550  12.652  21.316  0.00  0.00    +0.000 C 
ATOM     23  C   UNK A   0       1.577  13.477  21.066  0.00  0.00    +0.000 C 
BRANCH  23  24
ATOM     24  C   UNK A   0       1.728  14.778  21.664  0.00  0.00    +0.000 C 
ATOM     25  C   UNK A   0       2.869  15.489  21.666  0.00  0.00    +0.000 C 
BRANCH  25  26
ATOM     26  C   UNK A   0       4.145  15.026  21.163  0.00  0.00    +0.000 C 
ATOM     27  C   UNK A   0       4.983  15.823  20.482  0.00  0.00    +0.000 C 
BRANCH  27  28
ATOM     28  C   UNK A   0       6.279  15.374  20.012  0.00  0.00    +0.000 C 
ATOM     29  C   UNK A   0       6.563  14.863  18.796  0.00  0.00    +0.000 C 
ATOM     30  C   UNK A   0       5.574  14.655  17.688  0.00  0.00    +0.000 C 
BRANCH  29  31
ATOM     31  C   UNK A   0       8.005  14.478  18.578  0.00  0.00    +0.000 C 
ATOM     32  O   UNK A   0       8.369  13.307  18.578  0.00  0.00    +0.000 OA
ATOM     33  N   ALA A   1       8.877  15.522  18.361  0.00  0.00    +0.000 N 
ATOM     34  H   ALA A   1       8.547  16.472  18.366  0.00  0.00    +0.000 HD
BRANCH  33  35
ATOM     35  CA  ALA A   1      10.315  15.336  18.141  0.00  0.00    +0.000 C 
ATOM     36  CB  ALA A   1      10.832  16.148  16.957  0.00  0.00    +0.000 C 
BRANCH  35  37
ATOM     37  C   ALA A   1      11.142  15.589  19.410  0.00  0.00    +0.000 C 
BRANCH  37  38
ATOM     38  O   ALA A   1      11.476  14.343  20.025  0.00  0.00    +0.000 OA
ATOM     39  H   ALA A   1      12.368  14.124  19.701  0.00  0.00    +0.000 HD
ENDBRANCH  37  38
ENDBRANCH  35  37
ENDBRANCH  33  35
ENDBRANCH  29  31
ENDBRANCH  27  28
ENDBRANCH  25  26
ENDBRANCH  23  24
ENDBRANCH   2  22
TORSDOF 16
ENDMDL
MODEL 8
REMARK VINA RESULT:      -6.1      4.577     12.523
REMARK  Name = 
REMARK  22 active torsions:
REMARK  status: ('A' for Active; 'I' for Inactive)
REMARK    1  A    between atoms: C_1  and  C_2
REMARK    2  A    between atoms: C_2  and  C_3
REMARK    3  A    between atoms: C_4  and  C_5
REMARK    4  A    between atoms: C_6  and  C_7
REMARK    5  A    between atoms: C_8  and  C_9
REMARK    6  A    between atoms: C_10  and  C_11
REMARK    7  A    between atoms: C_10  and  C_12
REMARK    8  A    between atoms: N_14  and  CA_15
REMARK    9  A    between atoms: CA_15  and  CB_16
REMARK   10  A    between atoms: CA_15  and  C_17
REMARK   11  A    between atoms: C_17  and  O_18
REMARK   12  A    between atoms: C_19  and  C_20
REMARK   13  A    between atoms: C_20  and  C_21
REMARK   14  A    between atoms: C_20  and  C_22
REMARK   15  A    between atoms: C_22  and  O_23
REMARK   16  A    between atoms: C_22  and  C_24
REMARK   17  A    between atoms: C_24  and  C_25
REMARK   18  A    between atoms: C_26  and  C_27
REMARK   19  A    between atoms: C_27  and  C_28
REMARK   20  A    between atoms: C_27  and  C_29
REMARK   21  A    between atoms: C_29  and  C_30
REMARK   22  A    between atoms: C_30  and  C_31
REMARK                            x       y       z     vdW  Elec       q    Type
REMARK                         _______ _______ _______ _____ _____    ______ ____
ROOT
ATOM      1  C   UNK A   0       2.084   8.306  17.919  0.00  0.00    +0.000 C 
ATOM      2  C   UNK A   0       1.740   8.104  19.367  0.00  0.00    +0.000 C 
ATOM      3  C   UNK A   0       1.117   9.026  20.123  0.00  0.00    +0.000 C 
ENDROOT
BRANCH   3   4
ATOM      4  C   UNK A   0       0.703  10.416  19.683  0.00  0.00    +0.000 C 
ATOM      5  C   UNK A   0      -0.392  10.260  18.623  0.00  0.00    +0.000 C 
BRANCH   4   6
ATOM      6  C   UNK A   0       0.243  11.349  20.842  0.00  0.00    +0.000 C 
BRANCH   6   7
ATOM      7  C   UNK A   0       0.909  12.721  20.864  0.00  0.00    +0.000 C 
ATOM      8  C   UNK A   0       0.230  13.853  21.591  0.00  0.00    +0.000 C 
ATOM      9  C   UNK A   0       2.122  12.889  20.291  0.00  0.00    +0.000 C 
BRANCH   9  10
ATOM     10  C   UNK A   0       2.945  14.159  20.294  0.00  0.00    +0.000 C 
ATOM     11  C   UNK A   0       3.909  14.124  21.481  0.00  0.00    +0.000 C 
BRANCH  10  12
ATOM     12  C   UNK A   0       3.706  14.348  18.971  0.00  0.00    +0.000 C 
BRANCH  12  13
ATOM     13  C   UNK A   0       2.949  15.252  17.991  0.00  0.00    +0.000 C 
BRANCH  13  14
ATOM     14  C   UNK A   0       1.988  16.164  18.709  0.00  0.00    +0.000 A 
ATOM     15  C   UNK A   0       2.472  17.216  19.502  0.00  0.00    +0.000 A 
ATOM     16  C   UNK A   0       1.585  18.054  20.177  0.00  0.00    +0.000 A 
ATOM     17  C   UNK A   0       0.212  17.846  20.071  0.00  0.00    +0.000 A 
ATOM     18  C   UNK A   0      -0.278  16.797  19.292  0.00  0.00    +0.000 A 
ATOM     19  C   UNK A   0       0.608  15.957  18.616  0.00  0.00    +0.000 A 
ENDBRANCH  13  14
ENDBRANCH  12  13
ENDBRANCH  10  12
ENDBRANCH   9  10
ENDBRANCH   6   7
BRANCH   6  20
ATOM     20  O   UNK A   0       0.354  10.721  22.117  0.00  0.00    +0.000 OA
ATOM     21  H   UNK A   0       0.342  11.412  22.796  0.00  0.00    +0.000 HD
ENDBRANCH   6  20
ENDBRANCH   4   6
ENDBRANCH   3   4
BRANCH   2  22
ATOM     22  C   UNK A   0       2.091   6.814  19.939  0.00  0.00    +0.000 C 
ATOM     23  C   UNK A   0       2.042   5.680  19.224  0.00  0.00    +0.000 C 
BRANCH  23  24
ATOM     24  C   UNK A   0       2.364   4.380  19.755  0.00  0.00    +0.000 C 
ATOM     25  C   UNK A   0       3.081   3.447  19.106  0.00  0.00    +0.000 C 
BRANCH  25  26
ATOM     26  C   UNK A   0       3.554   3.555  17.741  0.00  0.00    +0.000 C 
ATOM     27  C   UNK A   0       4.699   4.179  17.424  0.00  0.00    +0.000 C 
BRANCH  27  28
ATOM     28  C   UNK A   0       5.198   4.254  16.064  0.00  0.00    +0.000 C 
ATOM     29  C   UNK A   0       6.487   4.370  15.684  0.00  0.00    +0.000 C 
ATOM     30  C   UNK A   0       7.663   4.450  16.611  0.00  0.00    +0.000 C 
BRANCH  29  31
ATOM     31  C   UNK A   0       6.718   4.425  14.194  0.00  0.00    +0.000 C 
ATOM     32  O   UNK A   0       7.360   5.330  13.673  0.00  0.00    +0.000 OA
ATOM     33  N   ALA A   1       6.180   3.387  13.466  0.00  0.00    +0.000 N 
ATOM     34  H   ALA A   1       5.659   2.658  13.925  0.00  0.00    +0.000 HD
BRANCH  33  35
ATOM     35  CA  ALA A   1       6.297   3.281  12.008  0.00  0.00    +0.000 C 
ATOM     36  CB  ALA A   1       7.364   2.277  11.582  0.00  0.00    +0.000 C 
BRANCH  35  37
ATOM     37  C   ALA A   1       4.949   3.003  11.328  0.00  0.00    +0.000 C 
BRANCH  37  38
ATOM     38  O   ALA A   1       3.889   3.547  12.118  0.00  0.00    +0.000 OA
ATOM     39  H   ALA A   1       4.241   4.376  12.489  0.00  0.00    +0.000 HD
ENDBRANCH  37  38
ENDBRANCH  35  37
ENDBRANCH  33  35
ENDBRANCH  29  31
ENDBRANCH  27  28
ENDBRANCH  25  26
ENDBRANCH  23  24
ENDBRANCH   2  22
TORSDOF 16
ENDMDL
MODEL 9
REMARK VINA RESULT:      -6.1      5.690     10.943
REMARK  Name = 
REMARK  22 active torsions:
REMARK  status: ('A' for Active; 'I' for Inactive)
REMARK    1  A    between atoms: C_1  and  C_2
REMARK    2  A    between atoms: C_2  and  C_3
REMARK    3  A    between atoms: C_4  and  C_5
REMARK    4  A    between atoms: C_6  and  C_7
REMARK    5  A    between atoms: C_8  and  C_9
REMARK    6  A    between atoms: C_10  and  C_11
REMARK    7  A    between atoms: C_10  and  C_12
REMARK    8  A    between atoms: N_14  and  CA_15
REMARK    9  A    between atoms: CA_15  and  CB_16
REMARK   10  A    between atoms: CA_15  and  C_17
REMARK   11  A    between atoms: C_17  and  O_18
REMARK   12  A    between atoms: C_19  and  C_20
REMARK   13  A    between atoms: C_20  and  C_21
REMARK   14  A    between atoms: C_20  and  C_22
REMARK   15  A    between atoms: C_22  and  O_23
REMARK   16  A    between atoms: C_22  and  C_24
REMARK   17  A    between atoms: C_24  and  C_25
REMARK   18  A    between atoms: C_26  and  C_27
REMARK   19  A    between atoms: C_27  and  C_28
REMARK   20  A    between atoms: C_27  and  C_29
REMARK   21  A    between atoms: C_29  and  C_30
REMARK   22  A    between atoms: C_30  and  C_31
REMARK                            x       y       z     vdW  Elec       q    Type
REMARK                         _______ _______ _______ _____ _____    ______ ____
ROOT
ATOM      1  C   UNK A   0       2.394  12.436  18.178  0.00  0.00    +0.000 C 
ATOM      2  C   UNK A   0       1.312  12.737  19.174  0.00  0.00    +0.000 C 
ATOM      3  C   UNK A   0       1.011  13.977  19.599  0.00  0.00    +0.000 C 
ENDROOT
BRANCH   3   4
ATOM      4  C   UNK A   0       1.718  15.258  19.201  0.00  0.00    +0.000 C 
ATOM      5  C   UNK A   0       0.656  16.355  19.079  0.00  0.00    +0.000 C 
BRANCH   4   6
ATOM      6  C   UNK A   0       2.868  15.684  20.162  0.00  0.00    +0.000 C 
BRANCH   6   7
ATOM      7  C   UNK A   0       4.274  15.388  19.649  0.00  0.00    +0.000 C 
ATOM      8  C   UNK A   0       4.510  15.312  18.163  0.00  0.00    +0.000 C 
ATOM      9  C   UNK A   0       5.296  15.264  20.524  0.00  0.00    +0.000 C 
BRANCH   9  10
ATOM     10  C   UNK A   0       6.752  15.049  20.174  0.00  0.00    +0.000 C 
ATOM     11  C   UNK A   0       7.434  16.410  20.027  0.00  0.00    +0.000 C 
BRANCH  10  12
ATOM     12  C   UNK A   0       7.469  14.184  21.225  0.00  0.00    +0.000 C 
BRANCH  12  13
ATOM     13  C   UNK A   0       8.958  14.532  21.345  0.00  0.00    +0.000 C 
BRANCH  13  14
ATOM     14  C   UNK A   0       9.822  13.507  20.657  0.00  0.00    +0.000 A 
ATOM     15  C   UNK A   0       9.322  12.223  20.395  0.00  0.00    +0.000 A 
ATOM     16  C   UNK A   0      10.123  11.269  19.768  0.00  0.00    +0.000 A 
ATOM     17  C   UNK A   0      11.429  11.588  19.404  0.00  0.00    +0.000 A 
ATOM     18  C   UNK A   0      11.938  12.859  19.668  0.00  0.00    +0.000 A 
ATOM     19  C   UNK A   0      11.138  13.815  20.295  0.00  0.00    +0.000 A 
ENDBRANCH  13  14
ENDBRANCH  12  13
ENDBRANCH  10  12
ENDBRANCH   9  10
ENDBRANCH   6   7
BRANCH   6  20
ATOM     20  O   UNK A   0       2.696  15.160  21.476  0.00  0.00    +0.000 OA
ATOM     21  H   UNK A   0       1.771  14.891  21.576  0.00  0.00    +0.000 HD
ENDBRANCH   6  20
ENDBRANCH   4   6
ENDBRANCH   3   4
BRANCH   2  22
ATOM     22  C   UNK A   0       0.549  11.599  19.662  0.00  0.00    +0.000 C 
ATOM     23  C   UNK A   0       0.969  10.848  20.691  0.00  0.00    +0.000 C 
BRANCH  23  24
ATOM     24  C   UNK A   0       0.254   9.703  21.196  0.00  0.00    +0.000 C 
ATOM     25  C   UNK A   0       0.656   8.429  21.054  0.00  0.00    +0.000 C 
BRANCH  25  26
ATOM     26  C   UNK A   0       1.808   7.995  20.290  0.00  0.00    +0.000 C 
ATOM     27  C   UNK A   0       1.878   8.126  18.956  0.00  0.00    +0.000 C 
BRANCH  27  28
ATOM     28  C   UNK A   0       3.045   7.731  18.192  0.00  0.00    +0.000 C 
ATOM     29  C   UNK A   0       3.405   6.473  17.864  0.00  0.00    +0.000 C 
ATOM     30  C   UNK A   0       2.656   5.229  18.236  0.00  0.00    +0.000 C 
BRANCH  29  31
ATOM     31  C   UNK A   0       4.675   6.355  17.058  0.00  0.00    +0.000 C 
ATOM     32  O   UNK A   0       5.557   7.205  17.112  0.00  0.00    +0.000 OA
ATOM     33  N   ALA A   1       4.785   5.226  16.277  0.00  0.00    +0.000 N 
ATOM     34  H   ALA A   1       4.044   4.546  16.255  0.00  0.00    +0.000 HD
BRANCH  33  35
ATOM     35  CA  ALA A   1       5.944   4.949  15.421  0.00  0.00    +0.000 C 
ATOM     36  CB  ALA A   1       6.995   4.095  16.123  0.00  0.00    +0.000 C 
BRANCH  35  37
ATOM     37  C   ALA A   1       5.544   4.358  14.062  0.00  0.00    +0.000 C 
BRANCH  37  38
ATOM     38  O   ALA A   1       6.416   3.275  13.731  0.00  0.00    +0.000 OA
ATOM     39  H   ALA A   1       6.728   3.460  12.827  0.00  0.00    +0.000 HD
ENDBRANCH  37  38
ENDBRANCH  35  37
ENDBRANCH  33  35
ENDBRANCH  29  31
ENDBRANCH  27  28
ENDBRANCH  25  26
ENDBRANCH  23  24
ENDBRANCH   2  22
TORSDOF 16
ENDMDL
