MODEL 1
REMARK VINA RESULT:      -6.6      0.000      0.000
REMARK  Name = 
REMARK  6 active torsions:
REMARK  status: ('A' for Active; 'I' for Inactive)
REMARK    1  A    between atoms: C_1  and  C_2
REMARK    2  A    between atoms: C_2  and  C_3
REMARK    3  A    between atoms: C_3  and  C_4
REMARK    4  A    between atoms: C_4  and  C_5
REMARK    5  A    between atoms: C_11  and  C_12
REMARK    6  A    between atoms: C_18  and  C_19
REMARK                            x       y       z     vdW  Elec       q    Type
REMARK                         _______ _______ _______ _____ _____    ______ ____
ROOT
ATOM      1  C   UNL     1      10.753  14.947  18.839  0.00  0.00    +0.000 C 
ATOM      2  C   UNL     1      11.016  15.108  20.326  0.00  0.00    +0.000 C 
ATOM      3  C   UNL     1       9.941  14.282  21.012  0.00  0.00    +0.000 C 
ATOM      4  C   UNL     1      10.384  12.813  21.088  0.00  0.00    +0.000 C 
ATOM      5  C   UNL     1       9.226  12.018  21.722  0.00  0.00    +0.000 C 
ATOM      6  C   UNL     1       8.787  12.655  23.052  0.00  0.00    +0.000 C 
ATOM      7  C   UNL     1       8.183  14.057  22.855  0.00  0.00    +0.000 C 
ATOM      8  C   UNL     1       6.816  13.999  22.155  0.00  0.00    +0.000 C 
ATOM      9  C   UNL     1       8.009  14.831  24.155  0.00  0.00    +0.000 C 
ATOM     10  O   UNL     1       7.351  14.449  25.114  0.00  0.00    +0.000 OA
ATOM     11  C   UNL     1       8.681  16.182  24.090  0.00  0.00    +0.000 C 
ATOM     12  C   UNL     1       9.848  15.840  23.170  0.00  0.00    +0.000 C 
ATOM     13  C   UNL     1       9.149  14.993  22.107  0.00  0.00    +0.000 C 
ATOM     14  C   UNL     1      10.885  12.301  19.617  0.00  0.00    +0.000 C 
ATOM     15  C   UNL     1      12.333  11.756  19.794  0.00  0.00    +0.000 C 
ATOM     16  C   UNL     1      10.098  11.064  19.119  0.00  0.00    +0.000 C 
ATOM     17  C   UNL     1       9.050  11.145  18.285  0.00  0.00    +0.000 C 
ATOM     18  C   UNL     1       8.858  12.434  17.623  0.00  0.00    +0.000 C 
ATOM     19  O   UNL     1       7.757  12.874  17.301  0.00  0.00    +0.000 OA
ATOM     20  C   UNL     1      10.162  13.128  17.330  0.00  0.00    +0.000 C 
ATOM     21  C   UNL     1      10.812  13.431  18.485  0.00  0.00    +0.000 C 
ENDROOT
BRANCH   1  22
ATOM     22  C   UNL     1       9.358  15.588  18.394  0.00  0.00    +0.000 C 
BRANCH  22  23
ATOM     23  C   UNL     1       9.005  17.009  18.810  0.00  0.00    +0.000 C 
BRANCH  23  25
ATOM     24  C   UNL     1       6.808  15.812  19.005  0.00  0.00    +0.000 C 
ATOM     25  C   UNL     1       7.546  17.129  19.210  0.00  0.00    +0.000 C 
ENDBRANCH  23  25
ENDBRANCH  22  23
ENDBRANCH   1  22
TORSDOF 3
ENDMDL
MODEL 2
REMARK VINA RESULT:      -5.8      2.215      4.739
REMARK  Name = 
REMARK  6 active torsions:
REMARK  status: ('A' for Active; 'I' for Inactive)
REMARK    1  A    between atoms: C_1  and  C_2
REMARK    2  A    between atoms: C_2  and  C_3
REMARK    3  A    between atoms: C_3  and  C_4
REMARK    4  A    between atoms: C_4  and  C_5
REMARK    5  A    between atoms: C_11  and  C_12
REMARK    6  A    between atoms: C_18  and  C_19
REMARK                            x       y       z     vdW  Elec       q    Type
REMARK                         _______ _______ _______ _____ _____    ______ ____
ROOT
ATOM      1  C   UNL     1       9.241  12.171  17.577  0.00  0.00    +0.000 C 
ATOM      2  C   UNL     1       8.209  13.263  17.357  0.00  0.00    +0.000 C 
ATOM      3  C   UNL     1       8.297  14.150  18.588  0.00  0.00    +0.000 C 
ATOM      4  C   UNL     1       9.427  15.175  18.409  0.00  0.00    +0.000 C 
ATOM      5  C   UNL     1       9.516  15.991  19.713  0.00  0.00    +0.000 C 
ATOM      6  C   UNL     1       8.141  16.567  20.094  0.00  0.00    +0.000 C 
ATOM      7  C   UNL     1       7.123  15.467  20.438  0.00  0.00    +0.000 C 
ATOM      8  C   UNL     1       7.462  14.764  21.762  0.00  0.00    +0.000 C 
ATOM      9  C   UNL     1       5.689  15.973  20.533  0.00  0.00    +0.000 C 
ATOM     10  O   UNL     1       5.309  16.859  21.289  0.00  0.00    +0.000 OA
ATOM     11  C   UNL     1       4.763  15.189  19.636  0.00  0.00    +0.000 C 
ATOM     12  C   UNL     1       5.730  14.852  18.505  0.00  0.00    +0.000 C 
ATOM     13  C   UNL     1       6.976  14.448  19.293  0.00  0.00    +0.000 C 
ATOM     14  C   UNL     1      10.801  14.421  17.939  0.00  0.00    +0.000 C 
ATOM     15  C   UNL     1      11.263  15.100  16.617  0.00  0.00    +0.000 C 
ATOM     16  C   UNL     1      11.982  14.683  18.905  0.00  0.00    +0.000 C 
ATOM     17  C   UNL     1      12.333  13.836  19.886  0.00  0.00    +0.000 C 
ATOM     18  C   UNL     1      11.738  12.503  19.822  0.00  0.00    +0.000 C 
ATOM     19  O   UNL     1      11.484  11.826  20.816  0.00  0.00    +0.000 OA
ATOM     20  C   UNL     1      11.527  12.035  18.407  0.00  0.00    +0.000 C 
ATOM     21  C   UNL     1      10.637  12.837  17.766  0.00  0.00    +0.000 C 
ENDROOT
BRANCH   1  22
ATOM     22  C   UNL     1       8.879  11.233  18.820  0.00  0.00    +0.000 C 
BRANCH  22  23
ATOM     23  C   UNL     1       8.969   9.719  18.683  0.00  0.00    +0.000 C 
BRANCH  23  25
ATOM     24  C   UNL     1       7.856   7.656  17.788  0.00  0.00    +0.000 C 
ATOM     25  C   UNL     1       7.909   9.178  17.742  0.00  0.00    +0.000 C 
ENDBRANCH  23  25
ENDBRANCH  22  23
ENDBRANCH   1  22
TORSDOF 3
ENDMDL
MODEL 3
REMARK VINA RESULT:      -5.7      2.325      4.097
REMARK  Name = 
REMARK  6 active torsions:
REMARK  status: ('A' for Active; 'I' for Inactive)
REMARK    1  A    between atoms: C_1  and  C_2
REMARK    2  A    between atoms: C_2  and  C_3
REMARK    3  A    between atoms: C_3  and  C_4
REMARK    4  A    between atoms: C_4  and  C_5
REMARK    5  A    between atoms: C_11  and  C_12
REMARK    6  A    between atoms: C_18  and  C_19
REMARK                            x       y       z     vdW  Elec       q    Type
REMARK                         _______ _______ _______ _____ _____    ______ ____
ROOT
ATOM      1  C   UNL     1      10.212  13.540  21.194  0.00  0.00    +0.000 C 
ATOM      2  C   UNL     1       8.695  13.509  21.242  0.00  0.00    +0.000 C 
ATOM      3  C   UNL     1       8.241  14.261  20.002  0.00  0.00    +0.000 C 
ATOM      4  C   UNL     1       8.227  13.311  18.795  0.00  0.00    +0.000 C 
ATOM      5  C   UNL     1       7.834  14.146  17.561  0.00  0.00    +0.000 C 
ATOM      6  C   UNL     1       6.531  14.924  17.818  0.00  0.00    +0.000 C 
ATOM      7  C   UNL     1       6.693  15.985  18.921  0.00  0.00    +0.000 C 
ATOM      8  C   UNL     1       7.583  17.152  18.467  0.00  0.00    +0.000 C 
ATOM      9  C   UNL     1       5.370  16.566  19.404  0.00  0.00    +0.000 C 
ATOM     10  O   UNL     1       4.550  17.127  18.688  0.00  0.00    +0.000 OA
ATOM     11  C   UNL     1       5.225  16.444  20.902  0.00  0.00    +0.000 C 
ATOM     12  C   UNL     1       5.994  15.147  21.126  0.00  0.00    +0.000 C 
ATOM     13  C   UNL     1       7.214  15.368  20.232  0.00  0.00    +0.000 C 
ATOM     14  C   UNL     1       9.649  12.510  18.695  0.00  0.00    +0.000 C 
ATOM     15  C   UNL     1       9.314  10.989  18.689  0.00  0.00    +0.000 C 
ATOM     16  C   UNL     1      10.357  12.723  17.335  0.00  0.00    +0.000 C 
ATOM     17  C   UNL     1      11.322  13.635  17.142  0.00  0.00    +0.000 C 
ATOM     18  C   UNL     1      11.894  14.226  18.350  0.00  0.00    +0.000 C 
ATOM     19  O   UNL     1      12.331  15.374  18.402  0.00  0.00    +0.000 OA
ATOM     20  C   UNL     1      11.938  13.254  19.498  0.00  0.00    +0.000 C 
ATOM     21  C   UNL     1      10.681  12.885  19.861  0.00  0.00    +0.000 C 
ENDROOT
BRANCH   1  22
ATOM     22  C   UNL     1      10.796  15.021  21.343  0.00  0.00    +0.000 C 
BRANCH  22  23
ATOM     23  C   UNL     1      10.328  15.914  22.483  0.00  0.00    +0.000 C 
BRANCH  23  25
ATOM     24  C   UNL     1       8.623  17.756  22.499  0.00  0.00    +0.000 C 
ATOM     25  C   UNL     1       9.991  17.312  21.997  0.00  0.00    +0.000 C 
ENDBRANCH  23  25
ENDBRANCH  22  23
ENDBRANCH   1  22
TORSDOF 3
ENDMDL
MODEL 4
REMARK VINA RESULT:      -5.7      7.524     10.155
REMARK  Name = 
REMARK  6 active torsions:
REMARK  status: ('A' for Active; 'I' for Inactive)
REMARK    1  A    between atoms: C_1  and  C_2
REMARK    2  A    between atoms: C_2  and  C_3
REMARK    3  A    between atoms: C_3  and  C_4
REMARK    4  A    between atoms: C_4  and  C_5
REMARK    5  A    between atoms: C_11  and  C_12
REMARK    6  A    between atoms: C_18  and  C_19
REMARK                            x       y       z     vdW  Elec       q    Type
REMARK                         _______ _______ _______ _____ _____    ______ ____
ROOT
ATOM      1  C   UNL     1      -1.461  11.883  20.835  0.00  0.00    +0.000 C 
ATOM      2  C   UNL     1      -1.258  12.979  19.803  0.00  0.00    +0.000 C 
ATOM      3  C   UNL     1       0.242  13.029  19.565  0.00  0.00    +0.000 C 
ATOM      4  C   UNL     1       0.639  11.970  18.525  0.00  0.00    +0.000 C 
ATOM      5  C   UNL     1       2.173  12.019  18.384  0.00  0.00    +0.000 C 
ATOM      6  C   UNL     1       2.651  13.453  18.097  0.00  0.00    +0.000 C 
ATOM      7  C   UNL     1       2.377  14.406  19.273  0.00  0.00    +0.000 C 
ATOM      8  C   UNL     1       3.270  14.094  20.484  0.00  0.00    +0.000 C 
ATOM      9  C   UNL     1       2.564  15.876  18.920  0.00  0.00    +0.000 C 
ATOM     10  O   UNL     1       3.601  16.364  18.488  0.00  0.00    +0.000 OA
ATOM     11  C   UNL     1       1.334  16.687  19.251  0.00  0.00    +0.000 C 
ATOM     12  C   UNL     1       0.261  15.632  19.003  0.00  0.00    +0.000 C 
ATOM     13  C   UNL     1       0.889  14.409  19.669  0.00  0.00    +0.000 C 
ATOM     14  C   UNL     1       0.002  10.519  18.932  0.00  0.00    +0.000 C 
ATOM     15  C   UNL     1      -0.832  10.031  17.711  0.00  0.00    +0.000 C 
ATOM     16  C   UNL     1       1.080   9.420  19.088  0.00  0.00    +0.000 C 
ATOM     17  C   UNL     1       1.605   9.066  20.272  0.00  0.00    +0.000 C 
ATOM     18  C   UNL     1       0.901   9.556  21.455  0.00  0.00    +0.000 C 
ATOM     19  O   UNL     1       1.461   9.817  22.518  0.00  0.00    +0.000 OA
ATOM     20  C   UNL     1      -0.586   9.647  21.241  0.00  0.00    +0.000 C 
ATOM     21  C   UNL     1      -0.875  10.555  20.272  0.00  0.00    +0.000 C 
ENDROOT
BRANCH   1  22
ATOM     22  C   UNL     1      -0.806  12.248  22.247  0.00  0.00    +0.000 C 
BRANCH  22  23
ATOM     23  C   UNL     1      -1.667  12.834  23.357  0.00  0.00    +0.000 C 
BRANCH  23  25
ATOM     24  C   UNL     1      -3.943  12.865  24.414  0.00  0.00    +0.000 C 
ATOM     25  C   UNL     1      -3.017  12.146  23.441  0.00  0.00    +0.000 C 
ENDBRANCH  23  25
ENDBRANCH  22  23
ENDBRANCH   1  22
TORSDOF 3
ENDMDL
MODEL 5
REMARK VINA RESULT:      -5.7      7.290      9.899
REMARK  Name = 
REMARK  6 active torsions:
REMARK  status: ('A' for Active; 'I' for Inactive)
REMARK    1  A    between atoms: C_1  and  C_2
REMARK    2  A    between atoms: C_2  and  C_3
REMARK    3  A    between atoms: C_3  and  C_4
REMARK    4  A    between atoms: C_4  and  C_5
REMARK    5  A    between atoms: C_11  and  C_12
REMARK    6  A    between atoms: C_18  and  C_19
REMARK                            x       y       z     vdW  Elec       q    Type
REMARK                         _______ _______ _______ _____ _____    ______ ____
ROOT
ATOM      1  C   UNL     1      -1.476  11.822  20.939  0.00  0.00    +0.000 C 
ATOM      2  C   UNL     1      -1.312  12.930  19.914  0.00  0.00    +0.000 C 
ATOM      3  C   UNL     1       0.181  13.005  19.643  0.00  0.00    +0.000 C 
ATOM      4  C   UNL     1       0.570  11.962  18.585  0.00  0.00    +0.000 C 
ATOM      5  C   UNL     1       2.099  12.035  18.410  0.00  0.00    +0.000 C 
ATOM      6  C   UNL     1       2.550  13.479  18.126  0.00  0.00    +0.000 C 
ATOM      7  C   UNL     1       2.288  14.417  19.317  0.00  0.00    +0.000 C 
ATOM      8  C   UNL     1       3.213  14.107  20.505  0.00  0.00    +0.000 C 
ATOM      9  C   UNL     1       2.446  15.892  18.975  0.00  0.00    +0.000 C 
ATOM     10  O   UNL     1       3.465  16.401  18.525  0.00  0.00    +0.000 OA
ATOM     11  C   UNL     1       1.212  16.682  19.341  0.00  0.00    +0.000 C 
ATOM     12  C   UNL     1       0.149  15.614  19.106  0.00  0.00    +0.000 C 
ATOM     13  C   UNL     1       0.810  14.393  19.746  0.00  0.00    +0.000 C 
ATOM     14  C   UNL     1      -0.036  10.498  18.991  0.00  0.00    +0.000 C 
ATOM     15  C   UNL     1      -0.890  10.009  17.784  0.00  0.00    +0.000 C 
ATOM     16  C   UNL     1       1.062   9.413  19.113  0.00  0.00    +0.000 C 
ATOM     17  C   UNL     1       1.618   9.056  20.281  0.00  0.00    +0.000 C 
ATOM     18  C   UNL     1       0.933   9.524  21.484  0.00  0.00    +0.000 C 
ATOM     19  O   UNL     1       1.513   9.784  22.536  0.00  0.00    +0.000 OA
ATOM     20  C   UNL     1      -0.560   9.595  21.304  0.00  0.00    +0.000 C 
ATOM     21  C   UNL     1      -0.883  10.508  20.350  0.00  0.00    +0.000 C 
ENDROOT
BRANCH   1  22
ATOM     22  C   UNL     1      -0.796  12.183  22.340  0.00  0.00    +0.000 C 
BRANCH  22  23
ATOM     23  C   UNL     1      -1.427  13.230  23.246  0.00  0.00    +0.000 C 
BRANCH  23  25
ATOM     24  C   UNL     1      -1.559  15.612  22.468  0.00  0.00    +0.000 C 
ATOM     25  C   UNL     1      -0.700  14.560  23.157  0.00  0.00    +0.000 C 
ENDBRANCH  23  25
ENDBRANCH  22  23
ENDBRANCH   1  22
TORSDOF 3
ENDMDL
MODEL 6
REMARK VINA RESULT:      -5.5      8.873     10.845
REMARK  Name = 
REMARK  6 active torsions:
REMARK  status: ('A' for Active; 'I' for Inactive)
REMARK    1  A    between atoms: C_1  and  C_2
REMARK    2  A    between atoms: C_2  and  C_3
REMARK    3  A    between atoms: C_3  and  C_4
REMARK    4  A    between atoms: C_4  and  C_5
REMARK    5  A    between atoms: C_11  and  C_12
REMARK    6  A    between atoms: C_18  and  C_19
REMARK                            x       y       z     vdW  Elec       q    Type
REMARK                         _______ _______ _______ _____ _____    ______ ____
ROOT
ATOM      1  C   UNL     1       4.726   7.373  18.296  0.00  0.00    +0.000 C 
ATOM      2  C   UNL     1       4.159   6.601  19.474  0.00  0.00    +0.000 C 
ATOM      3  C   UNL     1       3.990   5.176  18.973  0.00  0.00    +0.000 C 
ATOM      4  C   UNL     1       5.319   4.418  19.110  0.00  0.00    +0.000 C 
ATOM      5  C   UNL     1       5.105   3.011  18.518  0.00  0.00    +0.000 C 
ATOM      6  C   UNL     1       3.877   2.332  19.149  0.00  0.00    +0.000 C 
ATOM      7  C   UNL     1       2.566   3.060  18.803  0.00  0.00    +0.000 C 
ATOM      8  C   UNL     1       2.194   2.898  17.321  0.00  0.00    +0.000 C 
ATOM      9  C   UNL     1       1.377   2.599  19.636  0.00  0.00    +0.000 C 
ATOM     10  O   UNL     1       0.970   1.446  19.695  0.00  0.00    +0.000 OA
ATOM     11  C   UNL     1       0.697   3.760  20.321  0.00  0.00    +0.000 C 
ATOM     12  C   UNL     1       1.905   4.664  20.548  0.00  0.00    +0.000 C 
ATOM     13  C   UNL     1       2.618   4.546  19.201  0.00  0.00    +0.000 C 
ATOM     14  C   UNL     1       6.536   5.294  18.455  0.00  0.00    +0.000 C 
ATOM     15  C   UNL     1       7.616   5.468  19.562  0.00  0.00    +0.000 C 
ATOM     16  C   UNL     1       7.288   4.526  17.341  0.00  0.00    +0.000 C 
ATOM     17  C   UNL     1       7.020   4.675  16.034  0.00  0.00    +0.000 C 
ATOM     18  C   UNL     1       6.184   5.820  15.679  0.00  0.00    +0.000 C 
ATOM     19  O   UNL     1       5.415   5.827  14.722  0.00  0.00    +0.000 OA
ATOM     20  C   UNL     1       6.418   7.002  16.582  0.00  0.00    +0.000 C 
ATOM     21  C   UNL     1       6.064   6.704  17.860  0.00  0.00    +0.000 C 
ENDROOT
BRANCH   1  22
ATOM     22  C   UNL     1       3.701   7.459  17.072  0.00  0.00    +0.000 C 
BRANCH  22  23
ATOM     23  C   UNL     1       2.247   7.831  17.322  0.00  0.00    +0.000 C 
BRANCH  23  25
ATOM     24  C   UNL     1       1.253   9.276  19.117  0.00  0.00    +0.000 C 
ATOM     25  C   UNL     1       2.114   9.243  17.861  0.00  0.00    +0.000 C 
ENDBRANCH  23  25
ENDBRANCH  22  23
ENDBRANCH   1  22
TORSDOF 3
ENDMDL
MODEL 7
REMARK VINA RESULT:      -5.3      2.460      5.383
REMARK  Name = 
REMARK  6 active torsions:
REMARK  status: ('A' for Active; 'I' for Inactive)
REMARK    1  A    between atoms: C_1  and  C_2
REMARK    2  A    between atoms: C_2  and  C_3
REMARK    3  A    between atoms: C_3  and  C_4
REMARK    4  A    between atoms: C_4  and  C_5
REMARK    5  A    between atoms: C_11  and  C_12
REMARK    6  A    between atoms: C_18  and  C_19
REMARK                            x       y       z     vdW  Elec       q    Type
REMARK                         _______ _______ _______ _____ _____    ______ ____
ROOT
ATOM      1  C   UNL     1       9.433  13.489  18.642  0.00  0.00    +0.000 C 
ATOM      2  C   UNL     1       8.206  13.918  17.857  0.00  0.00    +0.000 C 
ATOM      3  C   UNL     1       7.578  15.033  18.675  0.00  0.00    +0.000 C 
ATOM      4  C   UNL     1       8.262  16.368  18.345  0.00  0.00    +0.000 C 
ATOM      5  C   UNL     1       7.636  17.441  19.257  0.00  0.00    +0.000 C 
ATOM      6  C   UNL     1       6.102  17.427  19.146  0.00  0.00    +0.000 C 
ATOM      7  C   UNL     1       5.490  16.118  19.674  0.00  0.00    +0.000 C 
ATOM      8  C   UNL     1       5.620  16.000  21.201  0.00  0.00    +0.000 C 
ATOM      9  C   UNL     1       4.019  15.946  19.316  0.00  0.00    +0.000 C 
ATOM     10  O   UNL     1       3.130  16.733  19.617  0.00  0.00    +0.000 OA
ATOM     11  C   UNL     1       3.769  14.634  18.613  0.00  0.00    +0.000 C 
ATOM     12  C   UNL     1       5.097  14.484  17.878  0.00  0.00    +0.000 C 
ATOM     13  C   UNL     1       6.087  14.886  18.971  0.00  0.00    +0.000 C 
ATOM     14  C   UNL     1       9.887  16.205  18.440  0.00  0.00    +0.000 C 
ATOM     15  C   UNL     1      10.469  16.657  17.068  0.00  0.00    +0.000 C 
ATOM     16  C   UNL     1      10.526  17.197  19.442  0.00  0.00    +0.000 C 
ATOM     17  C   UNL     1      10.826  16.872  20.709  0.00  0.00    +0.000 C 
ATOM     18  C   UNL     1      10.798  15.446  21.027  0.00  0.00    +0.000 C 
ATOM     19  O   UNL     1      10.503  15.004  22.135  0.00  0.00    +0.000 OA
ATOM     20  C   UNL     1      11.229  14.591  19.865  0.00  0.00    +0.000 C 
ATOM     21  C   UNL     1      10.362  14.726  18.827  0.00  0.00    +0.000 C 
ENDROOT
BRANCH   1  22
ATOM     22  C   UNL     1       9.057  12.837  20.052  0.00  0.00    +0.000 C 
BRANCH  22  23
ATOM     23  C   UNL     1       9.395  11.380  20.333  0.00  0.00    +0.000 C 
BRANCH  23  25
ATOM     24  C   UNL     1       8.724   9.796  18.506  0.00  0.00    +0.000 C 
ATOM     25  C   UNL     1       9.843  10.657  19.075  0.00  0.00    +0.000 C 
ENDBRANCH  23  25
ENDBRANCH  22  23
ENDBRANCH   1  22
TORSDOF 3
ENDMDL
MODEL 8
REMARK VINA RESULT:      -5.2     12.114     14.934
REMARK  Name = 
REMARK  6 active torsions:
REMARK  status: ('A' for Active; 'I' for Inactive)
REMARK    1  A    between atoms: C_1  and  C_2
REMARK    2  A    between atoms: C_2  and  C_3
REMARK    3  A    between atoms: C_3  and  C_4
REMARK    4  A    between atoms: C_4  and  C_5
REMARK    5  A    between atoms: C_11  and  C_12
REMARK    6  A    between atoms: C_18  and  C_19
REMARK                            x       y       z     vdW  Elec       q    Type
REMARK                         _______ _______ _______ _____ _____    ______ ____
ROOT
ATOM      1  C   UNL     1      -6.865  13.008  22.125  0.00  0.00    +0.000 C 
ATOM      2  C   UNL     1      -5.665  12.955  23.055  0.00  0.00    +0.000 C 
ATOM      3  C   UNL     1      -4.488  13.421  22.215  0.00  0.00    +0.000 C 
ATOM      4  C   UNL     1      -4.427  14.957  22.215  0.00  0.00    +0.000 C 
ATOM      5  C   UNL     1      -3.265  15.367  21.289  0.00  0.00    +0.000 C 
ATOM      6  C   UNL     1      -1.966  14.644  21.685  0.00  0.00    +0.000 C 
ATOM      7  C   UNL     1      -2.059  13.122  21.476  0.00  0.00    +0.000 C 
ATOM      8  C   UNL     1      -2.095  12.749  19.986  0.00  0.00    +0.000 C 
ATOM      9  C   UNL     1      -0.918  12.349  22.123  0.00  0.00    +0.000 C 
ATOM     10  O   UNL     1       0.271  12.524  21.883  0.00  0.00    +0.000 OA
ATOM     11  C   UNL     1      -1.431  11.268  23.044  0.00  0.00    +0.000 C 
ATOM     12  C   UNL     1      -2.711  11.939  23.532  0.00  0.00    +0.000 C 
ATOM     13  C   UNL     1      -3.258  12.516  22.227  0.00  0.00    +0.000 C 
ATOM     14  C   UNL     1      -5.894  15.577  21.843  0.00  0.00    +0.000 C 
ATOM     15  C   UNL     1      -6.286  16.541  23.001  0.00  0.00    +0.000 C 
ATOM     16  C   UNL     1      -5.849  16.507  20.606  0.00  0.00    +0.000 C 
ATOM     17  C   UNL     1      -6.159  16.097  19.366  0.00  0.00    +0.000 C 
ATOM     18  C   UNL     1      -6.831  14.803  19.269  0.00  0.00    +0.000 C 
ATOM     19  O   UNL     1      -6.703  14.043  18.312  0.00  0.00    +0.000 OA
ATOM     20  C   UNL     1      -7.736  14.538  20.442  0.00  0.00    +0.000 C 
ATOM     21  C   UNL     1      -7.018  14.464  21.593  0.00  0.00    +0.000 C 
ENDROOT
BRANCH   1  22
ATOM     22  C   UNL     1      -6.748  11.965  20.920  0.00  0.00    +0.000 C 
BRANCH  22  23
ATOM     23  C   UNL     1      -7.636  10.729  20.892  0.00  0.00    +0.000 C 
BRANCH  23  25
ATOM     24  C   UNL     1      -6.604  10.503  18.616  0.00  0.00    +0.000 C 
ATOM     25  C   UNL     1      -7.220   9.764  19.797  0.00  0.00    +0.000 C 
ENDBRANCH  23  25
ENDBRANCH  22  23
ENDBRANCH   1  22
TORSDOF 3
ENDMDL
MODEL 9
REMARK VINA RESULT:      -5.2      1.779      5.383
REMARK  Name = 
REMARK  6 active torsions:
REMARK  status: ('A' for Active; 'I' for Inactive)
REMARK    1  A    between atoms: C_1  and  C_2
REMARK    2  A    between atoms: C_2  and  C_3
REMARK    3  A    between atoms: C_3  and  C_4
REMARK    4  A    between atoms: C_4  and  C_5
REMARK    5  A    between atoms: C_11  and  C_12
REMARK    6  A    between atoms: C_18  and  C_19
REMARK                            x       y       z     vdW  Elec       q    Type
REMARK                         _______ _______ _______ _____ _____    ______ ____
ROOT
ATOM      1  C   UNL     1       7.000  16.090  20.408  0.00  0.00    +0.000 C 
ATOM      2  C   UNL     1       7.155  14.790  19.639  0.00  0.00    +0.000 C 
ATOM      3  C   UNL     1       8.462  14.190  20.131  0.00  0.00    +0.000 C 
ATOM      4  C   UNL     1       8.216  13.401  21.426  0.00  0.00    +0.000 C 
ATOM      5  C   UNL     1       9.583  12.883  21.913  0.00  0.00    +0.000 C 
ATOM      6  C   UNL     1      10.312  12.122  20.792  0.00  0.00    +0.000 C 
ATOM      7  C   UNL     1      10.684  13.037  19.613  0.00  0.00    +0.000 C 
ATOM      8  C   UNL     1      11.794  14.033  19.987  0.00  0.00    +0.000 C 
ATOM      9  C   UNL     1      11.138  12.277  18.373  0.00  0.00    +0.000 C 
ATOM     10  O   UNL     1      12.078  11.493  18.339  0.00  0.00    +0.000 OA
ATOM     11  C   UNL     1      10.337  12.672  17.156  0.00  0.00    +0.000 C 
ATOM     12  C   UNL     1       8.999  12.977  17.821  0.00  0.00    +0.000 C 
ATOM     13  C   UNL     1       9.453  13.768  19.048  0.00  0.00    +0.000 C 
ATOM     14  C   UNL     1       7.375  14.316  22.489  0.00  0.00    +0.000 C 
ATOM     15  C   UNL     1       6.103  13.506  22.878  0.00  0.00    +0.000 C 
ATOM     16  C   UNL     1       8.113  14.488  23.839  0.00  0.00    +0.000 C 
ATOM     17  C   UNL     1       8.867  15.558  24.135  0.00  0.00    +0.000 C 
ATOM     18  C   UNL     1       8.725  16.706  23.241  0.00  0.00    +0.000 C 
ATOM     19  O   UNL     1       9.637  17.494  22.999  0.00  0.00    +0.000 OA
ATOM     20  C   UNL     1       7.327  16.844  22.701  0.00  0.00    +0.000 C 
ATOM     21  C   UNL     1       7.004  15.771  21.932  0.00  0.00    +0.000 C 
ENDROOT
BRANCH   1  22
ATOM     22  C   UNL     1       8.135  17.154  20.040  0.00  0.00    +0.000 C 
BRANCH  22  23
ATOM     23  C   UNL     1       8.525  17.382  18.587  0.00  0.00    +0.000 C 
BRANCH  23  25
ATOM     24  C   UNL     1      10.365  16.691  17.027  0.00  0.00    +0.000 C 
ATOM     25  C   UNL     1      10.027  17.284  18.388  0.00  0.00    +0.000 C 
ENDBRANCH  23  25
ENDBRANCH  22  23
ENDBRANCH   1  22
TORSDOF 3
ENDMDL
