MODEL 1
REMARK VINA RESULT:      -6.3      0.000      0.000
REMARK  Name = 
REMARK  7 active torsions:
REMARK  status: ('A' for Active; 'I' for Inactive)
REMARK    1  A    between atoms: C_1  and  C_2
REMARK    2  A    between atoms: C_2  and  N_3
REMARK    3  A    between atoms: N_3  and  C_4
REMARK    4  A    between atoms: C_4  and  C_5
REMARK    5  A    between atoms: C_6  and  C_8
REMARK    6  A    between atoms: C_8  and  N_9
REMARK    7  A    between atoms: N_12  and  C_13
REMARK                            x       y       z     vdW  Elec       q    Type
REMARK                         _______ _______ _______ _____ _____    ______ ____
ROOT
ATOM      1  N   UNL     1      -0.371  10.757  20.429  0.00  0.00    +0.000 N 
ATOM      2  C   UNL     1      -0.816  11.474  21.558  0.00  0.00    +0.000 A 
ATOM      3  O   UNL     1      -0.122  11.497  22.580  0.00  0.00    +0.000 OA
ATOM      4  N   UNL     1      -2.016  12.212  21.433  0.00  0.00    +0.000 N 
ATOM      5  C   UNL     1      -2.812  12.284  20.280  0.00  0.00    +0.000 A 
ATOM      6  O   UNL     1      -3.853  12.929  20.162  0.00  0.00    +0.000 OA
ATOM      7  C   UNL     1      -2.333  11.487  19.181  0.00  0.00    +0.000 A 
ATOM      8  C   UNL     1      -2.899  11.300  17.903  0.00  0.00    +0.000 A 
ATOM      9  C   UNL     1      -2.140  10.473  17.121  0.00  0.00    +0.000 A 
ATOM     10  S   UNL     1      -0.769   9.893  17.885  0.00  0.00    +0.000 S 
ATOM     11  C   UNL     1      -1.169  10.771  19.299  0.00  0.00    +0.000 A 
ATOM     12  C   UNL     1      -2.700  10.259  15.766  0.00  0.00    +0.000 C 
ATOM     13  C   UNL     1      -4.152  10.802  15.961  0.00  0.00    +0.000 C 
ATOM     14  C   UNL     1      -4.108  11.770  17.185  0.00  0.00    +0.000 C 
ENDROOT
BRANCH   4  15
ATOM     15  C   UNL     1      -2.463  12.968  22.568  0.00  0.00    +0.000 A 
ATOM     16  C   UNL     1      -3.354  12.401  23.492  0.00  0.00    +0.000 A 
ATOM     17  C   UNL     1      -3.779  13.128  24.605  0.00  0.00    +0.000 A 
ATOM     18  C   UNL     1      -3.293  14.415  24.821  0.00  0.00    +0.000 A 
ATOM     19  C   UNL     1      -2.393  14.982  23.919  0.00  0.00    +0.000 A 
ATOM     20  C   UNL     1      -1.990  14.267  22.787  0.00  0.00    +0.000 A 
ENDBRANCH   4  15
BRANCH   1  21
ATOM     21  C   UNL     1       0.896  10.028  20.557  0.00  0.00    +0.000 C 
BRANCH  21  23
ATOM     22  N   UNL     1       1.554   7.613  20.374  0.00  0.00    +0.000 N 
ATOM     23  C   UNL     1       0.698   8.556  20.968  0.00  0.00    +0.000 C 
ATOM     24  O   UNL     1      -0.166   8.229  21.786  0.00  0.00    +0.000 OA
BRANCH  22  26
ATOM     25  C   UNL     1       2.046   5.210  19.902  0.00  0.00    +0.000 C 
ATOM     26  C   UNL     1       1.473   6.234  20.872  0.00  0.00    +0.000 C 
ENDBRANCH  22  26
BRANCH  22  27
ATOM     27  C   UNL     1       2.545   7.998  19.362  0.00  0.00    +0.000 C 
ATOM     28  C   UNL     1       2.149   7.948  17.895  0.00  0.00    +0.000 C 
ENDBRANCH  22  27
ENDBRANCH  21  23
ENDBRANCH   1  21
TORSDOF 5
ENDMDL
MODEL 2
REMARK VINA RESULT:      -6.2      8.363     11.027
REMARK  Name = 
REMARK  7 active torsions:
REMARK  status: ('A' for Active; 'I' for Inactive)
REMARK    1  A    between atoms: C_1  and  C_2
REMARK    2  A    between atoms: C_2  and  N_3
REMARK    3  A    between atoms: N_3  and  C_4
REMARK    4  A    between atoms: C_4  and  C_5
REMARK    5  A    between atoms: C_6  and  C_8
REMARK    6  A    between atoms: C_8  and  N_9
REMARK    7  A    between atoms: N_12  and  C_13
REMARK                            x       y       z     vdW  Elec       q    Type
REMARK                         _______ _______ _______ _____ _____    ______ ____
ROOT
ATOM      1  N   UNL     1       7.394  14.905  20.266  0.00  0.00    +0.000 N 
ATOM      2  C   UNL     1       7.092  14.420  21.554  0.00  0.00    +0.000 A 
ATOM      3  O   UNL     1       6.170  14.930  22.199  0.00  0.00    +0.000 OA
ATOM      4  N   UNL     1       7.820  13.299  22.018  0.00  0.00    +0.000 N 
ATOM      5  C   UNL     1       8.829  12.631  21.308  0.00  0.00    +0.000 A 
ATOM      6  O   UNL     1       9.461  11.653  21.702  0.00  0.00    +0.000 OA
ATOM      7  C   UNL     1       9.126  13.208  20.022  0.00  0.00    +0.000 A 
ATOM      8  C   UNL     1      10.095  12.819  19.074  0.00  0.00    +0.000 A 
ATOM      9  C   UNL     1      10.069  13.610  17.959  0.00  0.00    +0.000 A 
ATOM     10  S   UNL     1       8.923  14.828  18.022  0.00  0.00    +0.000 S 
ATOM     11  C   UNL     1       8.421  14.294  19.570  0.00  0.00    +0.000 A 
ATOM     12  C   UNL     1      11.069  13.225  16.935  0.00  0.00    +0.000 C 
ATOM     13  C   UNL     1      11.990  12.278  17.768  0.00  0.00    +0.000 C 
ATOM     14  C   UNL     1      11.138  11.770  18.973  0.00  0.00    +0.000 C 
ENDROOT
BRANCH   4  15
ATOM     15  C   UNL     1       7.501  12.781  23.318  0.00  0.00    +0.000 A 
ATOM     16  C   UNL     1       8.209  13.217  24.448  0.00  0.00    +0.000 A 
ATOM     17  C   UNL     1       7.891  12.726  25.716  0.00  0.00    +0.000 A 
ATOM     18  C   UNL     1       6.846  11.820  25.869  0.00  0.00    +0.000 A 
ATOM     19  C   UNL     1       6.124  11.393  24.754  0.00  0.00    +0.000 A 
ATOM     20  C   UNL     1       6.460  11.860  23.480  0.00  0.00    +0.000 A 
ENDBRANCH   4  15
BRANCH   1  21
ATOM     21  C   UNL     1       6.605  16.041  19.778  0.00  0.00    +0.000 C 
BRANCH  21  23
ATOM     22  N   UNL     1       4.144  16.290  19.346  0.00  0.00    +0.000 N 
ATOM     23  C   UNL     1       5.330  15.604  19.030  0.00  0.00    +0.000 C 
ATOM     24  O   UNL     1       5.356  14.700  18.190  0.00  0.00    +0.000 OA
BRANCH  22  26
ATOM     25  C   UNL     1       2.757  16.953  17.378  0.00  0.00    +0.000 C 
ATOM     26  C   UNL     1       2.961  15.983  18.533  0.00  0.00    +0.000 C 
ENDBRANCH  22  26
BRANCH  22  27
ATOM     27  C   UNL     1       4.106  17.327  20.383  0.00  0.00    +0.000 C 
ATOM     28  C   UNL     1       3.171  17.142  21.568  0.00  0.00    +0.000 C 
ENDBRANCH  22  27
ENDBRANCH  21  23
ENDBRANCH   1  21
TORSDOF 5
ENDMDL
MODEL 3
REMARK VINA RESULT:      -6.2      3.803      7.282
REMARK  Name = 
REMARK  7 active torsions:
REMARK  status: ('A' for Active; 'I' for Inactive)
REMARK    1  A    between atoms: C_1  and  C_2
REMARK    2  A    between atoms: C_2  and  N_3
REMARK    3  A    between atoms: N_3  and  C_4
REMARK    4  A    between atoms: C_4  and  C_5
REMARK    5  A    between atoms: C_6  and  C_8
REMARK    6  A    between atoms: C_8  and  N_9
REMARK    7  A    between atoms: N_12  and  C_13
REMARK                            x       y       z     vdW  Elec       q    Type
REMARK                         _______ _______ _______ _____ _____    ______ ____
ROOT
ATOM      1  N   UNL     1       3.244   7.080  17.813  0.00  0.00    +0.000 N 
ATOM      2  C   UNL     1       2.569   8.262  18.180  0.00  0.00    +0.000 A 
ATOM      3  O   UNL     1       2.672   9.270  17.473  0.00  0.00    +0.000 OA
ATOM      4  N   UNL     1       1.727   8.207  19.315  0.00  0.00    +0.000 N 
ATOM      5  C   UNL     1       1.512   7.077  20.118  0.00  0.00    +0.000 A 
ATOM      6  O   UNL     1       0.776   7.021  21.101  0.00  0.00    +0.000 OA
ATOM      7  C   UNL     1       2.271   5.919  19.722  0.00  0.00    +0.000 A 
ATOM      8  C   UNL     1       2.326   4.642  20.318  0.00  0.00    +0.000 A 
ATOM      9  C   UNL     1       3.160   3.795  19.643  0.00  0.00    +0.000 A 
ATOM     10  S   UNL     1       3.901   4.493  18.316  0.00  0.00    +0.000 S 
ATOM     11  C   UNL     1       3.088   5.969  18.621  0.00  0.00    +0.000 A 
ATOM     12  C   UNL     1       3.235   2.439  20.237  0.00  0.00    +0.000 C 
ATOM     13  C   UNL     1       2.587   2.696  21.634  0.00  0.00    +0.000 C 
ATOM     14  C   UNL     1       1.710   3.980  21.493  0.00  0.00    +0.000 C 
ENDROOT
BRANCH   4  15
ATOM     15  C   UNL     1       1.013   9.397  19.682  0.00  0.00    +0.000 A 
ATOM     16  C   UNL     1       0.027   9.922  18.833  0.00  0.00    +0.000 A 
ATOM     17  C   UNL     1      -0.680  11.071  19.192  0.00  0.00    +0.000 A 
ATOM     18  C   UNL     1      -0.430  11.686  20.415  0.00  0.00    +0.000 A 
ATOM     19  C   UNL     1       0.536  11.163  21.275  0.00  0.00    +0.000 A 
ATOM     20  C   UNL     1       1.267  10.031  20.903  0.00  0.00    +0.000 A 
ENDBRANCH   4  15
BRANCH   1  21
ATOM     21  C   UNL     1       4.083   7.136  16.610  0.00  0.00    +0.000 C 
BRANCH  21  23
ATOM     22  N   UNL     1       6.050   5.671  16.078  0.00  0.00    +0.000 N 
ATOM     23  C   UNL     1       5.538   6.708  16.878  0.00  0.00    +0.000 C 
ATOM     24  O   UNL     1       6.220   7.256  17.748  0.00  0.00    +0.000 OA
BRANCH  22  26
ATOM     25  C   UNL     1       7.782   4.486  17.432  0.00  0.00    +0.000 C 
ATOM     26  C   UNL     1       7.477   5.360  16.223  0.00  0.00    +0.000 C 
ENDBRANCH  22  26
BRANCH  22  27
ATOM     27  C   UNL     1       5.221   4.984  15.080  0.00  0.00    +0.000 C 
ATOM     28  C   UNL     1       5.901   4.094  14.052  0.00  0.00    +0.000 C 
ENDBRANCH  22  27
ENDBRANCH  21  23
ENDBRANCH   1  21
TORSDOF 5
ENDMDL
MODEL 4
REMARK VINA RESULT:      -6.1      8.204     10.829
REMARK  Name = 
REMARK  7 active torsions:
REMARK  status: ('A' for Active; 'I' for Inactive)
REMARK    1  A    between atoms: C_1  and  C_2
REMARK    2  A    between atoms: C_2  and  N_3
REMARK    3  A    between atoms: N_3  and  C_4
REMARK    4  A    between atoms: C_4  and  C_5
REMARK    5  A    between atoms: C_6  and  C_8
REMARK    6  A    between atoms: C_8  and  N_9
REMARK    7  A    between atoms: N_12  and  C_13
REMARK                            x       y       z     vdW  Elec       q    Type
REMARK                         _______ _______ _______ _____ _____    ______ ____
ROOT
ATOM      1  N   UNL     1       7.277  14.844  20.324  0.00  0.00    +0.000 N 
ATOM      2  C   UNL     1       6.990  14.383  21.625  0.00  0.00    +0.000 A 
ATOM      3  O   UNL     1       6.066  14.895  22.266  0.00  0.00    +0.000 OA
ATOM      4  N   UNL     1       7.737  13.282  22.107  0.00  0.00    +0.000 N 
ATOM      5  C   UNL     1       8.749  12.612  21.404  0.00  0.00    +0.000 A 
ATOM      6  O   UNL     1       9.395  11.650  21.815  0.00  0.00    +0.000 OA
ATOM      7  C   UNL     1       9.029  13.165  20.104  0.00  0.00    +0.000 A 
ATOM      8  C   UNL     1       9.996  12.768  19.157  0.00  0.00    +0.000 A 
ATOM      9  C   UNL     1       9.951  13.535  18.026  0.00  0.00    +0.000 A 
ATOM     10  S   UNL     1       8.791  14.739  18.071  0.00  0.00    +0.000 S 
ATOM     11  C   UNL     1       8.307  14.232  19.634  0.00  0.00    +0.000 A 
ATOM     12  C   UNL     1      10.948  13.141  17.003  0.00  0.00    +0.000 C 
ATOM     13  C   UNL     1      11.888  12.223  17.849  0.00  0.00    +0.000 C 
ATOM     14  C   UNL     1      11.051  11.731  19.071  0.00  0.00    +0.000 C 
ENDROOT
BRANCH   4  15
ATOM     15  C   UNL     1       7.434  12.788  23.420  0.00  0.00    +0.000 A 
ATOM     16  C   UNL     1       6.422  11.833  23.602  0.00  0.00    +0.000 A 
ATOM     17  C   UNL     1       6.134  11.339  24.875  0.00  0.00    +0.000 A 
ATOM     18  C   UNL     1       6.875  11.769  25.972  0.00  0.00    +0.000 A 
ATOM     19  C   UNL     1       7.895  12.705  25.800  0.00  0.00    +0.000 A 
ATOM     20  C   UNL     1       8.165  13.225  24.531  0.00  0.00    +0.000 A 
ENDBRANCH   4  15
BRANCH   1  21
ATOM     21  C   UNL     1       6.469  15.960  19.818  0.00  0.00    +0.000 C 
BRANCH  21  23
ATOM     22  N   UNL     1       3.986  16.026  19.459  0.00  0.00    +0.000 N 
ATOM     23  C   UNL     1       5.220  15.490  19.049  0.00  0.00    +0.000 C 
ATOM     24  O   UNL     1       5.304  14.688  18.115  0.00  0.00    +0.000 OA
BRANCH  22  26
ATOM     25  C   UNL     1       1.935  14.617  19.246  0.00  0.00    +0.000 C 
ATOM     26  C   UNL     1       2.813  15.700  18.637  0.00  0.00    +0.000 C 
ENDBRANCH  22  26
BRANCH  22  27
ATOM     27  C   UNL     1       3.882  16.938  20.603  0.00  0.00    +0.000 C 
ATOM     28  C   UNL     1       2.805  18.011  20.587  0.00  0.00    +0.000 C 
ENDBRANCH  22  27
ENDBRANCH  21  23
ENDBRANCH   1  21
TORSDOF 5
ENDMDL
MODEL 5
REMARK VINA RESULT:      -6.0      3.393      5.920
REMARK  Name = 
REMARK  7 active torsions:
REMARK  status: ('A' for Active; 'I' for Inactive)
REMARK    1  A    between atoms: C_1  and  C_2
REMARK    2  A    between atoms: C_2  and  N_3
REMARK    3  A    between atoms: N_3  and  C_4
REMARK    4  A    between atoms: C_4  and  C_5
REMARK    5  A    between atoms: C_6  and  C_8
REMARK    6  A    between atoms: C_8  and  N_9
REMARK    7  A    between atoms: N_12  and  C_13
REMARK                            x       y       z     vdW  Elec       q    Type
REMARK                         _______ _______ _______ _____ _____    ______ ____
ROOT
ATOM      1  N   UNL     1      -0.395  13.258  19.904  0.00  0.00    +0.000 N 
ATOM      2  C   UNL     1      -0.994  13.895  21.009  0.00  0.00    +0.000 A 
ATOM      3  O   UNL     1      -1.409  15.053  20.896  0.00  0.00    +0.000 OA
ATOM      4  N   UNL     1      -1.168  13.133  22.188  0.00  0.00    +0.000 N 
ATOM      5  C   UNL     1      -0.784  11.794  22.358  0.00  0.00    +0.000 A 
ATOM      6  O   UNL     1      -0.939  11.124  23.377  0.00  0.00    +0.000 OA
ATOM      7  C   UNL     1      -0.130  11.218  21.211  0.00  0.00    +0.000 A 
ATOM      8  C   UNL     1       0.411   9.926  21.050  0.00  0.00    +0.000 A 
ATOM      9  C   UNL     1       0.945   9.744  19.804  0.00  0.00    +0.000 A 
ATOM     10  S   UNL     1       0.835  11.092  18.820  0.00  0.00    +0.000 S 
ATOM     11  C   UNL     1       0.039  11.955  20.066  0.00  0.00    +0.000 A 
ATOM     12  C   UNL     1       1.516   8.393  19.595  0.00  0.00    +0.000 C 
ATOM     13  C   UNL     1       1.585   7.874  21.066  0.00  0.00    +0.000 C 
ATOM     14  C   UNL     1       0.551   8.709  21.885  0.00  0.00    +0.000 C 
ENDROOT
BRANCH   4  15
ATOM     15  C   UNL     1      -1.802  13.764  23.310  0.00  0.00    +0.000 A 
ATOM     16  C   UNL     1      -1.073  14.622  24.147  0.00  0.00    +0.000 A 
ATOM     17  C   UNL     1      -1.690  15.249  25.231  0.00  0.00    +0.000 A 
ATOM     18  C   UNL     1      -3.047  15.050  25.468  0.00  0.00    +0.000 A 
ATOM     19  C   UNL     1      -3.786  14.213  24.632  0.00  0.00    +0.000 A 
ATOM     20  C   UNL     1      -3.163  13.559  23.565  0.00  0.00    +0.000 A 
ENDBRANCH   4  15
BRANCH   1  21
ATOM     21  C   UNL     1      -0.257  14.045  18.673  0.00  0.00    +0.000 C 
BRANCH  21  23
ATOM     22  N   UNL     1       0.868  16.269  18.376  0.00  0.00    +0.000 N 
ATOM     23  C   UNL     1       1.025  14.899  18.653  0.00  0.00    +0.000 C 
ATOM     24  O   UNL     1       2.132  14.403  18.879  0.00  0.00    +0.000 OA
BRANCH  22  26
ATOM     25  C   UNL     1       2.893  17.177  17.230  0.00  0.00    +0.000 C 
ATOM     26  C   UNL     1       2.061  17.115  18.503  0.00  0.00    +0.000 C 
ENDBRANCH  22  26
BRANCH  22  27
ATOM     27  C   UNL     1      -0.443  16.847  18.056  0.00  0.00    +0.000 C 
ATOM     28  C   UNL     1      -0.513  18.302  17.620  0.00  0.00    +0.000 C 
ENDBRANCH  22  27
ENDBRANCH  21  23
ENDBRANCH   1  21
TORSDOF 5
ENDMDL
MODEL 6
REMARK VINA RESULT:      -6.0      8.215     10.425
REMARK  Name = 
REMARK  7 active torsions:
REMARK  status: ('A' for Active; 'I' for Inactive)
REMARK    1  A    between atoms: C_1  and  C_2
REMARK    2  A    between atoms: C_2  and  N_3
REMARK    3  A    between atoms: N_3  and  C_4
REMARK    4  A    between atoms: C_4  and  C_5
REMARK    5  A    between atoms: C_6  and  C_8
REMARK    6  A    between atoms: C_8  and  N_9
REMARK    7  A    between atoms: N_12  and  C_13
REMARK                            x       y       z     vdW  Elec       q    Type
REMARK                         _______ _______ _______ _____ _____    ______ ____
ROOT
ATOM      1  N   UNL     1       6.710  14.656  21.415  0.00  0.00    +0.000 N 
ATOM      2  C   UNL     1       7.873  14.235  20.738  0.00  0.00    +0.000 A 
ATOM      3  O   UNL     1       8.836  13.811  21.383  0.00  0.00    +0.000 OA
ATOM      4  N   UNL     1       7.844  14.244  19.323  0.00  0.00    +0.000 N 
ATOM      5  C   UNL     1       6.758  14.647  18.531  0.00  0.00    +0.000 A 
ATOM      6  O   UNL     1       6.725  14.650  17.303  0.00  0.00    +0.000 OA
ATOM      7  C   UNL     1       5.622  15.116  19.283  0.00  0.00    +0.000 A 
ATOM      8  C   UNL     1       4.392  15.623  18.815  0.00  0.00    +0.000 A 
ATOM      9  C   UNL     1       3.552  15.958  19.840  0.00  0.00    +0.000 A 
ATOM     10  S   UNL     1       4.203  15.700  21.359  0.00  0.00    +0.000 S 
ATOM     11  C   UNL     1       5.647  15.107  20.654  0.00  0.00    +0.000 A 
ATOM     12  C   UNL     1       2.244  16.487  19.385  0.00  0.00    +0.000 C 
ATOM     13  C   UNL     1       2.555  16.781  17.883  0.00  0.00    +0.000 C 
ATOM     14  C   UNL     1       3.774  15.887  17.494  0.00  0.00    +0.000 C 
ENDROOT
BRANCH   4  15
ATOM     15  C   UNL     1       9.013  13.792  18.624  0.00  0.00    +0.000 A 
ATOM     16  C   UNL     1       9.197  12.426  18.359  0.00  0.00    +0.000 A 
ATOM     17  C   UNL     1      10.325  11.984  17.667  0.00  0.00    +0.000 A 
ATOM     18  C   UNL     1      11.262  12.903  17.206  0.00  0.00    +0.000 A 
ATOM     19  C   UNL     1      11.081  14.265  17.448  0.00  0.00    +0.000 A 
ATOM     20  C   UNL     1       9.968  14.708  18.168  0.00  0.00    +0.000 A 
ENDBRANCH   4  15
BRANCH   1  21
ATOM     21  C   UNL     1       6.735  14.604  22.881  0.00  0.00    +0.000 C 
BRANCH  21  23
ATOM     22  N   UNL     1       7.059  12.617  24.381  0.00  0.00    +0.000 N 
ATOM     23  C   UNL     1       6.236  13.256  23.437  0.00  0.00    +0.000 C 
ATOM     24  O   UNL     1       5.161  12.770  23.075  0.00  0.00    +0.000 OA
BRANCH  22  26
ATOM     25  C   UNL     1       5.698  11.714  26.270  0.00  0.00    +0.000 C 
ATOM     26  C   UNL     1       6.522  11.413  25.026  0.00  0.00    +0.000 C 
ENDBRANCH  22  26
BRANCH  22  27
ATOM     27  C   UNL     1       8.361  13.172  24.771  0.00  0.00    +0.000 C 
ATOM     28  C   UNL     1       8.455  13.985  26.053  0.00  0.00    +0.000 C 
ENDBRANCH  22  27
ENDBRANCH  21  23
ENDBRANCH   1  21
TORSDOF 5
ENDMDL
MODEL 7
REMARK VINA RESULT:      -6.0      4.181      7.272
REMARK  Name = 
REMARK  7 active torsions:
REMARK  status: ('A' for Active; 'I' for Inactive)
REMARK    1  A    between atoms: C_1  and  C_2
REMARK    2  A    between atoms: C_2  and  N_3
REMARK    3  A    between atoms: N_3  and  C_4
REMARK    4  A    between atoms: C_4  and  C_5
REMARK    5  A    between atoms: C_6  and  C_8
REMARK    6  A    between atoms: C_8  and  N_9
REMARK    7  A    between atoms: N_12  and  C_13
REMARK                            x       y       z     vdW  Elec       q    Type
REMARK                         _______ _______ _______ _____ _____    ______ ____
ROOT
ATOM      1  N   UNL     1      -0.941  13.920  20.565  0.00  0.00    +0.000 N 
ATOM      2  C   UNL     1      -0.499  14.684  19.466  0.00  0.00    +0.000 A 
ATOM      3  O   UNL     1      -0.473  14.177  18.340  0.00  0.00    +0.000 OA
ATOM      4  N   UNL     1      -0.180  16.042  19.701  0.00  0.00    +0.000 N 
ATOM      5  C   UNL     1      -0.256  16.696  20.940  0.00  0.00    +0.000 A 
ATOM      6  O   UNL     1       0.012  17.877  21.149  0.00  0.00    +0.000 OA
ATOM      7  C   UNL     1      -0.663  15.847  22.030  0.00  0.00    +0.000 A 
ATOM      8  C   UNL     1      -0.807  16.161  23.398  0.00  0.00    +0.000 A 
ATOM      9  C   UNL     1      -1.225  15.085  24.130  0.00  0.00    +0.000 A 
ATOM     10  S   UNL     1      -1.434  13.693  23.227  0.00  0.00    +0.000 S 
ATOM     11  C   UNL     1      -0.973  14.530  21.806  0.00  0.00    +0.000 A 
ATOM     12  C   UNL     1      -1.396  15.380  25.573  0.00  0.00    +0.000 C 
ATOM     13  C   UNL     1      -0.644  16.745  25.683  0.00  0.00    +0.000 C 
ATOM     14  C   UNL     1      -0.620  17.361  24.249  0.00  0.00    +0.000 C 
ENDROOT
BRANCH   4  15
ATOM     15  C   UNL     1       0.245  16.836  18.583  0.00  0.00    +0.000 A 
ATOM     16  C   UNL     1      -0.687  17.588  17.852  0.00  0.00    +0.000 A 
ATOM     17  C   UNL     1      -0.276  18.373  16.774  0.00  0.00    +0.000 A 
ATOM     18  C   UNL     1       1.073  18.438  16.437  0.00  0.00    +0.000 A 
ATOM     19  C   UNL     1       2.011  17.709  17.168  0.00  0.00    +0.000 A 
ATOM     20  C   UNL     1       1.597  16.898  18.228  0.00  0.00    +0.000 A 
ENDBRANCH   4  15
BRANCH   1  21
ATOM     21  C   UNL     1      -1.309  12.524  20.303  0.00  0.00    +0.000 C 
BRANCH  21  23
ATOM     22  N   UNL     1      -3.073  11.816  18.663  0.00  0.00    +0.000 N 
ATOM     23  C   UNL     1      -2.795  12.359  19.930  0.00  0.00    +0.000 C 
ATOM     24  O   UNL     1      -3.693  12.682  20.712  0.00  0.00    +0.000 OA
BRANCH  22  26
ATOM     25  C   UNL     1      -4.820  11.665  16.885  0.00  0.00    +0.000 C 
ATOM     26  C   UNL     1      -4.478  11.517  18.361  0.00  0.00    +0.000 C 
ENDBRANCH  22  26
BRANCH  22  27
ATOM     27  C   UNL     1      -2.004  11.482  17.715  0.00  0.00    +0.000 C 
ATOM     28  C   UNL     1      -1.606  10.024  17.547  0.00  0.00    +0.000 C 
ENDBRANCH  22  27
ENDBRANCH  21  23
ENDBRANCH   1  21
TORSDOF 5
ENDMDL
MODEL 8
REMARK VINA RESULT:      -6.0      1.883      6.366
REMARK  Name = 
REMARK  7 active torsions:
REMARK  status: ('A' for Active; 'I' for Inactive)
REMARK    1  A    between atoms: C_1  and  C_2
REMARK    2  A    between atoms: C_2  and  N_3
REMARK    3  A    between atoms: N_3  and  C_4
REMARK    4  A    between atoms: C_4  and  C_5
REMARK    5  A    between atoms: C_6  and  C_8
REMARK    6  A    between atoms: C_8  and  N_9
REMARK    7  A    between atoms: N_12  and  C_13
REMARK                            x       y       z     vdW  Elec       q    Type
REMARK                         _______ _______ _______ _____ _____    ______ ____
ROOT
ATOM      1  N   UNL     1      -0.989  11.963  20.873  0.00  0.00    +0.000 N 
ATOM      2  C   UNL     1       0.076  11.102  20.539  0.00  0.00    +0.000 A 
ATOM      3  O   UNL     1       1.069  11.046  21.271  0.00  0.00    +0.000 OA
ATOM      4  N   UNL     1      -0.087  10.271  19.406  0.00  0.00    +0.000 N 
ATOM      5  C   UNL     1      -1.218  10.235  18.576  0.00  0.00    +0.000 A 
ATOM      6  O   UNL     1      -1.368   9.510  17.595  0.00  0.00    +0.000 OA
ATOM      7  C   UNL     1      -2.246  11.176  18.939  0.00  0.00    +0.000 A 
ATOM      8  C   UNL     1      -3.482  11.431  18.310  0.00  0.00    +0.000 A 
ATOM      9  C   UNL     1      -4.199  12.397  18.960  0.00  0.00    +0.000 A 
ATOM     10  S   UNL     1      -3.422  13.027  20.301  0.00  0.00    +0.000 S 
ATOM     11  C   UNL     1      -2.091  11.983  20.037  0.00  0.00    +0.000 A 
ATOM     12  C   UNL     1      -5.510  12.687  18.332  0.00  0.00    +0.000 C 
ATOM     13  C   UNL     1      -5.327  11.994  16.944  0.00  0.00    +0.000 C 
ATOM     14  C   UNL     1      -4.207  10.922  17.122  0.00  0.00    +0.000 C 
ENDROOT
BRANCH   4  15
ATOM     15  C   UNL     1       0.980   9.370  19.073  0.00  0.00    +0.000 A 
ATOM     16  C   UNL     1       1.254   8.262  19.890  0.00  0.00    +0.000 A 
ATOM     17  C   UNL     1       2.281   7.376  19.562  0.00  0.00    +0.000 A 
ATOM     18  C   UNL     1       3.022   7.571  18.400  0.00  0.00    +0.000 A 
ATOM     19  C   UNL     1       2.747   8.659  17.571  0.00  0.00    +0.000 A 
ATOM     20  C   UNL     1       1.739   9.565  17.914  0.00  0.00    +0.000 A 
ENDBRANCH   4  15
BRANCH   1  21
ATOM     21  C   UNL     1      -0.827  12.792  22.073  0.00  0.00    +0.000 C 
BRANCH  21  23
ATOM     22  N   UNL     1      -2.529  13.551  23.755  0.00  0.00    +0.000 N 
ATOM     23  C   UNL     1      -1.860  12.462  23.168  0.00  0.00    +0.000 C 
ATOM     24  O   UNL     1      -2.091  11.298  23.504  0.00  0.00    +0.000 OA
BRANCH  22  26
ATOM     25  C   UNL     1      -4.984  13.176  24.018  0.00  0.00    +0.000 C 
ATOM     26  C   UNL     1      -3.619  13.239  24.688  0.00  0.00    +0.000 C 
ENDBRANCH  22  26
BRANCH  22  27
ATOM     27  C   UNL     1      -2.214  14.938  23.391  0.00  0.00    +0.000 C 
ATOM     28  C   UNL     1      -1.416  15.786  24.368  0.00  0.00    +0.000 C 
ENDBRANCH  22  27
ENDBRANCH  21  23
ENDBRANCH   1  21
TORSDOF 5
ENDMDL
MODEL 9
REMARK VINA RESULT:      -5.9      3.956      6.525
REMARK  Name = 
REMARK  7 active torsions:
REMARK  status: ('A' for Active; 'I' for Inactive)
REMARK    1  A    between atoms: C_1  and  C_2
REMARK    2  A    between atoms: C_2  and  N_3
REMARK    3  A    between atoms: N_3  and  C_4
REMARK    4  A    between atoms: C_4  and  C_5
REMARK    5  A    between atoms: C_6  and  C_8
REMARK    6  A    between atoms: C_8  and  N_9
REMARK    7  A    between atoms: N_12  and  C_13
REMARK                            x       y       z     vdW  Elec       q    Type
REMARK                         _______ _______ _______ _____ _____    ______ ____
ROOT
ATOM      1  N   UNL     1      -1.310  13.659  20.461  0.00  0.00    +0.000 N 
ATOM      2  C   UNL     1      -0.710  14.421  19.437  0.00  0.00    +0.000 A 
ATOM      3  O   UNL     1      -0.591  13.938  18.306  0.00  0.00    +0.000 OA
ATOM      4  N   UNL     1      -0.344  15.752  19.743  0.00  0.00    +0.000 N 
ATOM      5  C   UNL     1      -0.517  16.382  20.984  0.00  0.00    +0.000 A 
ATOM      6  O   UNL     1      -0.207  17.540  21.254  0.00  0.00    +0.000 OA
ATOM      7  C   UNL     1      -1.084  15.534  22.001  0.00  0.00    +0.000 A 
ATOM      8  C   UNL     1      -1.357  15.825  23.354  0.00  0.00    +0.000 A 
ATOM      9  C   UNL     1      -1.910  14.759  24.007  0.00  0.00    +0.000 A 
ATOM     10  S   UNL     1      -2.098  13.402  23.047  0.00  0.00    +0.000 S 
ATOM     11  C   UNL     1      -1.441  14.242  21.708  0.00  0.00    +0.000 A 
ATOM     12  C   UNL     1      -2.219  15.031  25.431  0.00  0.00    +0.000 C 
ATOM     13  C   UNL     1      -1.408  16.347  25.659  0.00  0.00    +0.000 C 
ATOM     14  C   UNL     1      -1.197  16.992  24.253  0.00  0.00    +0.000 C 
ENDROOT
BRANCH   4  15
ATOM     15  C   UNL     1       0.242  16.545  18.699  0.00  0.00    +0.000 A 
ATOM     16  C   UNL     1      -0.559  17.391  17.917  0.00  0.00    +0.000 A 
ATOM     17  C   UNL     1       0.010  18.175  16.911  0.00  0.00    +0.000 A 
ATOM     18  C   UNL     1       1.385  18.144  16.700  0.00  0.00    +0.000 A 
ATOM     19  C   UNL     1       2.193  17.319  17.483  0.00  0.00    +0.000 A 
ATOM     20  C   UNL     1       1.622  16.510  18.470  0.00  0.00    +0.000 A 
ENDBRANCH   4  15
BRANCH   1  21
ATOM     21  C   UNL     1      -1.724  12.293  20.121  0.00  0.00    +0.000 C 
BRANCH  21  23
ATOM     22  N   UNL     1      -0.301  10.469  19.147  0.00  0.00    +0.000 N 
ATOM     23  C   UNL     1      -0.580  11.271  20.268  0.00  0.00    +0.000 C 
ATOM     24  O   UNL     1       0.062  11.170  21.316  0.00  0.00    +0.000 OA
BRANCH  22  26
ATOM     25  C   UNL     1       1.645   9.505  17.914  0.00  0.00    +0.000 C 
ATOM     26  C   UNL     1       0.881   9.601  19.226  0.00  0.00    +0.000 C 
ENDBRANCH  22  26
BRANCH  22  27
ATOM     27  C   UNL     1      -1.100  10.554  17.918  0.00  0.00    +0.000 C 
ATOM     28  C   UNL     1      -2.442   9.840  17.869  0.00  0.00    +0.000 C 
ENDBRANCH  22  27
ENDBRANCH  21  23
ENDBRANCH   1  21
TORSDOF 5
ENDMDL
