MODEL 1
REMARK VINA RESULT:      -8.8      0.000      0.000
REMARK  Name = 
REMARK  8 active torsions:
REMARK  status: ('A' for Active; 'I' for Inactive)
REMARK    1  A    between atoms: C_1  and  O_2
REMARK    2  A    between atoms: O_2  and  C_3
REMARK    3  A    between atoms: C_5  and  O_6
REMARK    4  A    between atoms: O_6  and  C_7
REMARK    5  A    between atoms: C_9  and  C_10
REMARK    6  A    between atoms: C_12  and  C_13
REMARK    7  A    between atoms: C_13  and  C_15
REMARK    8  A    between atoms: C_18  and  C_19
REMARK                            x       y       z     vdW  Elec       q    Type
REMARK                         _______ _______ _______ _____ _____    ______ ____
ROOT
ATOM      1  C   UNL     1      -1.475  11.330  18.864  0.00  0.00    +0.000 A 
ATOM      2  C   UNL     1      -1.014  10.209  19.601  0.00  0.00    +0.000 A 
ATOM      3  C   UNL     1       0.219  10.506  20.171  0.00  0.00    +0.000 A 
ATOM      4  N   UNL     1       0.556  11.790  19.754  0.00  0.00    +0.000 N 
ATOM      5  C   UNL     1       1.710  12.539  20.021  0.00  0.00    +0.000 A 
ATOM      6  C   UNL     1       1.814  13.800  19.573  0.00  0.00    +0.000 A 
ATOM      7  C   UNL     1       0.712  14.375  18.823  0.00  0.00    +0.000 A 
ATOM      8  C   UNL     1      -0.391  13.662  18.550  0.00  0.00    +0.000 A 
ATOM      9  C   UNL     1      -0.503  12.308  19.001  0.00  0.00    +0.000 A 
ENDROOT
BRANCH   1  14
ATOM     10  C   UNL     1      -4.876  11.992  18.041  0.00  0.00    +0.000 A 
ATOM     11  N   UNL     1      -4.962  11.753  16.740  0.00  0.00    +0.000 NA
ATOM     12  C   UNL     1      -3.817  11.367  16.183  0.00  0.00    +0.000 A 
ATOM     13  N   UNL     1      -2.657  11.220  16.808  0.00  0.00    +0.000 NA
ATOM     14  C   UNL     1      -2.713  11.467  18.113  0.00  0.00    +0.000 A 
ATOM     15  N   UNL     1      -3.790  11.857  18.784  0.00  0.00    +0.000 NA
BRANCH  10  17
ATOM     16  C   UNL     1      -7.096  11.528  18.610  0.00  0.00    +0.000 C 
ATOM     17  O   UNL     1      -5.985  12.403  18.746  0.00  0.00    +0.000 OA
ENDBRANCH  10  17
BRANCH  12  18
ATOM     18  O   UNL     1      -3.776  11.084  14.834  0.00  0.00    +0.000 OA
ATOM     19  C   UNL     1      -2.913  10.002  14.508  0.00  0.00    +0.000 C 
ENDBRANCH  12  18
ENDBRANCH   1  14
BRANCH   3  20
ATOM     20  C   UNL     1       1.033   9.651  21.031  0.00  0.00    +0.000 C 
ATOM     21  O   UNL     1       1.359   9.948  22.177  0.00  0.00    +0.000 OA
BRANCH  20  22
ATOM     22  C   UNL     1       1.521   8.348  20.482  0.00  0.00    +0.000 A 
ATOM     23  C   UNL     1       1.391   7.169  21.219  0.00  0.00    +0.000 A 
ATOM     24  C   UNL     1       1.756   5.942  20.656  0.00  0.00    +0.000 A 
ATOM     25  C   UNL     1       2.269   5.850  19.350  0.00  0.00    +0.000 A 
ATOM     26  C   UNL     1       2.468   7.059  18.655  0.00  0.00    +0.000 A 
ATOM     27  C   UNL     1       2.107   8.296  19.216  0.00  0.00    +0.000 A 
BRANCH  25  28
ATOM     28  C   UNL     1       2.556   4.526  18.743  0.00  0.00    +0.000 A 
ATOM     29  C   UNL     1       1.700   3.427  18.967  0.00  0.00    +0.000 A 
ATOM     30  C   UNL     1       1.957   2.167  18.420  0.00  0.00    +0.000 A 
ATOM     31  C   UNL     1       3.074   1.976  17.615  0.00  0.00    +0.000 A 
ATOM     32  C   UNL     1       3.929   3.045  17.362  0.00  0.00    +0.000 A 
ATOM     33  C   UNL     1       3.674   4.302  17.923  0.00  0.00    +0.000 A 
ENDBRANCH  25  28
ENDBRANCH  20  22
ENDBRANCH   3  20
TORSDOF 6
ENDMDL
MODEL 2
REMARK VINA RESULT:      -8.8      0.895      2.199
REMARK  Name = 
REMARK  8 active torsions:
REMARK  status: ('A' for Active; 'I' for Inactive)
REMARK    1  A    between atoms: C_1  and  O_2
REMARK    2  A    between atoms: O_2  and  C_3
REMARK    3  A    between atoms: C_5  and  O_6
REMARK    4  A    between atoms: O_6  and  C_7
REMARK    5  A    between atoms: C_9  and  C_10
REMARK    6  A    between atoms: C_12  and  C_13
REMARK    7  A    between atoms: C_13  and  C_15
REMARK    8  A    between atoms: C_18  and  C_19
REMARK                            x       y       z     vdW  Elec       q    Type
REMARK                         _______ _______ _______ _____ _____    ______ ____
ROOT
ATOM      1  C   UNL     1      -1.297  11.065  18.349  0.00  0.00    +0.000 A 
ATOM      2  C   UNL     1      -0.846   9.963  19.120  0.00  0.00    +0.000 A 
ATOM      3  C   UNL     1       0.222  10.361  19.917  0.00  0.00    +0.000 A 
ATOM      4  N   UNL     1       0.473  11.696  19.613  0.00  0.00    +0.000 N 
ATOM      5  C   UNL     1       1.464  12.552  20.113  0.00  0.00    +0.000 A 
ATOM      6  C   UNL     1       1.496  13.839  19.736  0.00  0.00    +0.000 A 
ATOM      7  C   UNL     1       0.485  14.330  18.817  0.00  0.00    +0.000 A 
ATOM      8  C   UNL     1      -0.458  13.516  18.321  0.00  0.00    +0.000 A 
ATOM      9  C   UNL     1      -0.488  12.135  18.696  0.00  0.00    +0.000 A 
ENDROOT
BRANCH   1  14
ATOM     10  C   UNL     1      -3.204  10.616  15.375  0.00  0.00    +0.000 A 
ATOM     11  N   UNL     1      -4.388  11.145  15.650  0.00  0.00    +0.000 NA
ATOM     12  C   UNL     1      -4.487  11.645  16.879  0.00  0.00    +0.000 A 
ATOM     13  N   UNL     1      -3.532  11.644  17.799  0.00  0.00    +0.000 NA
ATOM     14  C   UNL     1      -2.388  11.106  17.389  0.00  0.00    +0.000 A 
ATOM     15  N   UNL     1      -2.165  10.575  16.193  0.00  0.00    +0.000 NA
BRANCH  10  17
ATOM     16  C   UNL     1      -4.132   9.921  13.345  0.00  0.00    +0.000 C 
ATOM     17  O   UNL     1      -2.963  10.058  14.140  0.00  0.00    +0.000 OA
ENDBRANCH  10  17
BRANCH  12  18
ATOM     18  O   UNL     1      -5.669  12.228  17.286  0.00  0.00    +0.000 OA
ATOM     19  C   UNL     1      -5.800  12.314  18.699  0.00  0.00    +0.000 C 
ENDBRANCH  12  18
ENDBRANCH   1  14
BRANCH   3  20
ATOM     20  C   UNL     1       0.965   9.555  20.881  0.00  0.00    +0.000 C 
ATOM     21  O   UNL     1       1.188   9.906  22.037  0.00  0.00    +0.000 OA
BRANCH  20  22
ATOM     22  C   UNL     1       1.508   8.235  20.437  0.00  0.00    +0.000 A 
ATOM     23  C   UNL     1       1.383   7.102  21.244  0.00  0.00    +0.000 A 
ATOM     24  C   UNL     1       1.802   5.853  20.775  0.00  0.00    +0.000 A 
ATOM     25  C   UNL     1       2.366   5.692  19.497  0.00  0.00    +0.000 A 
ATOM     26  C   UNL     1       2.557   6.860  18.732  0.00  0.00    +0.000 A 
ATOM     27  C   UNL     1       2.141   8.119  19.198  0.00  0.00    +0.000 A 
BRANCH  25  28
ATOM     28  C   UNL     1       2.711   4.341  18.988  0.00  0.00    +0.000 A 
ATOM     29  C   UNL     1       3.482   3.451  19.765  0.00  0.00    +0.000 A 
ATOM     30  C   UNL     1       3.834   2.180  19.301  0.00  0.00    +0.000 A 
ATOM     31  C   UNL     1       3.405   1.757  18.049  0.00  0.00    +0.000 A 
ATOM     32  C   UNL     1       2.628   2.606  17.265  0.00  0.00    +0.000 A 
ATOM     33  C   UNL     1       2.290   3.883  17.728  0.00  0.00    +0.000 A 
ENDBRANCH  25  28
ENDBRANCH  20  22
ENDBRANCH   3  20
TORSDOF 6
ENDMDL
MODEL 3
REMARK VINA RESULT:      -8.7      0.631      1.045
REMARK  Name = 
REMARK  8 active torsions:
REMARK  status: ('A' for Active; 'I' for Inactive)
REMARK    1  A    between atoms: C_1  and  O_2
REMARK    2  A    between atoms: O_2  and  C_3
REMARK    3  A    between atoms: C_5  and  O_6
REMARK    4  A    between atoms: O_6  and  C_7
REMARK    5  A    between atoms: C_9  and  C_10
REMARK    6  A    between atoms: C_12  and  C_13
REMARK    7  A    between atoms: C_13  and  C_15
REMARK    8  A    between atoms: C_18  and  C_19
REMARK                            x       y       z     vdW  Elec       q    Type
REMARK                         _______ _______ _______ _____ _____    ______ ____
ROOT
ATOM      1  C   UNL     1      -1.371  11.180  18.531  0.00  0.00    +0.000 A 
ATOM      2  C   UNL     1      -0.892  10.070  19.274  0.00  0.00    +0.000 A 
ATOM      3  C   UNL     1       0.229  10.451  20.004  0.00  0.00    +0.000 A 
ATOM      4  N   UNL     1       0.484  11.782  19.682  0.00  0.00    +0.000 N 
ATOM      5  C   UNL     1       1.518  12.620  20.119  0.00  0.00    +0.000 A 
ATOM      6  C   UNL     1       1.548  13.907  19.737  0.00  0.00    +0.000 A 
ATOM      7  C   UNL     1       0.492  14.414  18.882  0.00  0.00    +0.000 A 
ATOM      8  C   UNL     1      -0.494  13.616  18.446  0.00  0.00    +0.000 A 
ATOM      9  C   UNL     1      -0.524  12.236  18.825  0.00  0.00    +0.000 A 
ENDROOT
BRANCH   1  14
ATOM     10  C   UNL     1      -4.677  11.672  17.300  0.00  0.00    +0.000 A 
ATOM     11  N   UNL     1      -4.603  11.382  16.009  0.00  0.00    +0.000 NA
ATOM     12  C   UNL     1      -3.389  11.023  15.602  0.00  0.00    +0.000 A 
ATOM     13  N   UNL     1      -2.304  10.946  16.361  0.00  0.00    +0.000 NA
ATOM     14  C   UNL     1      -2.518  11.238  17.640  0.00  0.00    +0.000 A 
ATOM     15  N   UNL     1      -3.679  11.609  18.167  0.00  0.00    +0.000 NA
BRANCH  10  17
ATOM     16  C   UNL     1      -6.616  12.951  17.033  0.00  0.00    +0.000 C 
ATOM     17  O   UNL     1      -5.873  12.063  17.857  0.00  0.00    +0.000 OA
ENDBRANCH  10  17
BRANCH  12  18
ATOM     18  O   UNL     1      -3.182  10.693  14.279  0.00  0.00    +0.000 OA
ATOM     19  C   UNL     1      -4.190   9.846  13.743  0.00  0.00    +0.000 C 
ENDBRANCH  12  18
ENDBRANCH   1  14
BRANCH   3  20
ATOM     20  C   UNL     1       1.016   9.634  20.922  0.00  0.00    +0.000 C 
ATOM     21  O   UNL     1       1.308   9.978  22.064  0.00  0.00    +0.000 OA
BRANCH  20  22
ATOM     22  C   UNL     1       1.519   8.309  20.443  0.00  0.00    +0.000 A 
ATOM     23  C   UNL     1       1.361   7.160  21.222  0.00  0.00    +0.000 A 
ATOM     24  C   UNL     1       1.741   5.912  20.722  0.00  0.00    +0.000 A 
ATOM     25  C   UNL     1       2.298   5.766  19.438  0.00  0.00    +0.000 A 
ATOM     26  C   UNL     1       2.524   6.946  18.703  0.00  0.00    +0.000 A 
ATOM     27  C   UNL     1       2.147   8.205  19.201  0.00  0.00    +0.000 A 
BRANCH  25  28
ATOM     28  C   UNL     1       2.602   4.418  18.895  0.00  0.00    +0.000 A 
ATOM     29  C   UNL     1       3.657   4.230  17.978  0.00  0.00    +0.000 A 
ATOM     30  C   UNL     1       3.951   2.973  17.440  0.00  0.00    +0.000 A 
ATOM     31  C   UNL     1       3.207   1.864  17.821  0.00  0.00    +0.000 A 
ATOM     32  C   UNL     1       2.170   2.015  18.739  0.00  0.00    +0.000 A 
ATOM     33  C   UNL     1       1.869   3.278  19.264  0.00  0.00    +0.000 A 
ENDBRANCH  25  28
ENDBRANCH  20  22
ENDBRANCH   3  20
TORSDOF 6
ENDMDL
MODEL 4
REMARK VINA RESULT:      -8.6      5.869     10.117
REMARK  Name = 
REMARK  8 active torsions:
REMARK  status: ('A' for Active; 'I' for Inactive)
REMARK    1  A    between atoms: C_1  and  O_2
REMARK    2  A    between atoms: O_2  and  C_3
REMARK    3  A    between atoms: C_5  and  O_6
REMARK    4  A    between atoms: O_6  and  C_7
REMARK    5  A    between atoms: C_9  and  C_10
REMARK    6  A    between atoms: C_12  and  C_13
REMARK    7  A    between atoms: C_13  and  C_15
REMARK    8  A    between atoms: C_18  and  C_19
REMARK                            x       y       z     vdW  Elec       q    Type
REMARK                         _______ _______ _______ _____ _____    ______ ____
ROOT
ATOM      1  C   UNL     1       5.509   4.528  15.904  0.00  0.00    +0.000 A 
ATOM      2  C   UNL     1       4.168   4.301  16.306  0.00  0.00    +0.000 A 
ATOM      3  C   UNL     1       4.051   4.524  17.674  0.00  0.00    +0.000 A 
ATOM      4  N   UNL     1       5.324   4.843  18.138  0.00  0.00    +0.000 N 
ATOM      5  C   UNL     1       5.751   5.121  19.443  0.00  0.00    +0.000 A 
ATOM      6  C   UNL     1       7.025   5.476  19.675  0.00  0.00    +0.000 A 
ATOM      7  C   UNL     1       7.943   5.578  18.555  0.00  0.00    +0.000 A 
ATOM      8  C   UNL     1       7.548   5.299  17.304  0.00  0.00    +0.000 A 
ATOM      9  C   UNL     1       6.199   4.896  17.048  0.00  0.00    +0.000 A 
ENDROOT
BRANCH   1  14
ATOM     10  C   UNL     1       6.075   3.504  12.540  0.00  0.00    +0.000 A 
ATOM     11  N   UNL     1       7.094   4.245  12.128  0.00  0.00    +0.000 NA
ATOM     12  C   UNL     1       7.555   5.091  13.045  0.00  0.00    +0.000 A 
ATOM     13  N   UNL     1       7.085   5.238  14.276  0.00  0.00    +0.000 NA
ATOM     14  C   UNL     1       6.080   4.419  14.571  0.00  0.00    +0.000 A 
ATOM     15  N   UNL     1       5.532   3.535  13.746  0.00  0.00    +0.000 NA
BRANCH  10  17
ATOM     16  C   UNL     1       4.196   2.966  11.256  0.00  0.00    +0.000 C 
ATOM     17  O   UNL     1       5.494   2.588  11.692  0.00  0.00    +0.000 OA
ENDBRANCH  10  17
BRANCH  12  18
ATOM     18  O   UNL     1       8.618   5.915  12.740  0.00  0.00    +0.000 OA
ATOM     19  C   UNL     1       8.433   6.656  11.541  0.00  0.00    +0.000 C 
ENDBRANCH  12  18
ENDBRANCH   1  14
BRANCH   3  20
ATOM     20  C   UNL     1       2.846   4.433  18.493  0.00  0.00    +0.000 C 
ATOM     21  O   UNL     1       2.175   3.411  18.610  0.00  0.00    +0.000 OA
BRANCH  20  22
ATOM     22  C   UNL     1       2.382   5.658  19.214  0.00  0.00    +0.000 A 
ATOM     23  C   UNL     1       2.508   6.922  18.632  0.00  0.00    +0.000 A 
ATOM     24  C   UNL     1       1.978   8.047  19.270  0.00  0.00    +0.000 A 
ATOM     25  C   UNL     1       1.317   7.955  20.508  0.00  0.00    +0.000 A 
ATOM     26  C   UNL     1       1.273   6.685  21.115  0.00  0.00    +0.000 A 
ATOM     27  C   UNL     1       1.806   5.549  20.481  0.00  0.00    +0.000 A 
BRANCH  25  28
ATOM     28  C   UNL     1       0.679   9.151  21.114  0.00  0.00    +0.000 A 
ATOM     29  C   UNL     1       0.128   9.096  22.411  0.00  0.00    +0.000 A 
ATOM     30  C   UNL     1      -0.492  10.204  22.997  0.00  0.00    +0.000 A 
ATOM     31  C   UNL     1      -0.562  11.406  22.304  0.00  0.00    +0.000 A 
ATOM     32  C   UNL     1      -0.012  11.496  21.028  0.00  0.00    +0.000 A 
ATOM     33  C   UNL     1       0.596  10.381  20.440  0.00  0.00    +0.000 A 
ENDBRANCH  25  28
ENDBRANCH  20  22
ENDBRANCH   3  20
TORSDOF 6
ENDMDL
MODEL 5
REMARK VINA RESULT:      -8.6      5.862     10.137
REMARK  Name = 
REMARK  8 active torsions:
REMARK  status: ('A' for Active; 'I' for Inactive)
REMARK    1  A    between atoms: C_1  and  O_2
REMARK    2  A    between atoms: O_2  and  C_3
REMARK    3  A    between atoms: C_5  and  O_6
REMARK    4  A    between atoms: O_6  and  C_7
REMARK    5  A    between atoms: C_9  and  C_10
REMARK    6  A    between atoms: C_12  and  C_13
REMARK    7  A    between atoms: C_13  and  C_15
REMARK    8  A    between atoms: C_18  and  C_19
REMARK                            x       y       z     vdW  Elec       q    Type
REMARK                         _______ _______ _______ _____ _____    ______ ____
ROOT
ATOM      1  C   UNL     1       5.482   4.544  15.917  0.00  0.00    +0.000 A 
ATOM      2  C   UNL     1       4.145   4.313  16.330  0.00  0.00    +0.000 A 
ATOM      3  C   UNL     1       4.039   4.534  17.699  0.00  0.00    +0.000 A 
ATOM      4  N   UNL     1       5.315   4.855  18.153  0.00  0.00    +0.000 N 
ATOM      5  C   UNL     1       5.752   5.132  19.455  0.00  0.00    +0.000 A 
ATOM      6  C   UNL     1       7.027   5.488  19.677  0.00  0.00    +0.000 A 
ATOM      7  C   UNL     1       7.936   5.594  18.550  0.00  0.00    +0.000 A 
ATOM      8  C   UNL     1       7.531   5.316  17.301  0.00  0.00    +0.000 A 
ATOM      9  C   UNL     1       6.180   4.911  17.056  0.00  0.00    +0.000 A 
ENDROOT
BRANCH   1  14
ATOM     10  C   UNL     1       7.552   5.062  13.065  0.00  0.00    +0.000 A 
ATOM     11  N   UNL     1       7.088   4.219  12.153  0.00  0.00    +0.000 NA
ATOM     12  C   UNL     1       6.059   3.485  12.567  0.00  0.00    +0.000 A 
ATOM     13  N   UNL     1       5.500   3.535  13.768  0.00  0.00    +0.000 NA
ATOM     14  C   UNL     1       6.042   4.438  14.579  0.00  0.00    +0.000 A 
ATOM     15  N   UNL     1       7.069   5.227  14.285  0.00  0.00    +0.000 NA
BRANCH  10  17
ATOM     16  C   UNL     1       8.448   6.628  11.578  0.00  0.00    +0.000 C 
ATOM     17  O   UNL     1       8.620   5.881  12.774  0.00  0.00    +0.000 OA
ENDBRANCH  10  17
BRANCH  12  18
ATOM     18  O   UNL     1       5.483   2.572  11.709  0.00  0.00    +0.000 OA
ATOM     19  C   UNL     1       4.203   2.969  11.235  0.00  0.00    +0.000 C 
ENDBRANCH  12  18
ENDBRANCH   1  14
BRANCH   3  20
ATOM     20  C   UNL     1       2.840   4.440  18.527  0.00  0.00    +0.000 C 
ATOM     21  O   UNL     1       2.176   3.415  18.654  0.00  0.00    +0.000 OA
BRANCH  20  22
ATOM     22  C   UNL     1       2.375   5.665  19.248  0.00  0.00    +0.000 A 
ATOM     23  C   UNL     1       2.517   6.930  18.672  0.00  0.00    +0.000 A 
ATOM     24  C   UNL     1       1.986   8.056  19.308  0.00  0.00    +0.000 A 
ATOM     25  C   UNL     1       1.309   7.964  20.537  0.00  0.00    +0.000 A 
ATOM     26  C   UNL     1       1.249   6.691  21.139  0.00  0.00    +0.000 A 
ATOM     27  C   UNL     1       1.783   5.555  20.507  0.00  0.00    +0.000 A 
BRANCH  25  28
ATOM     28  C   UNL     1       0.672   9.161  21.140  0.00  0.00    +0.000 A 
ATOM     29  C   UNL     1       0.075   9.097  22.417  0.00  0.00    +0.000 A 
ATOM     30  C   UNL     1      -0.545  10.206  22.999  0.00  0.00    +0.000 A 
ATOM     31  C   UNL     1      -0.570  11.420  22.324  0.00  0.00    +0.000 A 
ATOM     32  C   UNL     1       0.025  11.520  21.068  0.00  0.00    +0.000 A 
ATOM     33  C   UNL     1       0.633  10.402  20.483  0.00  0.00    +0.000 A 
ENDBRANCH  25  28
ENDBRANCH  20  22
ENDBRANCH   3  20
TORSDOF 6
ENDMDL
MODEL 6
REMARK VINA RESULT:      -8.6      1.265      2.735
REMARK  Name = 
REMARK  8 active torsions:
REMARK  status: ('A' for Active; 'I' for Inactive)
REMARK    1  A    between atoms: C_1  and  O_2
REMARK    2  A    between atoms: O_2  and  C_3
REMARK    3  A    between atoms: C_5  and  O_6
REMARK    4  A    between atoms: O_6  and  C_7
REMARK    5  A    between atoms: C_9  and  C_10
REMARK    6  A    between atoms: C_12  and  C_13
REMARK    7  A    between atoms: C_13  and  C_15
REMARK    8  A    between atoms: C_18  and  C_19
REMARK                            x       y       z     vdW  Elec       q    Type
REMARK                         _______ _______ _______ _____ _____    ______ ____
ROOT
ATOM      1  C   UNL     1      -1.575  11.177  18.918  0.00  0.00    +0.000 A 
ATOM      2  C   UNL     1      -0.961   9.944  19.257  0.00  0.00    +0.000 A 
ATOM      3  C   UNL     1       0.180  10.188  20.014  0.00  0.00    +0.000 A 
ATOM      4  N   UNL     1       0.309  11.571  20.109  0.00  0.00    +0.000 N 
ATOM      5  C   UNL     1       1.307  12.330  20.735  0.00  0.00    +0.000 A 
ATOM      6  C   UNL     1       1.213  13.669  20.771  0.00  0.00    +0.000 A 
ATOM      7  C   UNL     1       0.060  14.311  20.167  0.00  0.00    +0.000 A 
ATOM      8  C   UNL     1      -0.893  13.594  19.552  0.00  0.00    +0.000 A 
ATOM      9  C   UNL     1      -0.791  12.168  19.486  0.00  0.00    +0.000 A 
ENDROOT
BRANCH   1  14
ATOM     10  C   UNL     1      -3.841  11.441  16.183  0.00  0.00    +0.000 A 
ATOM     11  N   UNL     1      -5.004  11.757  16.737  0.00  0.00    +0.000 NA
ATOM     12  C   UNL     1      -4.961  11.867  18.062  0.00  0.00    +0.000 A 
ATOM     13  N   UNL     1      -3.892  11.684  18.825  0.00  0.00    +0.000 NA
ATOM     14  C   UNL     1      -2.787  11.396  18.145  0.00  0.00    +0.000 A 
ATOM     15  N   UNL     1      -2.700  11.259  16.827  0.00  0.00    +0.000 NA
BRANCH  10  17
ATOM     16  C   UNL     1      -3.566   9.941  14.411  0.00  0.00    +0.000 C 
ATOM     17  O   UNL     1      -3.740  11.291  14.819  0.00  0.00    +0.000 OA
ENDBRANCH  10  17
BRANCH  12  18
ATOM     18  O   UNL     1      -6.107  12.196  18.756  0.00  0.00    +0.000 OA
ATOM     19  C   UNL     1      -7.230  12.429  17.917  0.00  0.00    +0.000 C 
ENDBRANCH  12  18
ENDBRANCH   1  14
BRANCH   3  20
ATOM     20  C   UNL     1       1.092   9.207  20.595  0.00  0.00    +0.000 C 
ATOM     21  O   UNL     1       1.323   9.117  21.798  0.00  0.00    +0.000 OA
BRANCH  20  22
ATOM     22  C   UNL     1       1.808   8.270  19.676  0.00  0.00    +0.000 A 
ATOM     23  C   UNL     1       2.126   8.652  18.370  0.00  0.00    +0.000 A 
ATOM     24  C   UNL     1       2.885   7.808  17.554  0.00  0.00    +0.000 A 
ATOM     25  C   UNL     1       3.342   6.556  18.004  0.00  0.00    +0.000 A 
ATOM     26  C   UNL     1       2.941   6.156  19.294  0.00  0.00    +0.000 A 
ATOM     27  C   UNL     1       2.176   6.998  20.119  0.00  0.00    +0.000 A 
BRANCH  25  28
ATOM     28  C   UNL     1       4.228   5.725  17.151  0.00  0.00    +0.000 A 
ATOM     29  C   UNL     1       4.232   4.319  17.268  0.00  0.00    +0.000 A 
ATOM     30  C   UNL     1       5.069   3.515  16.488  0.00  0.00    +0.000 A 
ATOM     31  C   UNL     1       5.914   4.099  15.552  0.00  0.00    +0.000 A 
ATOM     32  C   UNL     1       5.921   5.483  15.401  0.00  0.00    +0.000 A 
ATOM     33  C   UNL     1       5.091   6.285  16.194  0.00  0.00    +0.000 A 
ENDBRANCH  25  28
ENDBRANCH  20  22
ENDBRANCH   3  20
TORSDOF 6
ENDMDL
MODEL 7
REMARK VINA RESULT:      -8.5      0.714      2.353
REMARK  Name = 
REMARK  8 active torsions:
REMARK  status: ('A' for Active; 'I' for Inactive)
REMARK    1  A    between atoms: C_1  and  O_2
REMARK    2  A    between atoms: O_2  and  C_3
REMARK    3  A    between atoms: C_5  and  O_6
REMARK    4  A    between atoms: O_6  and  C_7
REMARK    5  A    between atoms: C_9  and  C_10
REMARK    6  A    between atoms: C_12  and  C_13
REMARK    7  A    between atoms: C_13  and  C_15
REMARK    8  A    between atoms: C_18  and  C_19
REMARK                            x       y       z     vdW  Elec       q    Type
REMARK                         _______ _______ _______ _____ _____    ______ ____
ROOT
ATOM      1  C   UNL     1      -1.349  11.275  18.902  0.00  0.00    +0.000 A 
ATOM      2  C   UNL     1      -0.842  10.113  19.538  0.00  0.00    +0.000 A 
ATOM      3  C   UNL     1       0.355  10.419  20.176  0.00  0.00    +0.000 A 
ATOM      4  N   UNL     1       0.624  11.757  19.901  0.00  0.00    +0.000 N 
ATOM      5  C   UNL     1       1.723  12.539  20.281  0.00  0.00    +0.000 A 
ATOM      6  C   UNL     1       1.763  13.844  19.967  0.00  0.00    +0.000 A 
ATOM      7  C   UNL     1       0.650  14.429  19.243  0.00  0.00    +0.000 A 
ATOM      8  C   UNL     1      -0.400  13.685  18.862  0.00  0.00    +0.000 A 
ATOM      9  C   UNL     1      -0.442  12.288  19.170  0.00  0.00    +0.000 A 
ENDROOT
BRANCH   1  14
ATOM     10  C   UNL     1      -3.632  11.364  16.169  0.00  0.00    +0.000 A 
ATOM     11  N   UNL     1      -4.806  11.637  16.719  0.00  0.00    +0.000 NA
ATOM     12  C   UNL     1      -4.766  11.781  18.041  0.00  0.00    +0.000 A 
ATOM     13  N   UNL     1      -3.688  11.669  18.804  0.00  0.00    +0.000 NA
ATOM     14  C   UNL     1      -2.572  11.417  18.128  0.00  0.00    +0.000 A 
ATOM     15  N   UNL     1      -2.481  11.252  16.813  0.00  0.00    +0.000 NA
BRANCH  10  17
ATOM     16  C   UNL     1      -3.053   9.897  14.443  0.00  0.00    +0.000 C 
ATOM     17  O   UNL     1      -3.527  11.185  14.808  0.00  0.00    +0.000 OA
ENDBRANCH  10  17
BRANCH  12  18
ATOM     18  O   UNL     1      -5.924  12.072  18.731  0.00  0.00    +0.000 OA
ATOM     19  C   UNL     1      -5.722  12.250  20.127  0.00  0.00    +0.000 C 
ENDBRANCH  12  18
ENDBRANCH   1  14
BRANCH   3  20
ATOM     20  C   UNL     1       1.195   9.529  20.972  0.00  0.00    +0.000 C 
ATOM     21  O   UNL     1       1.695   9.842  22.048  0.00  0.00    +0.000 OA
BRANCH  20  22
ATOM     22  C   UNL     1       1.487   8.162  20.439  0.00  0.00    +0.000 A 
ATOM     23  C   UNL     1       2.104   7.996  19.197  0.00  0.00    +0.000 A 
ATOM     24  C   UNL     1       2.466   6.720  18.755  0.00  0.00    +0.000 A 
ATOM     25  C   UNL     1       2.218   5.570  19.527  0.00  0.00    +0.000 A 
ATOM     26  C   UNL     1       1.523   5.752  20.739  0.00  0.00    +0.000 A 
ATOM     27  C   UNL     1       1.153   7.032  21.187  0.00  0.00    +0.000 A 
BRANCH  25  28
ATOM     28  C   UNL     1       2.701   4.240  19.078  0.00  0.00    +0.000 A 
ATOM     29  C   UNL     1       2.203   3.652  17.896  0.00  0.00    +0.000 A 
ATOM     30  C   UNL     1       2.630   2.394  17.461  0.00  0.00    +0.000 A 
ATOM     31  C   UNL     1       3.584   1.695  18.191  0.00  0.00    +0.000 A 
ATOM     32  C   UNL     1       4.107   2.257  19.353  0.00  0.00    +0.000 A 
ATOM     33  C   UNL     1       3.666   3.511  19.792  0.00  0.00    +0.000 A 
ENDBRANCH  25  28
ENDBRANCH  20  22
ENDBRANCH   3  20
TORSDOF 6
ENDMDL
MODEL 8
REMARK VINA RESULT:      -8.5      1.300      2.684
REMARK  Name = 
REMARK  8 active torsions:
REMARK  status: ('A' for Active; 'I' for Inactive)
REMARK    1  A    between atoms: C_1  and  O_2
REMARK    2  A    between atoms: O_2  and  C_3
REMARK    3  A    between atoms: C_5  and  O_6
REMARK    4  A    between atoms: O_6  and  C_7
REMARK    5  A    between atoms: C_9  and  C_10
REMARK    6  A    between atoms: C_12  and  C_13
REMARK    7  A    between atoms: C_13  and  C_15
REMARK    8  A    between atoms: C_18  and  C_19
REMARK                            x       y       z     vdW  Elec       q    Type
REMARK                         _______ _______ _______ _____ _____    ______ ____
ROOT
ATOM      1  C   UNL     1      -1.702  11.089  18.933  0.00  0.00    +0.000 A 
ATOM      2  C   UNL     1      -1.185   9.838  19.357  0.00  0.00    +0.000 A 
ATOM      3  C   UNL     1       0.007  10.039  20.044  0.00  0.00    +0.000 A 
ATOM      4  N   UNL     1       0.264  11.407  20.010  0.00  0.00    +0.000 N 
ATOM      5  C   UNL     1       1.353  12.121  20.526  0.00  0.00    +0.000 A 
ATOM      6  C   UNL     1       1.380  13.461  20.445  0.00  0.00    +0.000 A 
ATOM      7  C   UNL     1       0.263  14.153  19.831  0.00  0.00    +0.000 A 
ATOM      8  C   UNL     1      -0.778  13.478  19.320  0.00  0.00    +0.000 A 
ATOM      9  C   UNL     1      -0.807  12.048  19.378  0.00  0.00    +0.000 A 
ENDROOT
BRANCH   1  14
ATOM     10  C   UNL     1      -4.107  11.210  16.308  0.00  0.00    +0.000 A 
ATOM     11  N   UNL     1      -5.165  11.798  16.846  0.00  0.00    +0.000 NA
ATOM     12  C   UNL     1      -5.008  12.135  18.123  0.00  0.00    +0.000 A 
ATOM     13  N   UNL     1      -3.922  11.928  18.855  0.00  0.00    +0.000 NA
ATOM     14  C   UNL     1      -2.924  11.353  18.190  0.00  0.00    +0.000 A 
ATOM     15  N   UNL     1      -2.958  10.970  16.920  0.00  0.00    +0.000 NA
BRANCH  10  17
ATOM     16  C   UNL     1      -2.958  10.108  14.594  0.00  0.00    +0.000 C 
ATOM     17  O   UNL     1      -4.131  10.804  14.993  0.00  0.00    +0.000 OA
ENDBRANCH  10  17
BRANCH  12  18
ATOM     18  O   UNL     1      -6.038  12.758  18.797  0.00  0.00    +0.000 OA
ATOM     19  C   UNL     1      -5.852  12.795  20.205  0.00  0.00    +0.000 C 
ENDBRANCH  12  18
ENDBRANCH   1  14
BRANCH   3  20
ATOM     20  C   UNL     1       0.854   9.031  20.674  0.00  0.00    +0.000 C 
ATOM     21  O   UNL     1       0.856   8.798  21.880  0.00  0.00    +0.000 OA
BRANCH  20  22
ATOM     22  C   UNL     1       1.794   8.251  19.812  0.00  0.00    +0.000 A 
ATOM     23  C   UNL     1       2.260   6.997  20.215  0.00  0.00    +0.000 A 
ATOM     24  C   UNL     1       3.055   6.232  19.356  0.00  0.00    +0.000 A 
ATOM     25  C   UNL     1       3.419   6.690  18.078  0.00  0.00    +0.000 A 
ATOM     26  C   UNL     1       3.006   7.990  17.724  0.00  0.00    +0.000 A 
ATOM     27  C   UNL     1       2.210   8.766  18.583  0.00  0.00    +0.000 A 
BRANCH  25  28
ATOM     28  C   UNL     1       4.181   5.816  17.151  0.00  0.00    +0.000 A 
ATOM     29  C   UNL     1       4.099   4.411  17.250  0.00  0.00    +0.000 A 
ATOM     30  C   UNL     1       4.819   3.568  16.399  0.00  0.00    +0.000 A 
ATOM     31  C   UNL     1       5.631   4.109  15.410  0.00  0.00    +0.000 A 
ATOM     32  C   UNL     1       5.720   5.493  15.276  0.00  0.00    +0.000 A 
ATOM     33  C   UNL     1       5.007   6.334  16.140  0.00  0.00    +0.000 A 
ENDBRANCH  25  28
ENDBRANCH  20  22
ENDBRANCH   3  20
TORSDOF 6
ENDMDL
MODEL 9
REMARK VINA RESULT:      -8.4      2.840      4.598
REMARK  Name = 
REMARK  8 active torsions:
REMARK  status: ('A' for Active; 'I' for Inactive)
REMARK    1  A    between atoms: C_1  and  O_2
REMARK    2  A    between atoms: O_2  and  C_3
REMARK    3  A    between atoms: C_5  and  O_6
REMARK    4  A    between atoms: O_6  and  C_7
REMARK    5  A    between atoms: C_9  and  C_10
REMARK    6  A    between atoms: C_12  and  C_13
REMARK    7  A    between atoms: C_13  and  C_15
REMARK    8  A    between atoms: C_18  and  C_19
REMARK                            x       y       z     vdW  Elec       q    Type
REMARK                         _______ _______ _______ _____ _____    ______ ____
ROOT
ATOM      1  C   UNL     1      -2.730  12.522  20.122  0.00  0.00    +0.000 A 
ATOM      2  C   UNL     1      -1.317  12.472  20.247  0.00  0.00    +0.000 A 
ATOM      3  C   UNL     1      -0.785  11.748  19.185  0.00  0.00    +0.000 A 
ATOM      4  N   UNL     1      -1.862  11.304  18.422  0.00  0.00    +0.000 N 
ATOM      5  C   UNL     1      -1.867  10.509  17.269  0.00  0.00    +0.000 A 
ATOM      6  C   UNL     1      -3.022  10.244  16.638  0.00  0.00    +0.000 A 
ATOM      7  C   UNL     1      -4.255  10.803  17.160  0.00  0.00    +0.000 A 
ATOM      8  C   UNL     1      -4.262  11.554  18.272  0.00  0.00    +0.000 A 
ATOM      9  C   UNL     1      -3.041  11.822  18.968  0.00  0.00    +0.000 A 
ENDROOT
BRANCH   1  14
ATOM     10  C   UNL     1      -4.750  15.015  21.667  0.00  0.00    +0.000 A 
ATOM     11  N   UNL     1      -5.461  14.360  22.574  0.00  0.00    +0.000 NA
ATOM     12  C   UNL     1      -5.214  13.054  22.616  0.00  0.00    +0.000 A 
ATOM     13  N   UNL     1      -4.354  12.398  21.849  0.00  0.00    +0.000 NA
ATOM     14  C   UNL     1      -3.688  13.175  21.000  0.00  0.00    +0.000 A 
ATOM     15  N   UNL     1      -3.844  14.486  20.862  0.00  0.00    +0.000 NA
BRANCH  10  17
ATOM     16  C   UNL     1      -3.770  17.012  20.947  0.00  0.00    +0.000 C 
ATOM     17  O   UNL     1      -4.907  16.374  21.511  0.00  0.00    +0.000 OA
ENDBRANCH  10  17
BRANCH  12  18
ATOM     18  O   UNL     1      -5.888  12.260  23.521  0.00  0.00    +0.000 OA
ATOM     19  C   UNL     1      -7.049  12.878  24.060  0.00  0.00    +0.000 C 
ENDBRANCH  12  18
ENDBRANCH   1  14
BRANCH   3  20
ATOM     20  C   UNL     1       0.623  11.478  18.907  0.00  0.00    +0.000 C 
ATOM     21  O   UNL     1       1.396  12.304  18.430  0.00  0.00    +0.000 OA
BRANCH  20  22
ATOM     22  C   UNL     1       1.154  10.110  19.195  0.00  0.00    +0.000 A 
ATOM     23  C   UNL     1       0.956   9.514  20.443  0.00  0.00    +0.000 A 
ATOM     24  C   UNL     1       1.367   8.197  20.667  0.00  0.00    +0.000 A 
ATOM     25  C   UNL     1       1.995   7.435  19.666  0.00  0.00    +0.000 A 
ATOM     26  C   UNL     1       2.258   8.082  18.442  0.00  0.00    +0.000 A 
ATOM     27  C   UNL     1       1.851   9.407  18.211  0.00  0.00    +0.000 A 
BRANCH  25  28
ATOM     28  C   UNL     1       2.331   6.008  19.901  0.00  0.00    +0.000 A 
ATOM     29  C   UNL     1       3.465   5.424  19.299  0.00  0.00    +0.000 A 
ATOM     30  C   UNL     1       3.793   4.079  19.492  0.00  0.00    +0.000 A 
ATOM     31  C   UNL     1       3.002   3.283  20.312  0.00  0.00    +0.000 A 
ATOM     32  C   UNL     1       1.885   3.835  20.934  0.00  0.00    +0.000 A 
ATOM     33  C   UNL     1       1.553   5.180  20.727  0.00  0.00    +0.000 A 
ENDBRANCH  25  28
ENDBRANCH  20  22
ENDBRANCH   3  20
TORSDOF 6
ENDMDL
