MODEL 1
REMARK VINA RESULT:      -7.0      0.000      0.000
REMARK  Name = 
REMARK  13 active torsions:
REMARK  status: ('A' for Active; 'I' for Inactive)
REMARK    1  A    between atoms: C_2  and  C_3
REMARK    2  A    between atoms: C_3  and  N_4
REMARK    3  A    between atoms: C_6  and  C_7
REMARK    4  A    between atoms: C_7  and  C_8
REMARK    5  A    between atoms: C_7  and  C_18
REMARK    6  A    between atoms: C_8  and  C_9
REMARK    7  A    between atoms: C_9  and  C_11
REMARK    8  A    between atoms: C_20  and  O_21
REMARK    9  A    between atoms: O_21  and  C_22
REMARK   10  A    between atoms: C_23  and  O_24
REMARK   11  A    between atoms: O_24  and  C_25
REMARK   12  A    between atoms: C_27  and  O_28
REMARK   13  A    between atoms: O_28  and  C_29
REMARK                            x       y       z     vdW  Elec       q    Type
REMARK                         _______ _______ _______ _____ _____    ______ ____
ROOT
ATOM      1  C   UNL     1      -0.647  12.851  20.221  0.00  0.00    +0.000 C 
ENDROOT
BRANCH   1   4
ATOM      2  N   UNL     1      -3.377  11.641  17.947  0.00  0.00    +0.000 N 
ATOM      3  C   UNL     1      -2.049  11.864  18.225  0.00  0.00    +0.000 A 
ATOM      4  C   UNL     1      -1.928  12.441  19.484  0.00  0.00    +0.000 A 
ATOM      5  C   UNL     1      -3.275  12.505  20.000  0.00  0.00    +0.000 A 
ATOM      6  C   UNL     1      -3.825  12.954  21.217  0.00  0.00    +0.000 A 
ATOM      7  C   UNL     1      -5.190  12.800  21.475  0.00  0.00    +0.000 A 
ATOM      8  C   UNL     1      -6.026  12.234  20.522  0.00  0.00    +0.000 A 
ATOM      9  C   UNL     1      -5.532  11.826  19.283  0.00  0.00    +0.000 A 
ATOM     10  C   UNL     1      -4.143  11.967  19.046  0.00  0.00    +0.000 A 
BRANCH   2  11
ATOM     11  C   UNL     1      -3.872  11.091  16.690  0.00  0.00    +0.000 C 
BRANCH  11  13
ATOM     12  C   UNL     1      -2.903  10.077  14.595  0.00  0.00    +0.000 C 
ATOM     13  C   UNL     1      -2.763  10.511  15.855  0.00  0.00    +0.000 C 
ENDBRANCH  11  13
ENDBRANCH   2  11
ENDBRANCH   1   4
BRANCH   1  14
ATOM     14  C   UNL     1      -0.151  14.159  19.543  0.00  0.00    +0.000 A 
ATOM     15  C   UNL     1       1.133  14.067  18.902  0.00  0.00    +0.000 A 
ATOM     16  C   UNL     1       1.855  15.160  18.419  0.00  0.00    +0.000 A 
ATOM     17  C   UNL     1       1.271  16.420  18.491  0.00  0.00    +0.000 A 
ATOM     18  C   UNL     1       0.005  16.531  19.042  0.00  0.00    +0.000 A 
ATOM     19  C   UNL     1      -0.714  15.444  19.613  0.00  0.00    +0.000 A 
BRANCH  16  20
ATOM     20  O   UNL     1       3.126  15.096  17.910  0.00  0.00    +0.000 OA
ATOM     21  C   UNL     1       4.203  14.916  18.818  0.00  0.00    +0.000 C 
ENDBRANCH  16  20
BRANCH  17  22
ATOM     22  O   UNL     1       2.008  17.472  18.010  0.00  0.00    +0.000 OA
ATOM     23  C   UNL     1       1.461  18.193  16.911  0.00  0.00    +0.000 C 
ENDBRANCH  17  22
BRANCH  19  24
ATOM     24  O   UNL     1      -1.832  15.979  20.144  0.00  0.00    +0.000 OA
ATOM     25  C   UNL     1      -1.989  17.122  20.945  0.00  0.00    +0.000 C 
ENDBRANCH  19  24
ENDBRANCH   1  14
BRANCH   1  26
ATOM     26  C   UNL     1       0.503  11.812  20.126  0.00  0.00    +0.000 C 
BRANCH  26  27
ATOM     27  C   UNL     1       0.316  10.384  20.629  0.00  0.00    +0.000 C 
ATOM     28  O   UNL     1      -0.352  10.085  21.610  0.00  0.00    +0.000 OA
BRANCH  27  29
ATOM     29  C   UNL     1       1.036   9.308  19.859  0.00  0.00    +0.000 A 
ATOM     30  C   UNL     1       1.504   8.174  20.540  0.00  0.00    +0.000 A 
ATOM     31  C   UNL     1       2.254   7.203  19.866  0.00  0.00    +0.000 A 
ATOM     32  C   UNL     1       2.522   7.343  18.504  0.00  0.00    +0.000 A 
ATOM     33 CL   UNL     1       3.463   6.162  17.682  0.00  0.00    +0.000 Cl
ATOM     34  C   UNL     1       2.036   8.443  17.808  0.00  0.00    +0.000 A 
ATOM     35  C   UNL     1       1.294   9.424  18.482  0.00  0.00    +0.000 A 
ENDBRANCH  27  29
ENDBRANCH  26  27
ENDBRANCH   1  26
TORSDOF 10
ENDMDL
MODEL 2
REMARK VINA RESULT:      -6.9      0.880      2.624
REMARK  Name = 
REMARK  13 active torsions:
REMARK  status: ('A' for Active; 'I' for Inactive)
REMARK    1  A    between atoms: C_2  and  C_3
REMARK    2  A    between atoms: C_3  and  N_4
REMARK    3  A    between atoms: C_6  and  C_7
REMARK    4  A    between atoms: C_7  and  C_8
REMARK    5  A    between atoms: C_7  and  C_18
REMARK    6  A    between atoms: C_8  and  C_9
REMARK    7  A    between atoms: C_9  and  C_11
REMARK    8  A    between atoms: C_20  and  O_21
REMARK    9  A    between atoms: O_21  and  C_22
REMARK   10  A    between atoms: C_23  and  O_24
REMARK   11  A    between atoms: O_24  and  C_25
REMARK   12  A    between atoms: C_27  and  O_28
REMARK   13  A    between atoms: O_28  and  C_29
REMARK                            x       y       z     vdW  Elec       q    Type
REMARK                         _______ _______ _______ _____ _____    ______ ____
ROOT
ATOM      1  C   UNL     1      -1.098  12.551  20.373  0.00  0.00    +0.000 C 
ENDROOT
BRANCH   1   4
ATOM      2  N   UNL     1      -4.688  12.263  19.317  0.00  0.00    +0.000 N 
ATOM      3  C   UNL     1      -3.721  12.683  20.199  0.00  0.00    +0.000 A 
ATOM      4  C   UNL     1      -2.469  12.295  19.734  0.00  0.00    +0.000 A 
ATOM      5  C   UNL     1      -2.719  11.657  18.464  0.00  0.00    +0.000 A 
ATOM      6  C   UNL     1      -1.882  11.076  17.490  0.00  0.00    +0.000 A 
ATOM      7  C   UNL     1      -2.417  10.609  16.286  0.00  0.00    +0.000 A 
ATOM      8  C   UNL     1      -3.783  10.681  16.049  0.00  0.00    +0.000 A 
ATOM      9  C   UNL     1      -4.654  11.197  17.009  0.00  0.00    +0.000 A 
ATOM     10  C   UNL     1      -4.095  11.688  18.214  0.00  0.00    +0.000 A 
BRANCH   2  11
ATOM     11  C   UNL     1      -6.121  12.458  19.515  0.00  0.00    +0.000 C 
BRANCH  11  13
ATOM     12  C   UNL     1      -7.144  10.177  19.844  0.00  0.00    +0.000 C 
ATOM     13  C   UNL     1      -6.729  11.353  20.335  0.00  0.00    +0.000 C 
ENDBRANCH  11  13
ENDBRANCH   2  11
ENDBRANCH   1   4
BRANCH   1  14
ATOM     14  C   UNL     1      -0.643  13.955  19.884  0.00  0.00    +0.000 A 
ATOM     15  C   UNL     1       0.573  13.972  19.117  0.00  0.00    +0.000 A 
ATOM     16  C   UNL     1       1.267  15.130  18.761  0.00  0.00    +0.000 A 
ATOM     17  C   UNL     1       0.717  16.361  19.104  0.00  0.00    +0.000 A 
ATOM     18  C   UNL     1      -0.490  16.378  19.785  0.00  0.00    +0.000 A 
ATOM     19  C   UNL     1      -1.172  15.210  20.227  0.00  0.00    +0.000 A 
BRANCH  16  20
ATOM     20  O   UNL     1       2.484  15.152  18.130  0.00  0.00    +0.000 OA
ATOM     21  C   UNL     1       3.546  14.401  18.697  0.00  0.00    +0.000 C 
ENDBRANCH  16  20
BRANCH  17  22
ATOM     22  O   UNL     1       1.425  17.478  18.742  0.00  0.00    +0.000 OA
ATOM     23  C   UNL     1       1.022  18.137  17.547  0.00  0.00    +0.000 C 
ENDBRANCH  17  22
BRANCH  19  24
ATOM     24  O   UNL     1      -2.225  15.648  20.947  0.00  0.00    +0.000 OA
ATOM     25  C   UNL     1      -2.261  16.231  22.224  0.00  0.00    +0.000 C 
ENDBRANCH  19  24
ENDBRANCH   1  14
BRANCH   1  26
ATOM     26  C   UNL     1      -0.001  11.535  19.955  0.00  0.00    +0.000 C 
BRANCH  26  27
ATOM     27  C   UNL     1       0.098  10.167  20.621  0.00  0.00    +0.000 C 
ATOM     28  O   UNL     1      -0.480   9.866  21.658  0.00  0.00    +0.000 OA
BRANCH  27  29
ATOM     29  C   UNL     1       0.993   9.161  19.946  0.00  0.00    +0.000 A 
ATOM     30  C   UNL     1       1.310   9.326  18.589  0.00  0.00    +0.000 A 
ATOM     31  C   UNL     1       2.066   8.359  17.916  0.00  0.00    +0.000 A 
ATOM     32  C   UNL     1       2.530   7.233  18.595  0.00  0.00    +0.000 A 
ATOM     33 CL   UNL     1       3.438   6.034  17.761  0.00  0.00    +0.000 Cl
ATOM     34  C   UNL     1       2.254   7.072  19.947  0.00  0.00    +0.000 A 
ATOM     35  C   UNL     1       1.488   8.032  20.623  0.00  0.00    +0.000 A 
ENDBRANCH  27  29
ENDBRANCH  26  27
ENDBRANCH   1  26
TORSDOF 10
ENDMDL
MODEL 3
REMARK VINA RESULT:      -6.8      2.304      6.362
REMARK  Name = 
REMARK  13 active torsions:
REMARK  status: ('A' for Active; 'I' for Inactive)
REMARK    1  A    between atoms: C_2  and  C_3
REMARK    2  A    between atoms: C_3  and  N_4
REMARK    3  A    between atoms: C_6  and  C_7
REMARK    4  A    between atoms: C_7  and  C_8
REMARK    5  A    between atoms: C_7  and  C_18
REMARK    6  A    between atoms: C_8  and  C_9
REMARK    7  A    between atoms: C_9  and  C_11
REMARK    8  A    between atoms: C_20  and  O_21
REMARK    9  A    between atoms: O_21  and  C_22
REMARK   10  A    between atoms: C_23  and  O_24
REMARK   11  A    between atoms: O_24  and  C_25
REMARK   12  A    between atoms: C_27  and  O_28
REMARK   13  A    between atoms: O_28  and  C_29
REMARK                            x       y       z     vdW  Elec       q    Type
REMARK                         _______ _______ _______ _____ _____    ______ ____
ROOT
ATOM      1  C   UNL     1      -0.814  11.628  18.702  0.00  0.00    +0.000 C 
ENDROOT
BRANCH   1   4
ATOM      2  N   UNL     1      -0.119  15.185  19.679  0.00  0.00    +0.000 N 
ATOM      3  C   UNL     1      -0.954  14.095  19.606  0.00  0.00    +0.000 A 
ATOM      4  C   UNL     1      -0.290  13.041  18.988  0.00  0.00    +0.000 A 
ATOM      5  C   UNL     1       1.043  13.531  18.736  0.00  0.00    +0.000 A 
ATOM      6  C   UNL     1       2.195  12.954  18.166  0.00  0.00    +0.000 A 
ATOM      7  C   UNL     1       3.401  13.661  18.140  0.00  0.00    +0.000 A 
ATOM      8  C   UNL     1       3.470  14.952  18.646  0.00  0.00    +0.000 A 
ATOM      9  C   UNL     1       2.340  15.581  19.169  0.00  0.00    +0.000 A 
ATOM     10  C   UNL     1       1.132  14.844  19.209  0.00  0.00    +0.000 A 
BRANCH   2  11
ATOM     11  C   UNL     1      -0.505  16.482  20.224  0.00  0.00    +0.000 C 
BRANCH  11  13
ATOM     12  C   UNL     1       0.327  16.025  22.560  0.00  0.00    +0.000 C 
ATOM     13  C   UNL     1      -0.631  16.446  21.723  0.00  0.00    +0.000 C 
ENDBRANCH  11  13
ENDBRANCH   2  11
ENDBRANCH   1   4
BRANCH   1  14
ATOM     14  C   UNL     1      -2.310  11.785  18.312  0.00  0.00    +0.000 A 
ATOM     15  C   UNL     1      -3.192  12.125  19.395  0.00  0.00    +0.000 A 
ATOM     16  C   UNL     1      -4.586  12.110  19.314  0.00  0.00    +0.000 A 
ATOM     17  C   UNL     1      -5.172  11.820  18.086  0.00  0.00    +0.000 A 
ATOM     18  C   UNL     1      -4.346  11.554  17.007  0.00  0.00    +0.000 A 
ATOM     19  C   UNL     1      -2.927  11.485  17.087  0.00  0.00    +0.000 A 
BRANCH  16  20
ATOM     20  O   UNL     1      -5.435  12.322  20.369  0.00  0.00    +0.000 OA
ATOM     21  C   UNL     1      -4.869  12.654  21.628  0.00  0.00    +0.000 C 
ENDBRANCH  16  20
BRANCH  17  22
ATOM     22  O   UNL     1      -6.543  11.811  18.041  0.00  0.00    +0.000 OA
ATOM     23  C   UNL     1      -7.169  12.840  17.283  0.00  0.00    +0.000 C 
ENDBRANCH  17  22
BRANCH  19  24
ATOM     24  O   UNL     1      -2.507  11.087  15.868  0.00  0.00    +0.000 OA
ATOM     25  C   UNL     1      -2.923   9.997  15.086  0.00  0.00    +0.000 C 
ENDBRANCH  19  24
ENDBRANCH   1  14
BRANCH   1  26
ATOM     26  C   UNL     1      -0.749  10.666  19.920  0.00  0.00    +0.000 C 
BRANCH  26  27
ATOM     27  C   UNL     1       0.588  10.274  20.540  0.00  0.00    +0.000 C 
ATOM     28  O   UNL     1       1.092  10.842  21.500  0.00  0.00    +0.000 OA
BRANCH  27  29
ATOM     29  C   UNL     1       1.315   9.128  19.884  0.00  0.00    +0.000 A 
ATOM     30  C   UNL     1       1.645   9.215  18.524  0.00  0.00    +0.000 A 
ATOM     31  C   UNL     1       2.240   8.129  17.870  0.00  0.00    +0.000 A 
ATOM     32  C   UNL     1       2.530   6.959  18.572  0.00  0.00    +0.000 A 
ATOM     33 CL   UNL     1       3.238   5.618  17.762  0.00  0.00    +0.000 Cl
ATOM     34  C   UNL     1       2.241   6.871  19.928  0.00  0.00    +0.000 A 
ATOM     35  C   UNL     1       1.635   7.951  20.584  0.00  0.00    +0.000 A 
ENDBRANCH  27  29
ENDBRANCH  26  27
ENDBRANCH   1  26
TORSDOF 10
ENDMDL
MODEL 4
REMARK VINA RESULT:      -6.7      2.508      4.857
REMARK  Name = 
REMARK  13 active torsions:
REMARK  status: ('A' for Active; 'I' for Inactive)
REMARK    1  A    between atoms: C_2  and  C_3
REMARK    2  A    between atoms: C_3  and  N_4
REMARK    3  A    between atoms: C_6  and  C_7
REMARK    4  A    between atoms: C_7  and  C_8
REMARK    5  A    between atoms: C_7  and  C_18
REMARK    6  A    between atoms: C_8  and  C_9
REMARK    7  A    between atoms: C_9  and  C_11
REMARK    8  A    between atoms: C_20  and  O_21
REMARK    9  A    between atoms: O_21  and  C_22
REMARK   10  A    between atoms: C_23  and  O_24
REMARK   11  A    between atoms: O_24  and  C_25
REMARK   12  A    between atoms: C_27  and  O_28
REMARK   13  A    between atoms: O_28  and  C_29
REMARK                            x       y       z     vdW  Elec       q    Type
REMARK                         _______ _______ _______ _____ _____    ______ ____
ROOT
ATOM      1  C   UNL     1      -2.464  12.593  20.683  0.00  0.00    +0.000 C 
ENDROOT
BRANCH   1   4
ATOM      2  N   UNL     1      -5.167  12.104  18.125  0.00  0.00    +0.000 N 
ATOM      3  C   UNL     1      -4.685  12.684  19.275  0.00  0.00    +0.000 A 
ATOM      4  C   UNL     1      -3.400  12.218  19.527  0.00  0.00    +0.000 A 
ATOM      5  C   UNL     1      -3.089  11.350  18.417  0.00  0.00    +0.000 A 
ATOM      6  C   UNL     1      -1.951  10.597  18.065  0.00  0.00    +0.000 A 
ATOM      7  C   UNL     1      -1.907   9.910  16.849  0.00  0.00    +0.000 A 
ATOM      8  C   UNL     1      -2.995   9.933  15.988  0.00  0.00    +0.000 A 
ATOM      9  C   UNL     1      -4.162  10.621  16.322  0.00  0.00    +0.000 A 
ATOM     10  C   UNL     1      -4.183  11.331  17.546  0.00  0.00    +0.000 A 
BRANCH   2  11
ATOM     11  C   UNL     1      -6.505  12.330  17.589  0.00  0.00    +0.000 C 
BRANCH  11  13
ATOM     12  C   UNL     1      -6.959  14.555  16.493  0.00  0.00    +0.000 C 
ATOM     13  C   UNL     1      -6.871  13.790  17.590  0.00  0.00    +0.000 C 
ENDBRANCH  11  13
ENDBRANCH   2  11
ENDBRANCH   1   4
BRANCH   1  14
ATOM     14  C   UNL     1      -3.194  13.699  21.496  0.00  0.00    +0.000 A 
ATOM     15  C   UNL     1      -2.867  15.048  21.123  0.00  0.00    +0.000 A 
ATOM     16  C   UNL     1      -3.240  16.182  21.850  0.00  0.00    +0.000 A 
ATOM     17  C   UNL     1      -4.044  16.011  22.971  0.00  0.00    +0.000 A 
ATOM     18  C   UNL     1      -4.431  14.726  23.317  0.00  0.00    +0.000 A 
ATOM     19  C   UNL     1      -3.997  13.553  22.639  0.00  0.00    +0.000 A 
BRANCH  16  20
ATOM     20  O   UNL     1      -2.838  17.461  21.566  0.00  0.00    +0.000 OA
ATOM     21  C   UNL     1      -1.457  17.769  21.676  0.00  0.00    +0.000 C 
ENDBRANCH  16  20
BRANCH  17  22
ATOM     22  O   UNL     1      -4.390  17.143  23.663  0.00  0.00    +0.000 OA
ATOM     23  C   UNL     1      -4.834  16.969  25.004  0.00  0.00    +0.000 C 
ENDBRANCH  17  22
BRANCH  19  24
ATOM     24  O   UNL     1      -4.488  12.515  23.346  0.00  0.00    +0.000 OA
ATOM     25  C   UNL     1      -4.557  12.326  24.736  0.00  0.00    +0.000 C 
ENDBRANCH  19  24
ENDBRANCH   1  14
BRANCH   1  26
ATOM     26  C   UNL     1      -1.096  13.173  20.232  0.00  0.00    +0.000 C 
BRANCH  26  27
ATOM     27  C   UNL     1       0.212  12.626  20.793  0.00  0.00    +0.000 C 
ATOM     28  O   UNL     1       0.829  13.139  21.718  0.00  0.00    +0.000 OA
BRANCH  27  29
ATOM     29  C   UNL     1       0.760  11.393  20.123  0.00  0.00    +0.000 A 
ATOM     30  C   UNL     1       1.363  11.507  18.862  0.00  0.00    +0.000 A 
ATOM     31  C   UNL     1       1.799  10.366  18.180  0.00  0.00    +0.000 A 
ATOM     32  C   UNL     1       1.658   9.104  18.759  0.00  0.00    +0.000 A 
ATOM     33 CL   UNL     1       2.172   7.700  17.910  0.00  0.00    +0.000 Cl
ATOM     34  C   UNL     1       1.094   8.977  20.022  0.00  0.00    +0.000 A 
ATOM     35  C   UNL     1       0.645  10.117  20.705  0.00  0.00    +0.000 A 
ENDBRANCH  27  29
ENDBRANCH  26  27
ENDBRANCH   1  26
TORSDOF 10
ENDMDL
MODEL 5
REMARK VINA RESULT:      -6.7      2.421      6.209
REMARK  Name = 
REMARK  13 active torsions:
REMARK  status: ('A' for Active; 'I' for Inactive)
REMARK    1  A    between atoms: C_2  and  C_3
REMARK    2  A    between atoms: C_3  and  N_4
REMARK    3  A    between atoms: C_6  and  C_7
REMARK    4  A    between atoms: C_7  and  C_8
REMARK    5  A    between atoms: C_7  and  C_18
REMARK    6  A    between atoms: C_8  and  C_9
REMARK    7  A    between atoms: C_9  and  C_11
REMARK    8  A    between atoms: C_20  and  O_21
REMARK    9  A    between atoms: O_21  and  C_22
REMARK   10  A    between atoms: C_23  and  O_24
REMARK   11  A    between atoms: O_24  and  C_25
REMARK   12  A    between atoms: C_27  and  O_28
REMARK   13  A    between atoms: O_28  and  C_29
REMARK                            x       y       z     vdW  Elec       q    Type
REMARK                         _______ _______ _______ _____ _____    ______ ____
ROOT
ATOM      1  C   UNL     1      -0.657  12.249  19.605  0.00  0.00    +0.000 C 
ENDROOT
BRANCH   1   4
ATOM      2  N   UNL     1       0.081  15.868  18.940  0.00  0.00    +0.000 N 
ATOM      3  C   UNL     1      -0.761  14.867  19.363  0.00  0.00    +0.000 A 
ATOM      4  C   UNL     1      -0.120  13.639  19.243  0.00  0.00    +0.000 A 
ATOM      5  C   UNL     1       1.208  13.952  18.774  0.00  0.00    +0.000 A 
ATOM      6  C   UNL     1       2.341  13.167  18.480  0.00  0.00    +0.000 A 
ATOM      7  C   UNL     1       3.549  13.774  18.125  0.00  0.00    +0.000 A 
ATOM      8  C   UNL     1       3.638  15.156  18.024  0.00  0.00    +0.000 A 
ATOM      9  C   UNL     1       2.526  15.967  18.252  0.00  0.00    +0.000 A 
ATOM     10  C   UNL     1       1.316  15.339  18.634  0.00  0.00    +0.000 A 
BRANCH   2  11
ATOM     11  C   UNL     1      -0.284  17.280  18.883  0.00  0.00    +0.000 C 
BRANCH  11  13
ATOM     12  C   UNL     1       0.184  18.469  16.710  0.00  0.00    +0.000 C 
ATOM     13  C   UNL     1      -0.614  17.719  17.482  0.00  0.00    +0.000 C 
ENDBRANCH  11  13
ENDBRANCH   2  11
ENDBRANCH   1   4
BRANCH   1  14
ATOM     14  C   UNL     1      -2.195  12.403  19.773  0.00  0.00    +0.000 A 
ATOM     15  C   UNL     1      -2.633  12.761  21.095  0.00  0.00    +0.000 A 
ATOM     16  C   UNL     1      -3.964  12.747  21.517  0.00  0.00    +0.000 A 
ATOM     17  C   UNL     1      -4.949  12.440  20.584  0.00  0.00    +0.000 A 
ATOM     18  C   UNL     1      -4.562  12.157  19.284  0.00  0.00    +0.000 A 
ATOM     19  C   UNL     1      -3.208  12.086  18.853  0.00  0.00    +0.000 A 
BRANCH  16  20
ATOM     20  O   UNL     1      -4.381  12.975  22.803  0.00  0.00    +0.000 OA
ATOM     21  C   UNL     1      -3.393  13.113  23.813  0.00  0.00    +0.000 C 
ENDBRANCH  16  20
BRANCH  17  22
ATOM     22  O   UNL     1      -6.245  12.433  21.032  0.00  0.00    +0.000 OA
ATOM     23  C   UNL     1      -7.057  11.332  20.640  0.00  0.00    +0.000 C 
ENDBRANCH  17  22
BRANCH  19  24
ATOM     24  O   UNL     1      -3.250  11.670  17.571  0.00  0.00    +0.000 OA
ATOM     25  C   UNL     1      -4.356  11.449  16.733  0.00  0.00    +0.000 C 
ENDBRANCH  19  24
ENDBRANCH   1  14
BRANCH   1  26
ATOM     26  C   UNL     1      -0.098  11.677  20.937  0.00  0.00    +0.000 C 
BRANCH  26  27
ATOM     27  C   UNL     1      -0.124  10.179  21.221  0.00  0.00    +0.000 C 
ATOM     28  O   UNL     1      -0.817   9.656  22.084  0.00  0.00    +0.000 OA
BRANCH  27  29
ATOM     29  C   UNL     1       0.795   9.328  20.383  0.00  0.00    +0.000 A 
ATOM     30  C   UNL     1       1.057   9.702  19.056  0.00  0.00    +0.000 A 
ATOM     31  C   UNL     1       1.835   8.882  18.231  0.00  0.00    +0.000 A 
ATOM     32  C   UNL     1       2.377   7.696  18.728  0.00  0.00    +0.000 A 
ATOM     33 CL   UNL     1       3.312   6.678  17.706  0.00  0.00    +0.000 Cl
ATOM     34  C   UNL     1       2.156   7.330  20.050  0.00  0.00    +0.000 A 
ATOM     35  C   UNL     1       1.368   8.142  20.877  0.00  0.00    +0.000 A 
ENDBRANCH  27  29
ENDBRANCH  26  27
ENDBRANCH   1  26
TORSDOF 10
ENDMDL
MODEL 6
REMARK VINA RESULT:      -6.7      1.293      1.950
REMARK  Name = 
REMARK  13 active torsions:
REMARK  status: ('A' for Active; 'I' for Inactive)
REMARK    1  A    between atoms: C_2  and  C_3
REMARK    2  A    between atoms: C_3  and  N_4
REMARK    3  A    between atoms: C_6  and  C_7
REMARK    4  A    between atoms: C_7  and  C_8
REMARK    5  A    between atoms: C_7  and  C_18
REMARK    6  A    between atoms: C_8  and  C_9
REMARK    7  A    between atoms: C_9  and  C_11
REMARK    8  A    between atoms: C_20  and  O_21
REMARK    9  A    between atoms: O_21  and  C_22
REMARK   10  A    between atoms: C_23  and  O_24
REMARK   11  A    between atoms: O_24  and  C_25
REMARK   12  A    between atoms: C_27  and  O_28
REMARK   13  A    between atoms: O_28  and  C_29
REMARK                            x       y       z     vdW  Elec       q    Type
REMARK                         _______ _______ _______ _____ _____    ______ ____
ROOT
ATOM      1  C   UNL     1      -1.625  11.973  19.892  0.00  0.00    +0.000 C 
ENDROOT
BRANCH   1   4
ATOM      2  N   UNL     1      -3.865  11.382  16.939  0.00  0.00    +0.000 N 
ATOM      3  C   UNL     1      -2.622  11.398  17.526  0.00  0.00    +0.000 A 
ATOM      4  C   UNL     1      -2.737  11.816  18.847  0.00  0.00    +0.000 A 
ATOM      5  C   UNL     1      -4.152  12.001  19.062  0.00  0.00    +0.000 A 
ATOM      6  C   UNL     1      -4.919  12.386  20.180  0.00  0.00    +0.000 A 
ATOM      7  C   UNL     1      -6.315  12.386  20.112  0.00  0.00    +0.000 A 
ATOM      8  C   UNL     1      -6.962  12.040  18.934  0.00  0.00    +0.000 A 
ATOM      9  C   UNL     1      -6.240  11.706  17.788  0.00  0.00    +0.000 A 
ATOM     10  C   UNL     1      -4.827  11.687  17.879  0.00  0.00    +0.000 A 
BRANCH   2  11
ATOM     11  C   UNL     1      -4.111  11.040  15.543  0.00  0.00    +0.000 C 
BRANCH  11  13
ATOM     12  C   UNL     1      -2.941   9.783  13.696  0.00  0.00    +0.000 C 
ATOM     13  C   UNL     1      -3.015  10.180  14.974  0.00  0.00    +0.000 C 
ENDBRANCH  11  13
ENDBRANCH   2  11
ENDBRANCH   1   4
BRANCH   1  14
ATOM     14  C   UNL     1      -1.411  13.502  20.077  0.00  0.00    +0.000 A 
ATOM     15  C   UNL     1      -0.450  14.096  19.188  0.00  0.00    +0.000 A 
ATOM     16  C   UNL     1       0.047  15.396  19.316  0.00  0.00    +0.000 A 
ATOM     17  C   UNL     1      -0.470  16.203  20.324  0.00  0.00    +0.000 A 
ATOM     18  C   UNL     1      -1.447  15.679  21.154  0.00  0.00    +0.000 A 
ATOM     19  C   UNL     1      -1.909  14.334  21.093  0.00  0.00    +0.000 A 
BRANCH  16  20
ATOM     20  O   UNL     1       1.044  15.932  18.544  0.00  0.00    +0.000 OA
ATOM     21  C   UNL     1       2.297  15.266  18.511  0.00  0.00    +0.000 C 
ENDBRANCH  16  20
BRANCH  17  22
ATOM     22  O   UNL     1       0.041  17.472  20.423  0.00  0.00    +0.000 OA
ATOM     23  C   UNL     1      -0.879  18.549  20.287  0.00  0.00    +0.000 C 
ENDBRANCH  17  22
BRANCH  19  24
ATOM     24  O   UNL     1      -2.755  14.187  22.132  0.00  0.00    +0.000 OA
ATOM     25  C   UNL     1      -3.601  15.127  22.743  0.00  0.00    +0.000 C 
ENDBRANCH  19  24
ENDBRANCH   1  14
BRANCH   1  26
ATOM     26  C   UNL     1      -0.262  11.359  19.470  0.00  0.00    +0.000 C 
BRANCH  26  27
ATOM     27  C   UNL     1       0.555  10.517  20.443  0.00  0.00    +0.000 C 
ATOM     28  O   UNL     1       0.680  10.773  21.634  0.00  0.00    +0.000 OA
BRANCH  27  29
ATOM     29  C   UNL     1       1.259   9.320  19.858  0.00  0.00    +0.000 A 
ATOM     30  C   UNL     1       1.621   9.332  18.503  0.00  0.00    +0.000 A 
ATOM     31  C   UNL     1       2.195   8.199  17.914  0.00  0.00    +0.000 A 
ATOM     32  C   UNL     1       2.433   7.055  18.676  0.00  0.00    +0.000 A 
ATOM     33 CL   UNL     1       3.115   5.656  17.946  0.00  0.00    +0.000 Cl
ATOM     34  C   UNL     1       2.111   7.040  20.028  0.00  0.00    +0.000 A 
ATOM     35  C   UNL     1       1.526   8.168  20.619  0.00  0.00    +0.000 A 
ENDBRANCH  27  29
ENDBRANCH  26  27
ENDBRANCH   1  26
TORSDOF 10
ENDMDL
MODEL 7
REMARK VINA RESULT:      -6.6      1.507      2.929
REMARK  Name = 
REMARK  13 active torsions:
REMARK  status: ('A' for Active; 'I' for Inactive)
REMARK    1  A    between atoms: C_2  and  C_3
REMARK    2  A    between atoms: C_3  and  N_4
REMARK    3  A    between atoms: C_6  and  C_7
REMARK    4  A    between atoms: C_7  and  C_8
REMARK    5  A    between atoms: C_7  and  C_18
REMARK    6  A    between atoms: C_8  and  C_9
REMARK    7  A    between atoms: C_9  and  C_11
REMARK    8  A    between atoms: C_20  and  O_21
REMARK    9  A    between atoms: O_21  and  C_22
REMARK   10  A    between atoms: C_23  and  O_24
REMARK   11  A    between atoms: O_24  and  C_25
REMARK   12  A    between atoms: C_27  and  O_28
REMARK   13  A    between atoms: O_28  and  C_29
REMARK                            x       y       z     vdW  Elec       q    Type
REMARK                         _______ _______ _______ _____ _____    ______ ____
ROOT
ATOM      1  C   UNL     1      -1.341  12.112  20.516  0.00  0.00    +0.000 C 
ENDROOT
BRANCH   1   4
ATOM      2  N   UNL     1      -4.777  12.284  19.016  0.00  0.00    +0.000 N 
ATOM      3  C   UNL     1      -3.882  12.579  20.017  0.00  0.00    +0.000 A 
ATOM      4  C   UNL     1      -2.642  12.031  19.708  0.00  0.00    +0.000 A 
ATOM      5  C   UNL     1      -2.811  11.426  18.409  0.00  0.00    +0.000 A 
ATOM      6  C   UNL     1      -1.939  10.738  17.540  0.00  0.00    +0.000 A 
ATOM      7  C   UNL     1      -2.374  10.340  16.273  0.00  0.00    +0.000 A 
ATOM      8  C   UNL     1      -3.679  10.586  15.868  0.00  0.00    +0.000 A 
ATOM      9  C   UNL     1      -4.590  11.214  16.718  0.00  0.00    +0.000 A 
ATOM     10  C   UNL     1      -4.128  11.633  17.989  0.00  0.00    +0.000 A 
BRANCH   2  11
ATOM     11  C   UNL     1      -6.186  12.662  19.035  0.00  0.00    +0.000 C 
BRANCH  11  13
ATOM     12  C   UNL     1      -7.124  10.483  19.890  0.00  0.00    +0.000 C 
ATOM     13  C   UNL     1      -6.982  11.812  19.988  0.00  0.00    +0.000 C 
ENDBRANCH  11  13
ENDBRANCH   2  11
ENDBRANCH   1   4
BRANCH   1  14
ATOM     14  C   UNL     1      -0.954  13.616  20.575  0.00  0.00    +0.000 A 
ATOM     15  C   UNL     1      -0.102  14.070  19.509  0.00  0.00    +0.000 A 
ATOM     16  C   UNL     1       0.531  15.315  19.479  0.00  0.00    +0.000 A 
ATOM     17  C   UNL     1       0.268  16.214  20.508  0.00  0.00    +0.000 A 
ATOM     18  C   UNL     1      -0.603  15.828  21.515  0.00  0.00    +0.000 A 
ATOM     19  C   UNL     1      -1.194  14.538  21.607  0.00  0.00    +0.000 A 
BRANCH  16  20
ATOM     20  O   UNL     1       1.433  15.713  18.527  0.00  0.00    +0.000 OA
ATOM     21  C   UNL     1       2.659  15.004  18.428  0.00  0.00    +0.000 C 
ENDBRANCH  16  20
BRANCH  17  22
ATOM     22  O   UNL     1       0.906  17.426  20.450  0.00  0.00    +0.000 OA
ATOM     23  C   UNL     1       0.387  18.468  21.267  0.00  0.00    +0.000 C 
ENDBRANCH  17  22
BRANCH  19  24
ATOM     24  O   UNL     1      -1.867  14.522  22.775  0.00  0.00    +0.000 OA
ATOM     25  C   UNL     1      -1.383  14.604  24.092  0.00  0.00    +0.000 C 
ENDBRANCH  19  24
ENDBRANCH   1  14
BRANCH   1  26
ATOM     26  C   UNL     1      -0.147  11.348  19.879  0.00  0.00    +0.000 C 
BRANCH  26  27
ATOM     27  C   UNL     1       0.649  10.325  20.682  0.00  0.00    +0.000 C 
ATOM     28  O   UNL     1       0.833  10.394  21.890  0.00  0.00    +0.000 OA
BRANCH  27  29
ATOM     29  C   UNL     1       1.252   9.189  19.898  0.00  0.00    +0.000 A 
ATOM     30  C   UNL     1       1.601   8.004  20.564  0.00  0.00    +0.000 A 
ATOM     31  C   UNL     1       2.244   6.969  19.877  0.00  0.00    +0.000 A 
ATOM     32  C   UNL     1       2.524   7.096  18.516  0.00  0.00    +0.000 A 
ATOM     33 CL   UNL     1       3.336   5.834  17.678  0.00  0.00    +0.000 Cl
ATOM     34  C   UNL     1       2.154   8.249  17.834  0.00  0.00    +0.000 A 
ATOM     35  C   UNL     1       1.520   9.293  18.521  0.00  0.00    +0.000 A 
ENDBRANCH  27  29
ENDBRANCH  26  27
ENDBRANCH   1  26
TORSDOF 10
ENDMDL
MODEL 8
REMARK VINA RESULT:      -6.6      1.046      1.366
REMARK  Name = 
REMARK  13 active torsions:
REMARK  status: ('A' for Active; 'I' for Inactive)
REMARK    1  A    between atoms: C_2  and  C_3
REMARK    2  A    between atoms: C_3  and  N_4
REMARK    3  A    between atoms: C_6  and  C_7
REMARK    4  A    between atoms: C_7  and  C_8
REMARK    5  A    between atoms: C_7  and  C_18
REMARK    6  A    between atoms: C_8  and  C_9
REMARK    7  A    between atoms: C_9  and  C_11
REMARK    8  A    between atoms: C_20  and  O_21
REMARK    9  A    between atoms: O_21  and  C_22
REMARK   10  A    between atoms: C_23  and  O_24
REMARK   11  A    between atoms: O_24  and  C_25
REMARK   12  A    between atoms: C_27  and  O_28
REMARK   13  A    between atoms: O_28  and  C_29
REMARK                            x       y       z     vdW  Elec       q    Type
REMARK                         _______ _______ _______ _____ _____    ______ ____
ROOT
ATOM      1  C   UNL     1      -1.018  12.121  20.188  0.00  0.00    +0.000 C 
ENDROOT
BRANCH   1   4
ATOM      2  N   UNL     1      -3.846  11.646  17.766  0.00  0.00    +0.000 N 
ATOM      3  C   UNL     1      -2.511  11.579  18.090  0.00  0.00    +0.000 A 
ATOM      4  C   UNL     1      -2.327  12.028  19.393  0.00  0.00    +0.000 A 
ATOM      5  C   UNL     1      -3.652  12.322  19.882  0.00  0.00    +0.000 A 
ATOM      6  C   UNL     1      -4.148  12.782  21.118  0.00  0.00    +0.000 A 
ATOM      7  C   UNL     1      -5.525  12.885  21.332  0.00  0.00    +0.000 A 
ATOM      8  C   UNL     1      -6.420  12.566  20.320  0.00  0.00    +0.000 A 
ATOM      9  C   UNL     1      -5.971  12.159  19.064  0.00  0.00    +0.000 A 
ATOM     10  C   UNL     1      -4.574  12.038  18.869  0.00  0.00    +0.000 A 
BRANCH   2  11
ATOM     11  C   UNL     1      -4.393  11.297  16.459  0.00  0.00    +0.000 C 
BRANCH  11  13
ATOM     12  C   UNL     1      -3.052   9.941  14.811  0.00  0.00    +0.000 C 
ATOM     13  C   UNL     1      -3.311  11.099  15.432  0.00  0.00    +0.000 C 
ENDBRANCH  11  13
ENDBRANCH   2  11
ENDBRANCH   1   4
BRANCH   1  14
ATOM     14  C   UNL     1      -0.499  13.575  20.009  0.00  0.00    +0.000 A 
ATOM     15  C   UNL     1       0.564  13.732  19.054  0.00  0.00    +0.000 A 
ATOM     16  C   UNL     1       1.313  14.900  18.890  0.00  0.00    +0.000 A 
ATOM     17  C   UNL     1       0.969  16.016  19.644  0.00  0.00    +0.000 A 
ATOM     18  C   UNL     1      -0.097  15.915  20.525  0.00  0.00    +0.000 A 
ATOM     19  C   UNL     1      -0.820  14.714  20.766  0.00  0.00    +0.000 A 
BRANCH  16  20
ATOM     20  O   UNL     1       2.401  15.023  18.065  0.00  0.00    +0.000 OA
ATOM     21  C   UNL     1       3.600  14.359  18.433  0.00  0.00    +0.000 C 
ENDBRANCH  16  20
BRANCH  17  22
ATOM     22  O   UNL     1       1.725  17.145  19.461  0.00  0.00    +0.000 OA
ATOM     23  C   UNL     1       2.425  17.643  20.595  0.00  0.00    +0.000 C 
ENDBRANCH  17  22
BRANCH  19  24
ATOM     24  O   UNL     1      -1.682  14.996  21.764  0.00  0.00    +0.000 OA
ATOM     25  C   UNL     1      -2.595  16.056  21.890  0.00  0.00    +0.000 C 
ENDBRANCH  19  24
ENDBRANCH   1  14
BRANCH   1  26
ATOM     26  C   UNL     1       0.099  11.163  19.689  0.00  0.00    +0.000 C 
BRANCH  26  27
ATOM     27  C   UNL     1       0.772  10.180  20.641  0.00  0.00    +0.000 C 
ATOM     28  O   UNL     1       0.840  10.336  21.853  0.00  0.00    +0.000 OA
BRANCH  27  29
ATOM     29  C   UNL     1       1.406   8.969  20.007  0.00  0.00    +0.000 A 
ATOM     30  C   UNL     1       1.746   9.006  18.646  0.00  0.00    +0.000 A 
ATOM     31  C   UNL     1       2.253   7.866  18.012  0.00  0.00    +0.000 A 
ATOM     32  C   UNL     1       2.447   6.688  18.734  0.00  0.00    +0.000 A 
ATOM     33 CL   UNL     1       3.047   5.281  17.949  0.00  0.00    +0.000 Cl
ATOM     34  C   UNL     1       2.148   6.646  20.091  0.00  0.00    +0.000 A 
ATOM     35  C   UNL     1       1.629   7.782  20.727  0.00  0.00    +0.000 A 
ENDBRANCH  27  29
ENDBRANCH  26  27
ENDBRANCH   1  26
TORSDOF 10
ENDMDL
MODEL 9
REMARK VINA RESULT:      -6.6      1.709      2.061
REMARK  Name = 
REMARK  13 active torsions:
REMARK  status: ('A' for Active; 'I' for Inactive)
REMARK    1  A    between atoms: C_2  and  C_3
REMARK    2  A    between atoms: C_3  and  N_4
REMARK    3  A    between atoms: C_6  and  C_7
REMARK    4  A    between atoms: C_7  and  C_8
REMARK    5  A    between atoms: C_7  and  C_18
REMARK    6  A    between atoms: C_8  and  C_9
REMARK    7  A    between atoms: C_9  and  C_11
REMARK    8  A    between atoms: C_20  and  O_21
REMARK    9  A    between atoms: O_21  and  C_22
REMARK   10  A    between atoms: C_23  and  O_24
REMARK   11  A    between atoms: O_24  and  C_25
REMARK   12  A    between atoms: C_27  and  O_28
REMARK   13  A    between atoms: O_28  and  C_29
REMARK                            x       y       z     vdW  Elec       q    Type
REMARK                         _______ _______ _______ _____ _____    ______ ____
ROOT
ATOM      1  C   UNL     1      -1.042  11.096  19.696  0.00  0.00    +0.000 C 
ENDROOT
BRANCH   1   4
ATOM      2  N   UNL     1      -3.463  11.233  16.831  0.00  0.00    +0.000 N 
ATOM      3  C   UNL     1      -2.252  10.869  17.370  0.00  0.00    +0.000 A 
ATOM      4  C   UNL     1      -2.187  11.290  18.694  0.00  0.00    +0.000 A 
ATOM      5  C   UNL     1      -3.472  11.889  18.962  0.00  0.00    +0.000 A 
ATOM      6  C   UNL     1      -4.047  12.476  20.108  0.00  0.00    +0.000 A 
ATOM      7  C   UNL     1      -5.380  12.896  20.093  0.00  0.00    +0.000 A 
ATOM      8  C   UNL     1      -6.144  12.771  18.941  0.00  0.00    +0.000 A 
ATOM      9  C   UNL     1      -5.598  12.246  17.769  0.00  0.00    +0.000 A 
ATOM     10  C   UNL     1      -4.254  11.804  17.806  0.00  0.00    +0.000 A 
BRANCH   2  11
ATOM     11  C   UNL     1      -3.852  10.993  15.446  0.00  0.00    +0.000 C 
BRANCH  11  13
ATOM     12  C   UNL     1      -2.928   9.719  13.476  0.00  0.00    +0.000 C 
ATOM     13  C   UNL     1      -2.994   9.942  14.795  0.00  0.00    +0.000 C 
ENDBRANCH  11  13
ENDBRANCH   2  11
ENDBRANCH   1   4
BRANCH   1  14
ATOM     14  C   UNL     1      -0.511  12.517  20.035  0.00  0.00    +0.000 A 
ATOM     15  C   UNL     1       0.384  13.084  19.062  0.00  0.00    +0.000 A 
ATOM     16  C   UNL     1       1.134  14.245  19.261  0.00  0.00    +0.000 A 
ATOM     17  C   UNL     1       0.957  14.950  20.446  0.00  0.00    +0.000 A 
ATOM     18  C   UNL     1       0.049  14.465  21.374  0.00  0.00    +0.000 A 
ATOM     19  C   UNL     1      -0.664  13.243  21.227  0.00  0.00    +0.000 A 
BRANCH  16  20
ATOM     20  O   UNL     1       2.074  14.729  18.388  0.00  0.00    +0.000 OA
ATOM     21  C   UNL     1       3.279  13.997  18.227  0.00  0.00    +0.000 C 
ENDBRANCH  16  20
BRANCH  17  22
ATOM     22  O   UNL     1       1.710  16.084  20.610  0.00  0.00    +0.000 OA
ATOM     23  C   UNL     1       2.345  16.259  21.872  0.00  0.00    +0.000 C 
ENDBRANCH  17  22
BRANCH  19  24
ATOM     24  O   UNL     1      -1.339  13.068  22.382  0.00  0.00    +0.000 OA
ATOM     25  C   UNL     1      -1.386  13.880  23.527  0.00  0.00    +0.000 C 
ENDBRANCH  19  24
ENDBRANCH   1  14
BRANCH   1  26
ATOM     26  C   UNL     1       0.153  10.271  19.145  0.00  0.00    +0.000 C 
BRANCH  26  27
ATOM     27  C   UNL     1       0.959   9.352  20.056  0.00  0.00    +0.000 C 
ATOM     28  O   UNL     1       0.975   9.438  21.277  0.00  0.00    +0.000 OA
BRANCH  27  29
ATOM     29  C   UNL     1       1.797   8.304  19.370  0.00  0.00    +0.000 A 
ATOM     30  C   UNL     1       2.088   7.109  20.045  0.00  0.00    +0.000 A 
ATOM     31  C   UNL     1       2.936   6.158  19.465  0.00  0.00    +0.000 A 
ATOM     32  C   UNL     1       3.483   6.381  18.201  0.00  0.00    +0.000 A 
ATOM     33 CL   UNL     1       4.545   5.224  17.502  0.00  0.00    +0.000 Cl
ATOM     34  C   UNL     1       3.177   7.545  17.506  0.00  0.00    +0.000 A 
ATOM     35  C   UNL     1       2.336   8.505  18.087  0.00  0.00    +0.000 A 
ENDBRANCH  27  29
ENDBRANCH  26  27
ENDBRANCH   1  26
TORSDOF 10
ENDMDL
