MODEL 1
REMARK VINA RESULT:      -7.7      0.000      0.000
REMARK  Name = 
REMARK  6 active torsions:
REMARK  status: ('A' for Active; 'I' for Inactive)
REMARK    1  A    between atoms: C_1  and  C_2
REMARK    2  A    between atoms: C_2  and  C_3
REMARK    3  A    between atoms: C_3  and  C_4
REMARK    4  A    between atoms: N_6  and  C_7
REMARK    5  A    between atoms: C_10  and  S_11
REMARK    6  A    between atoms: S_11  and  N_14
REMARK                            x       y       z     vdW  Elec       q    Type
REMARK                         _______ _______ _______ _____ _____    ______ ____
ROOT
ATOM      1  C   UNL     1       1.720   7.560  20.220  0.00  0.00    +0.000 A 
ATOM      2  C   UNL     1       1.719   6.358  20.931  0.00  0.00    +0.000 A 
ATOM      3  C   UNL     1       2.098   5.156  20.311  0.00  0.00    +0.000 A 
ATOM      4  C   UNL     1       2.438   5.138  18.951  0.00  0.00    +0.000 A 
ATOM      5  C   UNL     1       2.533   6.341  18.255  0.00  0.00    +0.000 A 
ATOM      6  C   UNL     1       2.165   7.541  18.888  0.00  0.00    +0.000 A 
ENDROOT
BRANCH   1   9
ATOM      7  C   UNL     1       0.045   9.005  21.396  0.00  0.00    +0.000 C 
ATOM      8  O   UNL     1      -0.753   8.138  21.732  0.00  0.00    +0.000 OA
ATOM      9  N   UNL     1       1.251   8.788  20.753  0.00  0.00    +0.000 N 
ATOM     10  H   UNL     1       1.870   9.583  20.664  0.00  0.00    +0.000 HD
BRANCH   7  11
ATOM     11  C   UNL     1      -0.275  10.461  21.692  0.00  0.00    +0.000 C 
BRANCH  11  13
ATOM     12  C   UNL     1      -1.581  12.096  23.152  0.00  0.00    +0.000 C 
ATOM     13  C   UNL     1      -1.028  10.685  23.005  0.00  0.00    +0.000 C 
ENDBRANCH  11  13
ENDBRANCH   7  11
ENDBRANCH   1   9
BRANCH   4  14
ATOM     14  S   UNL     1       2.871   3.576  18.161  0.00  0.00    +0.000 S 
ATOM     15  O   UNL     1       2.946   2.572  19.201  0.00  0.00    +0.000 OA
ATOM     16  O   UNL     1       1.924   3.435  17.081  0.00  0.00    +0.000 OA
BRANCH  14  17
ATOM     17  N   UNL     1       4.390   3.824  17.488  0.00  0.00    +0.000 N 
ATOM     18  C   UNL     1       4.434   4.041  16.011  0.00  0.00    +0.000 C 
ATOM     19  C   UNL     1       5.918   4.160  15.707  0.00  0.00    +0.000 C 
ATOM     20  C   UNL     1       6.349   4.892  16.940  0.00  0.00    +0.000 A 
ATOM     21  C   UNL     1       7.476   5.685  17.078  0.00  0.00    +0.000 A 
ATOM     22  C   UNL     1       7.802   6.119  18.354  0.00  0.00    +0.000 A 
ATOM     23  C   UNL     1       7.050   5.684  19.459  0.00  0.00    +0.000 A 
ATOM     24  C   UNL     1       5.887   4.899  19.297  0.00  0.00    +0.000 A 
ATOM     25  C   UNL     1       5.486   4.593  18.012  0.00  0.00    +0.000 A 
ENDBRANCH  14  17
ENDBRANCH   4  14
TORSDOF 5
ENDMDL
MODEL 2
REMARK VINA RESULT:      -7.6      0.736      1.285
REMARK  Name = 
REMARK  6 active torsions:
REMARK  status: ('A' for Active; 'I' for Inactive)
REMARK    1  A    between atoms: C_1  and  C_2
REMARK    2  A    between atoms: C_2  and  C_3
REMARK    3  A    between atoms: C_3  and  C_4
REMARK    4  A    between atoms: N_6  and  C_7
REMARK    5  A    between atoms: C_10  and  S_11
REMARK    6  A    between atoms: S_11  and  N_14
REMARK                            x       y       z     vdW  Elec       q    Type
REMARK                         _______ _______ _______ _____ _____    ______ ____
ROOT
ATOM      1  C   UNL     1       1.774   7.199  20.357  0.00  0.00    +0.000 A 
ATOM      2  C   UNL     1       2.234   7.301  19.043  0.00  0.00    +0.000 A 
ATOM      3  C   UNL     1       2.620   6.157  18.326  0.00  0.00    +0.000 A 
ATOM      4  C   UNL     1       2.593   4.896  18.938  0.00  0.00    +0.000 A 
ATOM      5  C   UNL     1       2.050   4.768  20.214  0.00  0.00    +0.000 A 
ATOM      6  C   UNL     1       1.653   5.917  20.919  0.00  0.00    +0.000 A 
ENDROOT
BRANCH   1   9
ATOM      7  C   UNL     1       0.225   8.663  21.674  0.00  0.00    +0.000 C 
ATOM      8  O   UNL     1      -0.788   7.975  21.610  0.00  0.00    +0.000 OA
ATOM      9  N   UNL     1       1.467   8.319  21.172  0.00  0.00    +0.000 N 
ATOM     10  H   UNL     1       2.243   8.920  21.421  0.00  0.00    +0.000 HD
BRANCH   7  11
ATOM     11  C   UNL     1       0.158  10.018  22.358  0.00  0.00    +0.000 C 
BRANCH  11  13
ATOM     12  C   UNL     1      -0.870  11.305  20.410  0.00  0.00    +0.000 C 
ATOM     13  C   UNL     1       0.276  11.210  21.407  0.00  0.00    +0.000 C 
ENDBRANCH  11  13
ENDBRANCH   7  11
ENDBRANCH   1   9
BRANCH   4  14
ATOM     14  S   UNL     1       3.143   3.446  18.017  0.00  0.00    +0.000 S 
ATOM     15  O   UNL     1       3.338   2.375  18.973  0.00  0.00    +0.000 OA
ATOM     16  O   UNL     1       2.182   3.301  16.949  0.00  0.00    +0.000 OA
BRANCH  14  17
ATOM     17  N   UNL     1       4.613   3.884  17.333  0.00  0.00    +0.000 N 
ATOM     18  C   UNL     1       4.592   4.236  15.883  0.00  0.00    +0.000 C 
ATOM     19  C   UNL     1       6.050   4.510  15.555  0.00  0.00    +0.000 C 
ATOM     20  C   UNL     1       6.457   5.164  16.840  0.00  0.00    +0.000 A 
ATOM     21  C   UNL     1       7.516   6.036  17.023  0.00  0.00    +0.000 A 
ATOM     22  C   UNL     1       7.845   6.382  18.326  0.00  0.00    +0.000 A 
ATOM     23  C   UNL     1       7.167   5.785  19.404  0.00  0.00    +0.000 A 
ATOM     24  C   UNL     1       6.070   4.920  19.198  0.00  0.00    +0.000 A 
ATOM     25  C   UNL     1       5.656   4.697  17.899  0.00  0.00    +0.000 A 
ENDBRANCH  14  17
ENDBRANCH   4  14
TORSDOF 5
ENDMDL
MODEL 3
REMARK VINA RESULT:      -7.6      0.847      1.343
REMARK  Name = 
REMARK  6 active torsions:
REMARK  status: ('A' for Active; 'I' for Inactive)
REMARK    1  A    between atoms: C_1  and  C_2
REMARK    2  A    between atoms: C_2  and  C_3
REMARK    3  A    between atoms: C_3  and  C_4
REMARK    4  A    between atoms: N_6  and  C_7
REMARK    5  A    between atoms: C_10  and  S_11
REMARK    6  A    between atoms: S_11  and  N_14
REMARK                            x       y       z     vdW  Elec       q    Type
REMARK                         _______ _______ _______ _____ _____    ______ ____
ROOT
ATOM      1  C   UNL     1       1.757   7.401  20.070  0.00  0.00    +0.000 A 
ATOM      2  C   UNL     1       2.283   7.387  18.776  0.00  0.00    +0.000 A 
ATOM      3  C   UNL     1       2.657   6.179  18.166  0.00  0.00    +0.000 A 
ATOM      4  C   UNL     1       2.549   4.969  18.867  0.00  0.00    +0.000 A 
ATOM      5  C   UNL     1       1.941   4.958  20.120  0.00  0.00    +0.000 A 
ATOM      6  C   UNL     1       1.558   6.171  20.718  0.00  0.00    +0.000 A 
ENDROOT
BRANCH   1   9
ATOM      7  C   UNL     1       0.758   9.686  20.310  0.00  0.00    +0.000 C 
ATOM      8  O   UNL     1       0.164   9.748  19.240  0.00  0.00    +0.000 OA
ATOM      9  N   UNL     1       1.457   8.590  20.783  0.00  0.00    +0.000 N 
ATOM     10  H   UNL     1       1.778   8.633  21.742  0.00  0.00    +0.000 HD
BRANCH   7  11
ATOM     11  C   UNL     1       0.752  10.895  21.232  0.00  0.00    +0.000 C 
BRANCH  11  13
ATOM     12  C   UNL     1      -0.711  10.128  23.175  0.00  0.00    +0.000 C 
ATOM     13  C   UNL     1      -0.552  11.090  22.006  0.00  0.00    +0.000 C 
ENDBRANCH  11  13
ENDBRANCH   7  11
ENDBRANCH   1   9
BRANCH   4  14
ATOM     14  S   UNL     1       3.084   3.435  18.084  0.00  0.00    +0.000 S 
ATOM     15  O   UNL     1       3.197   2.435  19.126  0.00  0.00    +0.000 OA
ATOM     16  O   UNL     1       2.164   3.241  16.988  0.00  0.00    +0.000 OA
BRANCH  14  17
ATOM     17  N   UNL     1       4.597   3.769  17.437  0.00  0.00    +0.000 N 
ATOM     18  C   UNL     1       4.654   3.985  15.961  0.00  0.00    +0.000 C 
ATOM     19  C   UNL     1       6.134   4.190  15.682  0.00  0.00    +0.000 C 
ATOM     20  C   UNL     1       6.500   4.949  16.921  0.00  0.00    +0.000 A 
ATOM     21  C   UNL     1       7.576   5.806  17.075  0.00  0.00    +0.000 A 
ATOM     22  C   UNL     1       7.854   6.261  18.356  0.00  0.00    +0.000 A 
ATOM     23  C   UNL     1       7.109   5.785  19.449  0.00  0.00    +0.000 A 
ATOM     24  C   UNL     1       5.997   4.934  19.269  0.00  0.00    +0.000 A 
ATOM     25  C   UNL     1       5.637   4.602  17.977  0.00  0.00    +0.000 A 
ENDBRANCH  14  17
ENDBRANCH   4  14
TORSDOF 5
ENDMDL
MODEL 4
REMARK VINA RESULT:      -7.5      3.923      8.715
REMARK  Name = 
REMARK  6 active torsions:
REMARK  status: ('A' for Active; 'I' for Inactive)
REMARK    1  A    between atoms: C_1  and  C_2
REMARK    2  A    between atoms: C_2  and  C_3
REMARK    3  A    between atoms: C_3  and  C_4
REMARK    4  A    between atoms: N_6  and  C_7
REMARK    5  A    between atoms: C_10  and  S_11
REMARK    6  A    between atoms: S_11  and  N_14
REMARK                            x       y       z     vdW  Elec       q    Type
REMARK                         _______ _______ _______ _____ _____    ______ ____
ROOT
ATOM      1  C   UNL     1       6.274   3.727  14.192  0.00  0.00    +0.000 A 
ATOM      2  C   UNL     1       5.401   3.268  15.181  0.00  0.00    +0.000 A 
ATOM      3  C   UNL     1       5.372   3.870  16.450  0.00  0.00    +0.000 A 
ATOM      4  C   UNL     1       6.254   4.916  16.756  0.00  0.00    +0.000 A 
ATOM      5  C   UNL     1       7.062   5.445  15.753  0.00  0.00    +0.000 A 
ATOM      6  C   UNL     1       7.075   4.844  14.483  0.00  0.00    +0.000 A 
ENDROOT
BRANCH   1   9
ATOM      7  C   UNL     1       5.453   2.926  11.965  0.00  0.00    +0.000 C 
ATOM      8  O   UNL     1       4.327   3.410  11.992  0.00  0.00    +0.000 OA
ATOM      9  N   UNL     1       6.430   3.101  12.929  0.00  0.00    +0.000 N 
ATOM     10  H   UNL     1       7.356   2.759  12.707  0.00  0.00    +0.000 HD
BRANCH   7  11
ATOM     11  C   UNL     1       5.856   2.052  10.789  0.00  0.00    +0.000 C 
BRANCH  11  13
ATOM     12  C   UNL     1       6.048  -0.440  11.296  0.00  0.00    +0.000 C 
ATOM     13  C   UNL     1       6.777   0.888  11.156  0.00  0.00    +0.000 C 
ENDBRANCH  11  13
ENDBRANCH   7  11
ENDBRANCH   1   9
BRANCH   4  14
ATOM     14  S   UNL     1       6.235   5.642  18.407  0.00  0.00    +0.000 S 
ATOM     15  O   UNL     1       6.938   4.731  19.288  0.00  0.00    +0.000 OA
ATOM     16  O   UNL     1       6.717   6.990  18.223  0.00  0.00    +0.000 OA
BRANCH  14  17
ATOM     17  N   UNL     1       4.614   5.726  18.839  0.00  0.00    +0.000 N 
ATOM     18  C   UNL     1       3.760   6.645  18.031  0.00  0.00    +0.000 C 
ATOM     19  C   UNL     1       2.397   6.554  18.698  0.00  0.00    +0.000 C 
ATOM     20  C   UNL     1       2.414   5.100  19.060  0.00  0.00    +0.000 A 
ATOM     21  C   UNL     1       1.313   4.292  19.283  0.00  0.00    +0.000 A 
ATOM     22  C   UNL     1       1.541   3.024  19.796  0.00  0.00    +0.000 A 
ATOM     23  C   UNL     1       2.845   2.632  20.148  0.00  0.00    +0.000 A 
ATOM     24  C   UNL     1       3.959   3.457  19.885  0.00  0.00    +0.000 A 
ATOM     25  C   UNL     1       3.739   4.658  19.241  0.00  0.00    +0.000 A 
ENDBRANCH  14  17
ENDBRANCH   4  14
TORSDOF 5
ENDMDL
MODEL 5
REMARK VINA RESULT:      -7.3      2.283      3.063
REMARK  Name = 
REMARK  6 active torsions:
REMARK  status: ('A' for Active; 'I' for Inactive)
REMARK    1  A    between atoms: C_1  and  C_2
REMARK    2  A    between atoms: C_2  and  C_3
REMARK    3  A    between atoms: C_3  and  C_4
REMARK    4  A    between atoms: N_6  and  C_7
REMARK    5  A    between atoms: C_10  and  S_11
REMARK    6  A    between atoms: S_11  and  N_14
REMARK                            x       y       z     vdW  Elec       q    Type
REMARK                         _______ _______ _______ _____ _____    ______ ____
ROOT
ATOM      1  C   UNL     1       1.230   9.549  19.028  0.00  0.00    +0.000 A 
ATOM      2  C   UNL     1       1.303   8.796  20.203  0.00  0.00    +0.000 A 
ATOM      3  C   UNL     1       1.913   7.532  20.210  0.00  0.00    +0.000 A 
ATOM      4  C   UNL     1       2.419   6.984  19.023  0.00  0.00    +0.000 A 
ATOM      5  C   UNL     1       2.437   7.760  17.866  0.00  0.00    +0.000 A 
ATOM      6  C   UNL     1       1.836   9.031  17.872  0.00  0.00    +0.000 A 
ENDROOT
BRANCH   1   9
ATOM      7  C   UNL     1      -0.766  10.968  18.502  0.00  0.00    +0.000 C 
ATOM      8  O   UNL     1      -1.579  10.079  18.278  0.00  0.00    +0.000 OA
ATOM      9  N   UNL     1       0.538  10.782  18.927  0.00  0.00    +0.000 N 
ATOM     10  H   UNL     1       1.049  11.610  19.207  0.00  0.00    +0.000 HD
BRANCH   7  11
ATOM     11  C   UNL     1      -1.183  12.418  18.314  0.00  0.00    +0.000 C 
BRANCH  11  13
ATOM     12  C   UNL     1      -0.236  14.292  19.763  0.00  0.00    +0.000 C 
ATOM     13  C   UNL     1      -0.055  13.429  18.521  0.00  0.00    +0.000 C 
ENDBRANCH  11  13
ENDBRANCH   7  11
ENDBRANCH   1   9
BRANCH   4  14
ATOM     14  S   UNL     1       3.153   5.337  19.043  0.00  0.00    +0.000 S 
ATOM     15  O   UNL     1       3.149   4.879  20.417  0.00  0.00    +0.000 OA
ATOM     16  O   UNL     1       2.434   4.601  18.030  0.00  0.00    +0.000 OA
BRANCH  14  17
ATOM     17  N   UNL     1       4.731   5.546  18.508  0.00  0.00    +0.000 N 
ATOM     18  C   UNL     1       5.812   5.204  19.479  0.00  0.00    +0.000 C 
ATOM     19  C   UNL     1       7.090   5.560  18.739  0.00  0.00    +0.000 C 
ATOM     20  C   UNL     1       6.681   5.147  17.358  0.00  0.00    +0.000 A 
ATOM     21  C   UNL     1       7.523   4.799  16.318  0.00  0.00    +0.000 A 
ATOM     22  C   UNL     1       6.958   4.634  15.061  0.00  0.00    +0.000 A 
ATOM     23  C   UNL     1       5.591   4.904  14.865  0.00  0.00    +0.000 A 
ATOM     24  C   UNL     1       4.741   5.230  15.944  0.00  0.00    +0.000 A 
ATOM     25  C   UNL     1       5.284   5.249  17.214  0.00  0.00    +0.000 A 
ENDBRANCH  14  17
ENDBRANCH   4  14
TORSDOF 5
ENDMDL
MODEL 6
REMARK VINA RESULT:      -7.2      1.108      1.663
REMARK  Name = 
REMARK  6 active torsions:
REMARK  status: ('A' for Active; 'I' for Inactive)
REMARK    1  A    between atoms: C_1  and  C_2
REMARK    2  A    between atoms: C_2  and  C_3
REMARK    3  A    between atoms: C_3  and  C_4
REMARK    4  A    between atoms: N_6  and  C_7
REMARK    5  A    between atoms: C_10  and  S_11
REMARK    6  A    between atoms: S_11  and  N_14
REMARK                            x       y       z     vdW  Elec       q    Type
REMARK                         _______ _______ _______ _____ _____    ______ ____
ROOT
ATOM      1  C   UNL     1       1.749   7.458  20.139  0.00  0.00    +0.000 A 
ATOM      2  C   UNL     1       2.263   7.443  18.840  0.00  0.00    +0.000 A 
ATOM      3  C   UNL     1       2.617   6.233  18.221  0.00  0.00    +0.000 A 
ATOM      4  C   UNL     1       2.501   5.022  18.918  0.00  0.00    +0.000 A 
ATOM      5  C   UNL     1       1.905   5.012  20.176  0.00  0.00    +0.000 A 
ATOM      6  C   UNL     1       1.542   6.227  20.783  0.00  0.00    +0.000 A 
ENDROOT
BRANCH   1   9
ATOM      7  C   UNL     1       0.680   9.703  20.444  0.00  0.00    +0.000 C 
ATOM      8  O   UNL     1      -0.021   9.718  19.439  0.00  0.00    +0.000 OA
ATOM      9  N   UNL     1       1.471   8.646  20.861  0.00  0.00    +0.000 N 
ATOM     10  H   UNL     1       1.884   8.722  21.782  0.00  0.00    +0.000 HD
BRANCH   7  11
ATOM     11  C   UNL     1       0.714  10.928  21.343  0.00  0.00    +0.000 C 
BRANCH  11  13
ATOM     12  C   UNL     1       1.756  12.905  20.113  0.00  0.00    +0.000 C 
ATOM     13  C   UNL     1       0.476  12.250  20.613  0.00  0.00    +0.000 C 
ENDBRANCH  11  13
ENDBRANCH   7  11
ENDBRANCH   1   9
BRANCH   4  14
ATOM     14  S   UNL     1       3.010   3.486  18.123  0.00  0.00    +0.000 S 
ATOM     15  O   UNL     1       3.119   2.479  19.158  0.00  0.00    +0.000 OA
ATOM     16  O   UNL     1       2.080   3.309  17.033  0.00  0.00    +0.000 OA
BRANCH  14  17
ATOM     17  N   UNL     1       4.522   3.803  17.465  0.00  0.00    +0.000 N 
ATOM     18  C   UNL     1       4.569   4.041  15.992  0.00  0.00    +0.000 C 
ATOM     19  C   UNL     1       6.049   4.225  15.701  0.00  0.00    +0.000 C 
ATOM     20  C   UNL     1       6.441   4.958  16.948  0.00  0.00    +0.000 A 
ATOM     21  C   UNL     1       7.532   5.794  17.105  0.00  0.00    +0.000 A 
ATOM     22  C   UNL     1       7.831   6.225  18.389  0.00  0.00    +0.000 A 
ATOM     23  C   UNL     1       7.089   5.744  19.482  0.00  0.00    +0.000 A 
ATOM     24  C   UNL     1       5.960   4.915  19.300  0.00  0.00    +0.000 A 
ATOM     25  C   UNL     1       5.582   4.610  18.008  0.00  0.00    +0.000 A 
ENDBRANCH  14  17
ENDBRANCH   4  14
TORSDOF 5
ENDMDL
MODEL 7
REMARK VINA RESULT:      -7.2      3.977      8.689
REMARK  Name = 
REMARK  6 active torsions:
REMARK  status: ('A' for Active; 'I' for Inactive)
REMARK    1  A    between atoms: C_1  and  C_2
REMARK    2  A    between atoms: C_2  and  C_3
REMARK    3  A    between atoms: C_3  and  C_4
REMARK    4  A    between atoms: N_6  and  C_7
REMARK    5  A    between atoms: C_10  and  S_11
REMARK    6  A    between atoms: S_11  and  N_14
REMARK                            x       y       z     vdW  Elec       q    Type
REMARK                         _______ _______ _______ _____ _____    ______ ____
ROOT
ATOM      1  C   UNL     1       1.987   7.342  19.970  0.00  0.00    +0.000 A 
ATOM      2  C   UNL     1       1.345   7.950  21.051  0.00  0.00    +0.000 A 
ATOM      3  C   UNL     1       0.856   9.263  20.950  0.00  0.00    +0.000 A 
ATOM      4  C   UNL     1       1.046   9.999  19.773  0.00  0.00    +0.000 A 
ATOM      5  C   UNL     1       1.600   9.375  18.658  0.00  0.00    +0.000 A 
ATOM      6  C   UNL     1       2.076   8.057  18.764  0.00  0.00    +0.000 A 
ENDROOT
BRANCH   1   9
ATOM      7  C   UNL     1       1.973   4.862  20.326  0.00  0.00    +0.000 C 
ATOM      8  O   UNL     1       0.764   4.692  20.436  0.00  0.00    +0.000 OA
ATOM      9  N   UNL     1       2.597   6.063  20.037  0.00  0.00    +0.000 N 
ATOM     10  H   UNL     1       3.588   6.025  19.838  0.00  0.00    +0.000 HD
BRANCH   7  11
ATOM     11  C   UNL     1       2.907   3.678  20.515  0.00  0.00    +0.000 C 
BRANCH  11  13
ATOM     12  C   UNL     1       2.637   2.935  18.090  0.00  0.00    +0.000 C 
ATOM     13  C   UNL     1       2.654   2.517  19.554  0.00  0.00    +0.000 C 
ENDBRANCH  11  13
ENDBRANCH   7  11
ENDBRANCH   1   9
BRANCH   4  14
ATOM     14  S   UNL     1       0.455  11.701  19.681  0.00  0.00    +0.000 S 
ATOM     15  O   UNL     1       0.745  12.328  20.954  0.00  0.00    +0.000 OA
ATOM     16  O   UNL     1       1.029  12.226  18.465  0.00  0.00    +0.000 OA
BRANCH  14  17
ATOM     17  N   UNL     1      -1.206  11.584  19.460  0.00  0.00    +0.000 N 
ATOM     18  C   UNL     1      -2.027  12.712  19.991  0.00  0.00    +0.000 C 
ATOM     19  C   UNL     1      -3.457  12.285  19.706  0.00  0.00    +0.000 C 
ATOM     20  C   UNL     1      -3.238  11.609  18.387  0.00  0.00    +0.000 A 
ATOM     21  C   UNL     1      -4.184  11.402  17.398  0.00  0.00    +0.000 A 
ATOM     22  C   UNL     1      -3.831  10.586  16.333  0.00  0.00    +0.000 A 
ATOM     23  C   UNL     1      -2.583   9.937  16.328  0.00  0.00    +0.000 A 
ATOM     24  C   UNL     1      -1.620  10.183  17.330  0.00  0.00    +0.000 A 
ATOM     25  C   UNL     1      -1.924  11.109  18.308  0.00  0.00    +0.000 A 
ENDBRANCH  14  17
ENDBRANCH   4  14
TORSDOF 5
ENDMDL
MODEL 8
REMARK VINA RESULT:      -7.2      3.773      8.659
REMARK  Name = 
REMARK  6 active torsions:
REMARK  status: ('A' for Active; 'I' for Inactive)
REMARK    1  A    between atoms: C_1  and  C_2
REMARK    2  A    between atoms: C_2  and  C_3
REMARK    3  A    between atoms: C_3  and  C_4
REMARK    4  A    between atoms: N_6  and  C_7
REMARK    5  A    between atoms: C_10  and  S_11
REMARK    6  A    between atoms: S_11  and  N_14
REMARK                            x       y       z     vdW  Elec       q    Type
REMARK                         _______ _______ _______ _____ _____    ______ ____
ROOT
ATOM      1  C   UNL     1       2.163   6.890  19.100  0.00  0.00    +0.000 A 
ATOM      2  C   UNL     1       1.632   7.328  20.315  0.00  0.00    +0.000 A 
ATOM      3  C   UNL     1       1.242   8.667  20.487  0.00  0.00    +0.000 A 
ATOM      4  C   UNL     1       1.424   9.595  19.453  0.00  0.00    +0.000 A 
ATOM      5  C   UNL     1       1.865   9.153  18.208  0.00  0.00    +0.000 A 
ATOM      6  C   UNL     1       2.240   7.809  18.041  0.00  0.00    +0.000 A 
ENDROOT
BRANCH   1   9
ATOM      7  C   UNL     1       3.987   5.174  19.034  0.00  0.00    +0.000 C 
ATOM      8  O   UNL     1       4.899   5.847  19.501  0.00  0.00    +0.000 OA
ATOM      9  N   UNL     1       2.673   5.583  18.891  0.00  0.00    +0.000 N 
ATOM     10  H   UNL     1       2.001   4.875  18.622  0.00  0.00    +0.000 HD
BRANCH   7  11
ATOM     11  C   UNL     1       4.278   3.759  18.561  0.00  0.00    +0.000 C 
BRANCH  11  13
ATOM     12  C   UNL     1       2.413   2.206  17.773  0.00  0.00    +0.000 C 
ATOM     13  C   UNL     1       3.407   3.295  17.392  0.00  0.00    +0.000 C 
ENDBRANCH  11  13
ENDBRANCH   7  11
ENDBRANCH   1   9
BRANCH   4  14
ATOM     14  S   UNL     1       0.964  11.319  19.713  0.00  0.00    +0.000 S 
ATOM     15  O   UNL     1       1.368  11.676  21.057  0.00  0.00    +0.000 OA
ATOM     16  O   UNL     1       1.514  12.023  18.578  0.00  0.00    +0.000 OA
BRANCH  14  17
ATOM     17  N   UNL     1      -0.710  11.359  19.583  0.00  0.00    +0.000 N 
ATOM     18  C   UNL     1      -1.393  12.553  20.162  0.00  0.00    +0.000 C 
ATOM     19  C   UNL     1      -2.870  12.263  19.954  0.00  0.00    +0.000 C 
ATOM     20  C   UNL     1      -2.786  11.580  18.622  0.00  0.00    +0.000 A 
ATOM     21  C   UNL     1      -3.799  11.470  17.686  0.00  0.00    +0.000 A 
ATOM     22  C   UNL     1      -3.582  10.635  16.600  0.00  0.00    +0.000 A 
ATOM     23  C   UNL     1      -2.402   9.873  16.525  0.00  0.00    +0.000 A 
ATOM     24  C   UNL     1      -1.367  10.020  17.474  0.00  0.00    +0.000 A 
ATOM     25  C   UNL     1      -1.530  10.962  18.470  0.00  0.00    +0.000 A 
ENDBRANCH  14  17
ENDBRANCH   4  14
TORSDOF 5
ENDMDL
MODEL 9
REMARK VINA RESULT:      -7.1      3.868      8.756
REMARK  Name = 
REMARK  6 active torsions:
REMARK  status: ('A' for Active; 'I' for Inactive)
REMARK    1  A    between atoms: C_1  and  C_2
REMARK    2  A    between atoms: C_2  and  C_3
REMARK    3  A    between atoms: C_3  and  C_4
REMARK    4  A    between atoms: N_6  and  C_7
REMARK    5  A    between atoms: C_10  and  S_11
REMARK    6  A    between atoms: S_11  and  N_14
REMARK                            x       y       z     vdW  Elec       q    Type
REMARK                         _______ _______ _______ _____ _____    ______ ____
ROOT
ATOM      1  C   UNL     1       2.254   7.266  18.645  0.00  0.00    +0.000 A 
ATOM      2  C   UNL     1       2.407   8.314  17.734  0.00  0.00    +0.000 A 
ATOM      3  C   UNL     1       2.009   9.619  18.067  0.00  0.00    +0.000 A 
ATOM      4  C   UNL     1       1.409   9.881  19.307  0.00  0.00    +0.000 A 
ATOM      5  C   UNL     1       1.336   8.866  20.258  0.00  0.00    +0.000 A 
ATOM      6  C   UNL     1       1.748   7.566  19.920  0.00  0.00    +0.000 A 
ENDROOT
BRANCH   1   9
ATOM      7  C   UNL     1       3.655   5.191  18.717  0.00  0.00    +0.000 C 
ATOM      8  O   UNL     1       4.519   5.571  19.499  0.00  0.00    +0.000 OA
ATOM      9  N   UNL     1       2.537   5.911  18.337  0.00  0.00    +0.000 N 
ATOM     10  H   UNL     1       1.839   5.417  17.796  0.00  0.00    +0.000 HD
BRANCH   7  11
ATOM     11  C   UNL     1       3.783   3.814  18.085  0.00  0.00    +0.000 C 
BRANCH  11  13
ATOM     12  C   UNL     1       2.090   2.212  19.122  0.00  0.00    +0.000 C 
ATOM     13  C   UNL     1       3.545   2.654  19.052  0.00  0.00    +0.000 C 
ENDBRANCH  11  13
ENDBRANCH   7  11
ENDBRANCH   1   9
BRANCH   4  14
ATOM     14  S   UNL     1       0.858  11.553  19.695  0.00  0.00    +0.000 S 
ATOM     15  O   UNL     1       1.240  11.828  21.065  0.00  0.00    +0.000 OA
ATOM     16  O   UNL     1       1.371  12.369  18.620  0.00  0.00    +0.000 OA
BRANCH  14  17
ATOM     17  N   UNL     1      -0.816  11.513  19.559  0.00  0.00    +0.000 N 
ATOM     18  C   UNL     1      -1.554  12.688  20.109  0.00  0.00    +0.000 C 
ATOM     19  C   UNL     1      -3.016  12.327  19.903  0.00  0.00    +0.000 C 
ATOM     20  C   UNL     1      -2.896  11.619  18.589  0.00  0.00    +0.000 A 
ATOM     21  C   UNL     1      -3.900  11.441  17.653  0.00  0.00    +0.000 A 
ATOM     22  C   UNL     1      -3.641  10.592  16.587  0.00  0.00    +0.000 A 
ATOM     23  C   UNL     1      -2.428   9.883  16.532  0.00  0.00    +0.000 A 
ATOM     24  C   UNL     1      -1.404  10.099  17.480  0.00  0.00    +0.000 A 
ATOM     25  C   UNL     1      -1.613  11.054  18.454  0.00  0.00    +0.000 A 
ENDBRANCH  14  17
ENDBRANCH   4  14
TORSDOF 5
ENDMDL
