MODEL 1
REMARK VINA RESULT:      -8.1      0.000      0.000
REMARK  Name = 
REMARK  3 active torsions:
REMARK  status: ('A' for Active; 'I' for Inactive)
REMARK    1  A    between atoms: C_2  and  C_3
REMARK    2  A    between atoms: C_7  and  C_8
REMARK    3  A    between atoms: C_9  and  C_10
REMARK                            x       y       z     vdW  Elec       q    Type
REMARK                         _______ _______ _______ _____ _____    ______ ____
ROOT
ATOM      1  O   UNL     1      -1.112  10.452  18.272  0.00  0.00    +0.000 OA
ATOM      2  C   UNL     1      -0.030  10.718  18.797  0.00  0.00    +0.000 C 
ATOM      3  N   UNL     1       0.447  12.025  18.915  0.00  0.00    +0.000 N 
ATOM      4  C   UNL     1      -0.317  13.135  18.322  0.00  0.00    +0.000 C 
ATOM      5  C   UNL     1      -0.531  14.297  19.322  0.00  0.00    +0.000 C 
ATOM      6  N   UNL     1       0.727  14.669  19.978  0.00  0.00    +0.000 N 
ATOM      7  C   UNL     1       1.304  15.913  19.879  0.00  0.00    +0.000 A 
ATOM      8  C   UNL     1       0.524  17.049  19.928  0.00  0.00    +0.000 A 
ATOM      9  C   UNL     1       1.173  18.261  19.891  0.00  0.00    +0.000 A 
ATOM     10  N   UNL     1       2.504  18.391  19.793  0.00  0.00    +0.000 NA
ATOM     11  C   UNL     1       3.180  17.236  19.745  0.00  0.00    +0.000 A 
ATOM     12  N   UNL     1       2.647  16.006  19.799  0.00  0.00    +0.000 NA
ATOM     13  C   UNL     1       1.491  13.583  20.571  0.00  0.00    +0.000 C 
ATOM     14  C   UNL     1       1.692  12.448  19.575  0.00  0.00    +0.000 C 
ENDROOT
BRANCH   2  15
ATOM     15  C   UNL     1       0.745   9.590  19.395  0.00  0.00    +0.000 A 
ATOM     16  C   UNL     1       0.573   9.178  20.722  0.00  0.00    +0.000 A 
ATOM     17  C   UNL     1       1.110   7.971  21.164  0.00  0.00    +0.000 A 
ATOM     18  C   UNL     1       1.957   7.251  20.330  0.00  0.00    +0.000 A 
ATOM     19  C   UNL     1       2.262   7.741  19.059  0.00  0.00    +0.000 A 
ATOM     20  C   UNL     1       1.642   8.897  18.579  0.00  0.00    +0.000 A 
BRANCH  19  21
ATOM     21  C   UNL     1       3.220   7.052  18.259  0.00  0.00    +0.000 C 
ATOM     22  C   UNL     1       4.068   6.493  17.629  0.00  0.00    +0.000 C 
BRANCH  22  23
ATOM     23  C   UNL     1       5.112   5.838  16.900  0.00  0.00    +0.000 A 
ATOM     24  C   UNL     1       6.126   5.165  17.587  0.00  0.00    +0.000 A 
ATOM     25  C   UNL     1       7.146   4.532  16.876  0.00  0.00    +0.000 A 
ATOM     26  C   UNL     1       7.153   4.572  15.482  0.00  0.00    +0.000 A 
ATOM     27  C   UNL     1       6.142   5.244  14.796  0.00  0.00    +0.000 A 
ATOM     28  C   UNL     1       5.120   5.880  15.504  0.00  0.00    +0.000 A 
ENDBRANCH  22  23
ENDBRANCH  19  21
ENDBRANCH   2  15
TORSDOF 3
ENDMDL
MODEL 2
REMARK VINA RESULT:      -7.7      4.338      5.793
REMARK  Name = 
REMARK  3 active torsions:
REMARK  status: ('A' for Active; 'I' for Inactive)
REMARK    1  A    between atoms: C_2  and  C_3
REMARK    2  A    between atoms: C_7  and  C_8
REMARK    3  A    between atoms: C_9  and  C_10
REMARK                            x       y       z     vdW  Elec       q    Type
REMARK                         _______ _______ _______ _____ _____    ______ ____
ROOT
ATOM      1  O   UNL     1      -3.309  10.796  17.400  0.00  0.00    +0.000 OA
ATOM      2  C   UNL     1      -2.825  11.510  18.278  0.00  0.00    +0.000 C 
ATOM      3  N   UNL     1      -3.610  12.182  19.218  0.00  0.00    +0.000 N 
ATOM      4  C   UNL     1      -5.078  12.114  19.123  0.00  0.00    +0.000 C 
ATOM      5  C   UNL     1      -5.734  11.740  20.473  0.00  0.00    +0.000 C 
ATOM      6  N   UNL     1      -5.205  12.565  21.565  0.00  0.00    +0.000 N 
ATOM      7  C   UNL     1      -5.974  13.410  22.330  0.00  0.00    +0.000 A 
ATOM      8  C   UNL     1      -7.229  13.021  22.750  0.00  0.00    +0.000 A 
ATOM      9  C   UNL     1      -7.916  13.887  23.567  0.00  0.00    +0.000 A 
ATOM     10  N   UNL     1      -7.442  15.080  23.955  0.00  0.00    +0.000 NA
ATOM     11  C   UNL     1      -6.220  15.376  23.495  0.00  0.00    +0.000 A 
ATOM     12  N   UNL     1      -5.458  14.594  22.716  0.00  0.00    +0.000 NA
ATOM     13  C   UNL     1      -3.757  12.639  21.674  0.00  0.00    +0.000 C 
ATOM     14  C   UNL     1      -3.126  13.006  20.336  0.00  0.00    +0.000 C 
ENDROOT
BRANCH   2  15
ATOM     15  C   UNL     1      -1.337  11.581  18.371  0.00  0.00    +0.000 A 
ATOM     16  C   UNL     1      -0.652  12.780  18.606  0.00  0.00    +0.000 A 
ATOM     17  C   UNL     1       0.698  12.770  18.947  0.00  0.00    +0.000 A 
ATOM     18  C   UNL     1       1.410  11.578  18.896  0.00  0.00    +0.000 A 
ATOM     19  C   UNL     1       0.768  10.402  18.505  0.00  0.00    +0.000 A 
ATOM     20  C   UNL     1      -0.609  10.393  18.263  0.00  0.00    +0.000 A 
BRANCH  19  21
ATOM     21  C   UNL     1       1.533   9.210  18.346  0.00  0.00    +0.000 C 
ATOM     22  C   UNL     1       2.141   8.197  18.161  0.00  0.00    +0.000 C 
BRANCH  22  23
ATOM     23  C   UNL     1       2.845   6.977  17.909  0.00  0.00    +0.000 A 
ATOM     24  C   UNL     1       4.133   7.014  17.366  0.00  0.00    +0.000 A 
ATOM     25  C   UNL     1       4.816   5.824  17.115  0.00  0.00    +0.000 A 
ATOM     26  C   UNL     1       4.215   4.600  17.403  0.00  0.00    +0.000 A 
ATOM     27  C   UNL     1       2.930   4.561  17.943  0.00  0.00    +0.000 A 
ATOM     28  C   UNL     1       2.241   5.750  18.195  0.00  0.00    +0.000 A 
ENDBRANCH  22  23
ENDBRANCH  19  21
ENDBRANCH   2  15
TORSDOF 3
ENDMDL
MODEL 3
REMARK VINA RESULT:      -7.6      3.751      4.936
REMARK  Name = 
REMARK  3 active torsions:
REMARK  status: ('A' for Active; 'I' for Inactive)
REMARK    1  A    between atoms: C_2  and  C_3
REMARK    2  A    between atoms: C_7  and  C_8
REMARK    3  A    between atoms: C_9  and  C_10
REMARK                            x       y       z     vdW  Elec       q    Type
REMARK                         _______ _______ _______ _____ _____    ______ ____
ROOT
ATOM      1  O   UNL     1       0.808  10.382  22.558  0.00  0.00    +0.000 OA
ATOM      2  C   UNL     1       0.171  10.720  21.560  0.00  0.00    +0.000 C 
ATOM      3  N   UNL     1      -1.021  11.442  21.638  0.00  0.00    +0.000 N 
ATOM      4  C   UNL     1      -1.601  11.749  22.957  0.00  0.00    +0.000 C 
ATOM      5  C   UNL     1      -1.972  13.245  23.097  0.00  0.00    +0.000 C 
ATOM      6  N   UNL     1      -2.743  13.711  21.939  0.00  0.00    +0.000 N 
ATOM      7  C   UNL     1      -4.024  14.202  22.019  0.00  0.00    +0.000 A 
ATOM      8  C   UNL     1      -4.385  15.042  23.051  0.00  0.00    +0.000 A 
ATOM      9  C   UNL     1      -5.663  15.551  23.033  0.00  0.00    +0.000 A 
ATOM     10  N   UNL     1      -6.567  15.260  22.086  0.00  0.00    +0.000 NA
ATOM     11  C   UNL     1      -6.131  14.432  21.128  0.00  0.00    +0.000 A 
ATOM     12  N   UNL     1      -4.901  13.903  21.040  0.00  0.00    +0.000 NA
ATOM     13  C   UNL     1      -2.181  13.417  20.630  0.00  0.00    +0.000 C 
ATOM     14  C   UNL     1      -1.821  11.942  20.509  0.00  0.00    +0.000 C 
ENDROOT
BRANCH   2  15
ATOM     15  C   UNL     1       0.758  10.404  20.224  0.00  0.00    +0.000 A 
ATOM     16  C   UNL     1       1.026  11.390  19.266  0.00  0.00    +0.000 A 
ATOM     17  C   UNL     1       1.808  11.100  18.150  0.00  0.00    +0.000 A 
ATOM     18  C   UNL     1       2.189   9.787  17.902  0.00  0.00    +0.000 A 
ATOM     19  C   UNL     1       1.787   8.771  18.770  0.00  0.00    +0.000 A 
ATOM     20  C   UNL     1       1.091   9.076  19.944  0.00  0.00    +0.000 A 
BRANCH  19  21
ATOM     21  C   UNL     1       2.086   7.416  18.444  0.00  0.00    +0.000 C 
ATOM     22  C   UNL     1       2.322   6.264  18.230  0.00  0.00    +0.000 C 
BRANCH  22  23
ATOM     23  C   UNL     1       2.596   4.876  18.012  0.00  0.00    +0.000 A 
ATOM     24  C   UNL     1       1.619   3.918  18.299  0.00  0.00    +0.000 A 
ATOM     25  C   UNL     1       1.889   2.565  18.092  0.00  0.00    +0.000 A 
ATOM     26  C   UNL     1       3.132   2.169  17.599  0.00  0.00    +0.000 A 
ATOM     27  C   UNL     1       4.108   3.124  17.314  0.00  0.00    +0.000 A 
ATOM     28  C   UNL     1       3.842   4.480  17.521  0.00  0.00    +0.000 A 
ENDBRANCH  22  23
ENDBRANCH  19  21
ENDBRANCH   2  15
TORSDOF 3
ENDMDL
MODEL 4
REMARK VINA RESULT:      -7.5      6.741      8.180
REMARK  Name = 
REMARK  3 active torsions:
REMARK  status: ('A' for Active; 'I' for Inactive)
REMARK    1  A    between atoms: C_2  and  C_3
REMARK    2  A    between atoms: C_7  and  C_8
REMARK    3  A    between atoms: C_9  and  C_10
REMARK                            x       y       z     vdW  Elec       q    Type
REMARK                         _______ _______ _______ _____ _____    ______ ____
ROOT
ATOM      1  O   UNL     1      10.403  14.542  21.965  0.00  0.00    +0.000 OA
ATOM      2  C   UNL     1       9.586  13.646  21.749  0.00  0.00    +0.000 C 
ATOM      3  N   UNL     1       8.724  13.162  22.736  0.00  0.00    +0.000 N 
ATOM      4  C   UNL     1       8.837  13.669  24.114  0.00  0.00    +0.000 C 
ATOM      5  C   UNL     1       7.470  14.107  24.690  0.00  0.00    +0.000 C 
ATOM      6  N   UNL     1       6.449  13.076  24.472  0.00  0.00    +0.000 N 
ATOM      7  C   UNL     1       5.777  12.436  25.487  0.00  0.00    +0.000 A 
ATOM      8  C   UNL     1       5.345  13.143  26.590  0.00  0.00    +0.000 A 
ATOM      9  C   UNL     1       4.622  12.454  27.535  0.00  0.00    +0.000 A 
ATOM     10  N   UNL     1       4.336  11.147  27.449  0.00  0.00    +0.000 NA
ATOM     11  C   UNL     1       4.801  10.542  26.348  0.00  0.00    +0.000 A 
ATOM     12  N   UNL     1       5.492  11.125  25.358  0.00  0.00    +0.000 NA
ATOM     13  C   UNL     1       6.323  12.569  23.115  0.00  0.00    +0.000 C 
ATOM     14  C   UNL     1       7.678  12.143  22.564  0.00  0.00    +0.000 C 
ENDROOT
BRANCH   2  15
ATOM     15  C   UNL     1       9.475  13.131  20.353  0.00  0.00    +0.000 A 
ATOM     16  C   UNL     1       9.781  13.916  19.233  0.00  0.00    +0.000 A 
ATOM     17  C   UNL     1       9.922  13.332  17.976  0.00  0.00    +0.000 A 
ATOM     18  C   UNL     1       9.597  11.992  17.802  0.00  0.00    +0.000 A 
ATOM     19  C   UNL     1       9.134  11.243  18.884  0.00  0.00    +0.000 A 
ATOM     20  C   UNL     1       9.092  11.801  20.166  0.00  0.00    +0.000 A 
BRANCH  19  21
ATOM     21  C   UNL     1       8.696   9.904  18.669  0.00  0.00    +0.000 C 
ATOM     22  C   UNL     1       8.357   8.783  18.430  0.00  0.00    +0.000 C 
BRANCH  22  23
ATOM     23  C   UNL     1       7.967   7.444  18.108  0.00  0.00    +0.000 A 
ATOM     24  C   UNL     1       7.402   7.163  16.860  0.00  0.00    +0.000 A 
ATOM     25  C   UNL     1       7.016   5.859  16.550  0.00  0.00    +0.000 A 
ATOM     26  C   UNL     1       7.193   4.837  17.483  0.00  0.00    +0.000 A 
ATOM     27  C   UNL     1       7.755   5.117  18.728  0.00  0.00    +0.000 A 
ATOM     28  C   UNL     1       8.142   6.422  19.044  0.00  0.00    +0.000 A 
ENDBRANCH  22  23
ENDBRANCH  19  21
ENDBRANCH   2  15
TORSDOF 3
ENDMDL
MODEL 5
REMARK VINA RESULT:      -7.4      3.884      4.943
REMARK  Name = 
REMARK  3 active torsions:
REMARK  status: ('A' for Active; 'I' for Inactive)
REMARK    1  A    between atoms: C_2  and  C_3
REMARK    2  A    between atoms: C_7  and  C_8
REMARK    3  A    between atoms: C_9  and  C_10
REMARK                            x       y       z     vdW  Elec       q    Type
REMARK                         _______ _______ _______ _____ _____    ______ ____
ROOT
ATOM      1  O   UNL     1       0.944  10.578  22.270  0.00  0.00    +0.000 OA
ATOM      2  C   UNL     1       0.286  10.625  21.230  0.00  0.00    +0.000 C 
ATOM      3  N   UNL     1      -0.961  11.249  21.158  0.00  0.00    +0.000 N 
ATOM      4  C   UNL     1      -1.569  11.806  22.379  0.00  0.00    +0.000 C 
ATOM      5  C   UNL     1      -2.059  13.260  22.177  0.00  0.00    +0.000 C 
ATOM      6  N   UNL     1      -2.861  13.384  20.954  0.00  0.00    +0.000 N 
ATOM      7  C   UNL     1      -4.178  13.777  20.937  0.00  0.00    +0.000 A 
ATOM      8  C   UNL     1      -4.609  14.802  21.754  0.00  0.00    +0.000 A 
ATOM      9  C   UNL     1      -5.923  15.189  21.638  0.00  0.00    +0.000 A 
ATOM     10  N   UNL     1      -6.797  14.618  20.796  0.00  0.00    +0.000 NA
ATOM     11  C   UNL     1      -6.292  13.628  20.048  0.00  0.00    +0.000 A 
ATOM     12  N   UNL     1      -5.024  13.192  20.066  0.00  0.00    +0.000 NA
ATOM     13  C   UNL     1      -2.272  12.841  19.740  0.00  0.00    +0.000 C 
ATOM     14  C   UNL     1      -1.794  11.411  19.956  0.00  0.00    +0.000 C 
ENDROOT
BRANCH   2  15
ATOM     15  C   UNL     1       0.901  10.058  19.994  0.00  0.00    +0.000 A 
ATOM     16  C   UNL     1       1.143  10.828  18.850  0.00  0.00    +0.000 A 
ATOM     17  C   UNL     1       1.950  10.341  17.825  0.00  0.00    +0.000 A 
ATOM     18  C   UNL     1       2.385   9.021  17.863  0.00  0.00    +0.000 A 
ATOM     19  C   UNL     1       2.011   8.196  18.925  0.00  0.00    +0.000 A 
ATOM     20  C   UNL     1       1.289   8.715  20.004  0.00  0.00    +0.000 A 
BRANCH  19  21
ATOM     21  C   UNL     1       2.367   6.817  18.895  0.00  0.00    +0.000 C 
ATOM     22  C   UNL     1       2.616   5.649  18.832  0.00  0.00    +0.000 C 
BRANCH  22  23
ATOM     23  C   UNL     1       2.880   4.246  18.735  0.00  0.00    +0.000 A 
ATOM     24  C   UNL     1       3.864   3.664  19.541  0.00  0.00    +0.000 A 
ATOM     25  C   UNL     1       4.125   2.297  19.441  0.00  0.00    +0.000 A 
ATOM     26  C   UNL     1       3.407   1.513  18.538  0.00  0.00    +0.000 A 
ATOM     27  C   UNL     1       2.427   2.093  17.734  0.00  0.00    +0.000 A 
ATOM     28  C   UNL     1       2.162   3.462  17.829  0.00  0.00    +0.000 A 
ENDBRANCH  22  23
ENDBRANCH  19  21
ENDBRANCH   2  15
TORSDOF 3
ENDMDL
MODEL 6
REMARK VINA RESULT:      -7.4      3.705      4.678
REMARK  Name = 
REMARK  3 active torsions:
REMARK  status: ('A' for Active; 'I' for Inactive)
REMARK    1  A    between atoms: C_2  and  C_3
REMARK    2  A    between atoms: C_7  and  C_8
REMARK    3  A    between atoms: C_9  and  C_10
REMARK                            x       y       z     vdW  Elec       q    Type
REMARK                         _______ _______ _______ _____ _____    ______ ____
ROOT
ATOM      1  O   UNL     1       1.137  10.164  22.513  0.00  0.00    +0.000 OA
ATOM      2  C   UNL     1       0.484  10.397  21.495  0.00  0.00    +0.000 C 
ATOM      3  N   UNL     1      -0.644  11.221  21.498  0.00  0.00    +0.000 N 
ATOM      4  C   UNL     1      -1.137  11.775  22.770  0.00  0.00    +0.000 C 
ATOM      5  C   UNL     1      -1.383  13.301  22.686  0.00  0.00    +0.000 C 
ATOM      6  N   UNL     1      -2.167  13.646  21.495  0.00  0.00    +0.000 N 
ATOM      7  C   UNL     1      -3.401  14.250  21.538  0.00  0.00    +0.000 A 
ATOM      8  C   UNL     1      -3.648  15.267  22.437  0.00  0.00    +0.000 A 
ATOM      9  C   UNL     1      -4.882  15.872  22.380  0.00  0.00    +0.000 A 
ATOM     10  N   UNL     1      -5.848  15.516  21.521  0.00  0.00    +0.000 NA
ATOM     11  C   UNL     1      -5.521  14.517  20.690  0.00  0.00    +0.000 A 
ATOM     12  N   UNL     1      -4.342  13.879  20.647  0.00  0.00    +0.000 NA
ATOM     13  C   UNL     1      -1.690  13.108  20.231  0.00  0.00    +0.000 C 
ATOM     14  C   UNL     1      -1.452  11.607  20.331  0.00  0.00    +0.000 C 
ENDROOT
BRANCH   2  15
ATOM     15  C   UNL     1       0.983   9.831  20.207  0.00  0.00    +0.000 A 
ATOM     16  C   UNL     1       1.102  10.600  19.042  0.00  0.00    +0.000 A 
ATOM     17  C   UNL     1       1.811  10.117  17.945  0.00  0.00    +0.000 A 
ATOM     18  C   UNL     1       2.265   8.804  17.945  0.00  0.00    +0.000 A 
ATOM     19  C   UNL     1       2.008   7.980  19.042  0.00  0.00    +0.000 A 
ATOM     20  C   UNL     1       1.388   8.494  20.184  0.00  0.00    +0.000 A 
BRANCH  19  21
ATOM     21  C   UNL     1       2.378   6.605  18.982  0.00  0.00    +0.000 C 
ATOM     22  C   UNL     1       2.668   5.450  18.871  0.00  0.00    +0.000 C 
BRANCH  22  23
ATOM     23  C   UNL     1       3.002   4.068  18.701  0.00  0.00    +0.000 A 
ATOM     24  C   UNL     1       2.445   3.342  17.644  0.00  0.00    +0.000 A 
ATOM     25  C   UNL     1       2.766   1.994  17.483  0.00  0.00    +0.000 A 
ATOM     26  C   UNL     1       3.639   1.372  18.375  0.00  0.00    +0.000 A 
ATOM     27  C   UNL     1       4.193   2.096  19.431  0.00  0.00    +0.000 A 
ATOM     28  C   UNL     1       3.874   3.446  19.596  0.00  0.00    +0.000 A 
ENDBRANCH  22  23
ENDBRANCH  19  21
ENDBRANCH   2  15
TORSDOF 3
ENDMDL
MODEL 7
REMARK VINA RESULT:      -7.4      4.179      5.439
REMARK  Name = 
REMARK  3 active torsions:
REMARK  status: ('A' for Active; 'I' for Inactive)
REMARK    1  A    between atoms: C_2  and  C_3
REMARK    2  A    between atoms: C_7  and  C_8
REMARK    3  A    between atoms: C_9  and  C_10
REMARK                            x       y       z     vdW  Elec       q    Type
REMARK                         _______ _______ _______ _____ _____    ______ ____
ROOT
ATOM      1  O   UNL     1      -0.153  10.741  22.978  0.00  0.00    +0.000 OA
ATOM      2  C   UNL     1      -0.716  11.214  21.990  0.00  0.00    +0.000 C 
ATOM      3  N   UNL     1      -1.930  11.898  22.073  0.00  0.00    +0.000 N 
ATOM      4  C   UNL     1      -2.624  11.997  23.369  0.00  0.00    +0.000 C 
ATOM      5  C   UNL     1      -3.046  13.449  23.697  0.00  0.00    +0.000 C 
ATOM      6  N   UNL     1      -3.733  14.070  22.558  0.00  0.00    +0.000 N 
ATOM      7  C   UNL     1      -5.030  14.524  22.601  0.00  0.00    +0.000 A 
ATOM      8  C   UNL     1      -5.497  15.195  23.712  0.00  0.00    +0.000 A 
ATOM      9  C   UNL     1      -6.782  15.681  23.660  0.00  0.00    +0.000 A 
ATOM     10  N   UNL     1      -7.598  15.521  22.608  0.00  0.00    +0.000 NA
ATOM     11  C   UNL     1      -7.063  14.852  21.578  0.00  0.00    +0.000 A 
ATOM     12  N   UNL     1      -5.816  14.361  21.518  0.00  0.00    +0.000 NA
ATOM     13  C   UNL     1      -3.059  13.983  21.273  0.00  0.00    +0.000 C 
ATOM     14  C   UNL     1      -2.649  12.548  20.967  0.00  0.00    +0.000 C 
ENDROOT
BRANCH   2  15
ATOM     15  C   UNL     1      -0.014  11.110  20.677  0.00  0.00    +0.000 A 
ATOM     16  C   UNL     1       0.130  12.201  19.811  0.00  0.00    +0.000 A 
ATOM     17  C   UNL     1       1.008  12.137  18.731  0.00  0.00    +0.000 A 
ATOM     18  C   UNL     1       1.623  10.931  18.417  0.00  0.00    +0.000 A 
ATOM     19  C   UNL     1       1.357   9.795  19.183  0.00  0.00    +0.000 A 
ATOM     20  C   UNL     1       0.558   9.884  20.327  0.00  0.00    +0.000 A 
BRANCH  19  21
ATOM     21  C   UNL     1       1.903   8.542  18.783  0.00  0.00    +0.000 C 
ATOM     22  C   UNL     1       2.304   7.473  18.426  0.00  0.00    +0.000 C 
BRANCH  22  23
ATOM     23  C   UNL     1       2.746   6.184  17.988  0.00  0.00    +0.000 A 
ATOM     24  C   UNL     1       1.863   5.100  18.007  0.00  0.00    +0.000 A 
ATOM     25  C   UNL     1       2.297   3.843  17.586  0.00  0.00    +0.000 A 
ATOM     26  C   UNL     1       3.609   3.668  17.146  0.00  0.00    +0.000 A 
ATOM     27  C   UNL     1       4.490   4.749  17.128  0.00  0.00    +0.000 A 
ATOM     28  C   UNL     1       4.061   6.009  17.550  0.00  0.00    +0.000 A 
ENDBRANCH  22  23
ENDBRANCH  19  21
ENDBRANCH   2  15
TORSDOF 3
ENDMDL
MODEL 8
REMARK VINA RESULT:      -7.4      6.903      8.342
REMARK  Name = 
REMARK  3 active torsions:
REMARK  status: ('A' for Active; 'I' for Inactive)
REMARK    1  A    between atoms: C_2  and  C_3
REMARK    2  A    between atoms: C_7  and  C_8
REMARK    3  A    between atoms: C_9  and  C_10
REMARK                            x       y       z     vdW  Elec       q    Type
REMARK                         _______ _______ _______ _____ _____    ______ ____
ROOT
ATOM      1  O   UNL     1       9.562  15.446  20.558  0.00  0.00    +0.000 OA
ATOM      2  C   UNL     1       9.530  14.269  20.916  0.00  0.00    +0.000 C 
ATOM      3  N   UNL     1       8.935  13.864  22.113  0.00  0.00    +0.000 N 
ATOM      4  C   UNL     1       8.394  14.875  23.037  0.00  0.00    +0.000 C 
ATOM      5  C   UNL     1       6.953  14.542  23.489  0.00  0.00    +0.000 C 
ATOM      6  N   UNL     1       6.847  13.149  23.938  0.00  0.00    +0.000 N 
ATOM      7  C   UNL     1       6.485  12.780  25.212  0.00  0.00    +0.000 A 
ATOM      8  C   UNL     1       5.472  13.446  25.869  0.00  0.00    +0.000 A 
ATOM      9  C   UNL     1       5.116  12.982  27.113  0.00  0.00    +0.000 A 
ATOM     10  N   UNL     1       5.707  11.942  27.718  0.00  0.00    +0.000 NA
ATOM     11  C   UNL     1       6.683  11.360  27.009  0.00  0.00    +0.000 A 
ATOM     12  N   UNL     1       7.089  11.718  25.782  0.00  0.00    +0.000 NA
ATOM     13  C   UNL     1       7.374  12.139  23.035  0.00  0.00    +0.000 C 
ATOM     14  C   UNL     1       8.793  12.482  22.598  0.00  0.00    +0.000 C 
ENDROOT
BRANCH   2  15
ATOM     15  C   UNL     1      10.081  13.245  19.981  0.00  0.00    +0.000 A 
ATOM     16  C   UNL     1      11.330  13.384  19.361  0.00  0.00    +0.000 A 
ATOM     17  C   UNL     1      11.924  12.304  18.713  0.00  0.00    +0.000 A 
ATOM     18  C   UNL     1      11.204  11.129  18.538  0.00  0.00    +0.000 A 
ATOM     19  C   UNL     1       9.894  11.039  19.013  0.00  0.00    +0.000 A 
ATOM     20  C   UNL     1       9.337  12.085  19.754  0.00  0.00    +0.000 A 
BRANCH  19  21
ATOM     21  C   UNL     1       9.129   9.872  18.727  0.00  0.00    +0.000 C 
ATOM     22  C   UNL     1       8.539   8.865  18.466  0.00  0.00    +0.000 C 
BRANCH  22  23
ATOM     23  C   UNL     1       7.867   7.644  18.137  0.00  0.00    +0.000 A 
ATOM     24  C   UNL     1       6.953   7.615  17.080  0.00  0.00    +0.000 A 
ATOM     25  C   UNL     1       6.293   6.426  16.764  0.00  0.00    +0.000 A 
ATOM     26  C   UNL     1       6.546   5.271  17.502  0.00  0.00    +0.000 A 
ATOM     27  C   UNL     1       7.457   5.300  18.558  0.00  0.00    +0.000 A 
ATOM     28  C   UNL     1       8.119   6.488  18.878  0.00  0.00    +0.000 A 
ENDBRANCH  22  23
ENDBRANCH  19  21
ENDBRANCH   2  15
TORSDOF 3
ENDMDL
MODEL 9
REMARK VINA RESULT:      -7.3      3.700      4.497
REMARK  Name = 
REMARK  3 active torsions:
REMARK  status: ('A' for Active; 'I' for Inactive)
REMARK    1  A    between atoms: C_2  and  C_3
REMARK    2  A    between atoms: C_7  and  C_8
REMARK    3  A    between atoms: C_9  and  C_10
REMARK                            x       y       z     vdW  Elec       q    Type
REMARK                         _______ _______ _______ _____ _____    ______ ____
ROOT
ATOM      1  O   UNL     1      -1.526  11.044  18.743  0.00  0.00    +0.000 OA
ATOM      2  C   UNL     1      -1.242  11.218  19.928  0.00  0.00    +0.000 C 
ATOM      3  N   UNL     1      -1.882  12.172  20.722  0.00  0.00    +0.000 N 
ATOM      4  C   UNL     1      -2.879  13.072  20.118  0.00  0.00    +0.000 C 
ATOM      5  C   UNL     1      -4.193  13.120  20.933  0.00  0.00    +0.000 C 
ATOM      6  N   UNL     1      -3.924  13.335  22.359  0.00  0.00    +0.000 N 
ATOM      7  C   UNL     1      -4.374  14.423  23.069  0.00  0.00    +0.000 A 
ATOM      8  C   UNL     1      -5.649  14.907  22.868  0.00  0.00    +0.000 A 
ATOM      9  C   UNL     1      -6.057  15.955  23.658  0.00  0.00    +0.000 A 
ATOM     10  N   UNL     1      -5.282  16.533  24.588  0.00  0.00    +0.000 NA
ATOM     11  C   UNL     1      -4.059  16.002  24.710  0.00  0.00    +0.000 A 
ATOM     12  N   UNL     1      -3.574  14.967  24.008  0.00  0.00    +0.000 NA
ATOM     13  C   UNL     1      -2.944  12.451  22.970  0.00  0.00    +0.000 C 
ATOM     14  C   UNL     1      -1.658  12.414  22.155  0.00  0.00    +0.000 C 
ENDROOT
BRANCH   2  15
ATOM     15  C   UNL     1      -0.229  10.307  20.538  0.00  0.00    +0.000 A 
ATOM     16  C   UNL     1      -0.054  10.194  21.923  0.00  0.00    +0.000 A 
ATOM     17  C   UNL     1       0.704   9.156  22.460  0.00  0.00    +0.000 A 
ATOM     18  C   UNL     1       1.422   8.322  21.611  0.00  0.00    +0.000 A 
ATOM     19  C   UNL     1       1.380   8.531  20.232  0.00  0.00    +0.000 A 
ATOM     20  C   UNL     1       0.539   9.507  19.689  0.00  0.00    +0.000 A 
BRANCH  19  21
ATOM     21  C   UNL     1       2.209   7.743  19.382  0.00  0.00    +0.000 C 
ATOM     22  C   UNL     1       2.853   7.054  18.647  0.00  0.00    +0.000 C 
BRANCH  22  23
ATOM     23  C   UNL     1       3.590   6.210  17.756  0.00  0.00    +0.000 A 
ATOM     24  C   UNL     1       4.565   6.761  16.920  0.00  0.00    +0.000 A 
ATOM     25  C   UNL     1       5.278   5.939  16.047  0.00  0.00    +0.000 A 
ATOM     26  C   UNL     1       5.018   4.569  16.009  0.00  0.00    +0.000 A 
ATOM     27  C   UNL     1       4.045   4.019  16.843  0.00  0.00    +0.000 A 
ATOM     28  C   UNL     1       3.327   4.838  17.717  0.00  0.00    +0.000 A 
ENDBRANCH  22  23
ENDBRANCH  19  21
ENDBRANCH   2  15
TORSDOF 3
ENDMDL
