MODEL 1
REMARK VINA RESULT:      -7.6      0.000      0.000
REMARK  Name = 
REMARK  1 active torsions:
REMARK  status: ('A' for Active; 'I' for Inactive)
REMARK    1  A    between atoms: C_2  and  C_15
REMARK                            x       y       z     vdW  Elec       q    Type
REMARK                         _______ _______ _______ _____ _____    ______ ____
ROOT
ATOM      1  O   UNL     1       1.253   5.466  21.211  0.00  0.00    +0.000 OA
ATOM      2  C   UNL     1       1.844   5.891  20.212  0.00  0.00    +0.000 C 
ATOM      3  N   UNL     1       1.841   7.254  19.935  0.00  0.00    +0.000 N 
ATOM      4  C   UNL     1       2.471   7.941  18.800  0.00  0.00    +0.000 C 
ATOM      5  C   UNL     1       1.505   8.950  18.175  0.00  0.00    +0.000 C 
ATOM      6  N   UNL     1       1.119   9.931  19.182  0.00  0.00    +0.000 N 
ATOM      7  C   UNL     1       1.624  11.206  19.096  0.00  0.00    +0.000 A 
ATOM      8  N   UNL     1       2.326  11.536  17.997  0.00  0.00    +0.000 NA
ATOM      9  C   UNL     1       2.753  12.805  17.864  0.00  0.00    +0.000 A 
ATOM     10  C   UNL     1       2.518  13.775  18.797  0.00  0.00    +0.000 A 
ATOM     11  C   UNL     1       1.814  13.356  19.897  0.00  0.00    +0.000 A 
ATOM     12  N   UNL     1       1.367  12.093  20.069  0.00  0.00    +0.000 NA
ATOM     13  C   UNL     1       0.542   9.392  20.415  0.00  0.00    +0.000 C 
ATOM     14  C   UNL     1       1.359   8.196  20.970  0.00  0.00    +0.000 C 
ENDROOT
BRANCH   2  15
ATOM     15  C   UNL     1       2.609   4.889  19.300  0.00  0.00    +0.000 C 
ATOM     16  C   UNL     1       2.487   3.437  19.880  0.00  0.00    +0.000 C 
ATOM     17  C   UNL     1       3.288   2.423  19.031  0.00  0.00    +0.000 C 
ATOM     18  C   UNL     1       2.761   2.424  17.588  0.00  0.00    +0.000 C 
ATOM     19  C   UNL     1       2.870   3.838  17.000  0.00  0.00    +0.000 C 
ATOM     20  C   UNL     1       4.342   4.285  17.006  0.00  0.00    +0.000 C 
ATOM     21  C   UNL     1       4.911   4.241  18.433  0.00  0.00    +0.000 C 
ATOM     22  C   UNL     1       4.769   2.828  19.012  0.00  0.00    +0.000 C 
ATOM     23  C   UNL     1       4.124   5.219  19.311  0.00  0.00    +0.000 C 
ATOM     24  C   UNL     1       2.030   4.796  17.863  0.00  0.00    +0.000 C 
ENDBRANCH   2  15
TORSDOF 1
ENDMDL
MODEL 2
REMARK VINA RESULT:      -7.4      0.264      1.422
REMARK  Name = 
REMARK  1 active torsions:
REMARK  status: ('A' for Active; 'I' for Inactive)
REMARK    1  A    between atoms: C_2  and  C_15
REMARK                            x       y       z     vdW  Elec       q    Type
REMARK                         _______ _______ _______ _____ _____    ______ ____
ROOT
ATOM      1  O   UNL     1       1.314   5.449  21.132  0.00  0.00    +0.000 OA
ATOM      2  C   UNL     1       1.923   5.909  20.160  0.00  0.00    +0.000 C 
ATOM      3  N   UNL     1       1.885   7.275  19.904  0.00  0.00    +0.000 N 
ATOM      4  C   UNL     1       2.530   8.000  18.801  0.00  0.00    +0.000 C 
ATOM      5  C   UNL     1       1.552   8.987  18.158  0.00  0.00    +0.000 C 
ATOM      6  N   UNL     1       1.100   9.939  19.165  0.00  0.00    +0.000 N 
ATOM      7  C   UNL     1       1.564  11.230  19.116  0.00  0.00    +0.000 A 
ATOM      8  N   UNL     1       2.291  11.601  18.046  0.00  0.00    +0.000 NA
ATOM      9  C   UNL     1       2.680  12.885  17.946  0.00  0.00    +0.000 A 
ATOM     10  C   UNL     1       2.381  13.832  18.885  0.00  0.00    +0.000 A 
ATOM     11  C   UNL     1       1.655  13.373  19.953  0.00  0.00    +0.000 A 
ATOM     12  N   UNL     1       1.244  12.093  20.091  0.00  0.00    +0.000 NA
ATOM     13  C   UNL     1       0.499   9.362  20.370  0.00  0.00    +0.000 C 
ATOM     14  C   UNL     1       1.337   8.184  20.935  0.00  0.00    +0.000 C 
ENDROOT
BRANCH   2  15
ATOM     15  C   UNL     1       2.753   4.947  19.261  0.00  0.00    +0.000 C 
ATOM     16  C   UNL     1       1.987   4.675  17.919  0.00  0.00    +0.000 C 
ATOM     17  C   UNL     1       2.755   3.674  17.027  0.00  0.00    +0.000 C 
ATOM     18  C   UNL     1       4.147   4.234  16.697  0.00  0.00    +0.000 C 
ATOM     19  C   UNL     1       4.914   4.508  17.997  0.00  0.00    +0.000 C 
ATOM     20  C   UNL     1       5.066   3.198  18.791  0.00  0.00    +0.000 C 
ATOM     21  C   UNL     1       3.687   2.587  19.088  0.00  0.00    +0.000 C 
ATOM     22  C   UNL     1       2.927   2.346  17.777  0.00  0.00    +0.000 C 
ATOM     23  C   UNL     1       2.887   3.566  19.954  0.00  0.00    +0.000 C 
ATOM     24  C   UNL     1       4.123   5.533  18.830  0.00  0.00    +0.000 C 
ENDBRANCH   2  15
TORSDOF 1
ENDMDL
MODEL 3
REMARK VINA RESULT:      -7.4      2.294      3.605
REMARK  Name = 
REMARK  1 active torsions:
REMARK  status: ('A' for Active; 'I' for Inactive)
REMARK    1  A    between atoms: C_2  and  C_15
REMARK                            x       y       z     vdW  Elec       q    Type
REMARK                         _______ _______ _______ _____ _____    ______ ____
ROOT
ATOM      1  O   UNL     1       2.894   8.260  16.998  0.00  0.00    +0.000 OA
ATOM      2  C   UNL     1       2.449   7.790  18.050  0.00  0.00    +0.000 C 
ATOM      3  N   UNL     1       1.737   8.604  18.924  0.00  0.00    +0.000 N 
ATOM      4  C   UNL     1       1.145   8.233  20.216  0.00  0.00    +0.000 C 
ATOM      5  C   UNL     1       1.474   9.281  21.282  0.00  0.00    +0.000 C 
ATOM      6  N   UNL     1       0.947  10.574  20.861  0.00  0.00    +0.000 N 
ATOM      7  C   UNL     1      -0.157  11.083  21.500  0.00  0.00    +0.000 A 
ATOM      8  N   UNL     1      -0.609  10.441  22.592  0.00  0.00    +0.000 NA
ATOM      9  C   UNL     1      -1.637  10.976  23.275  0.00  0.00    +0.000 A 
ATOM     10  C   UNL     1      -2.254  12.138  22.907  0.00  0.00    +0.000 A 
ATOM     11  C   UNL     1      -1.750  12.722  21.773  0.00  0.00    +0.000 A 
ATOM     12  N   UNL     1      -0.720  12.218  21.060  0.00  0.00    +0.000 NA
ATOM     13  C   UNL     1       1.388  11.049  19.547  0.00  0.00    +0.000 C 
ATOM     14  C   UNL     1       1.300   9.942  18.464  0.00  0.00    +0.000 C 
ENDROOT
BRANCH   2  15
ATOM     15  C   UNL     1       2.669   6.280  18.359  0.00  0.00    +0.000 C 
ATOM     16  C   UNL     1       3.897   5.741  17.547  0.00  0.00    +0.000 C 
ATOM     17  C   UNL     1       4.107   4.228  17.783  0.00  0.00    +0.000 C 
ATOM     18  C   UNL     1       4.348   3.964  19.277  0.00  0.00    +0.000 C 
ATOM     19  C   UNL     1       3.157   4.486  20.092  0.00  0.00    +0.000 C 
ATOM     20  C   UNL     1       1.873   3.763  19.648  0.00  0.00    +0.000 C 
ATOM     21  C   UNL     1       1.637   3.965  18.143  0.00  0.00    +0.000 C 
ATOM     22  C   UNL     1       2.849   3.462  17.348  0.00  0.00    +0.000 C 
ATOM     23  C   UNL     1       1.448   5.461  17.867  0.00  0.00    +0.000 C 
ATOM     24  C   UNL     1       3.015   5.999  19.845  0.00  0.00    +0.000 C 
ENDBRANCH   2  15
TORSDOF 1
ENDMDL
MODEL 4
REMARK VINA RESULT:      -7.3      2.204      3.499
REMARK  Name = 
REMARK  1 active torsions:
REMARK  status: ('A' for Active; 'I' for Inactive)
REMARK    1  A    between atoms: C_2  and  C_15
REMARK                            x       y       z     vdW  Elec       q    Type
REMARK                         _______ _______ _______ _____ _____    ______ ____
ROOT
ATOM      1  O   UNL     1       2.963   7.445  17.745  0.00  0.00    +0.000 OA
ATOM      2  C   UNL     1       2.344   7.125  18.765  0.00  0.00    +0.000 C 
ATOM      3  N   UNL     1       1.673   8.096  19.500  0.00  0.00    +0.000 N 
ATOM      4  C   UNL     1       0.899   7.911  20.735  0.00  0.00    +0.000 C 
ATOM      5  C   UNL     1       1.266   8.981  21.767  0.00  0.00    +0.000 C 
ATOM      6  N   UNL     1       0.984  10.299  21.211  0.00  0.00    +0.000 N 
ATOM      7  C   UNL     1      -0.093  11.006  21.686  0.00  0.00    +0.000 A 
ATOM      8  N   UNL     1      -0.748  10.519  22.756  0.00  0.00    +0.000 NA
ATOM      9  C   UNL     1      -1.751  11.244  23.281  0.00  0.00    +0.000 A 
ATOM     10  C   UNL     1      -2.147  12.450  22.775  0.00  0.00    +0.000 A 
ATOM     11  C   UNL     1      -1.445  12.869  21.674  0.00  0.00    +0.000 A 
ATOM     12  N   UNL     1      -0.431  12.172  21.116  0.00  0.00    +0.000 NA
ATOM     13  C   UNL     1       1.627  10.606  19.930  0.00  0.00    +0.000 C 
ATOM     14  C   UNL     1       1.491   9.442  18.914  0.00  0.00    +0.000 C 
ENDROOT
BRANCH   2  15
ATOM     15  C   UNL     1       2.304   5.627  19.188  0.00  0.00    +0.000 C 
ATOM     16  C   UNL     1       3.750   5.127  19.529  0.00  0.00    +0.000 C 
ATOM     17  C   UNL     1       3.755   3.626  19.894  0.00  0.00    +0.000 C 
ATOM     18  C   UNL     1       2.849   3.385  21.112  0.00  0.00    +0.000 C 
ATOM     19  C   UNL     1       1.427   3.869  20.800  0.00  0.00    +0.000 C 
ATOM     20  C   UNL     1       0.873   3.093  19.590  0.00  0.00    +0.000 C 
ATOM     21  C   UNL     1       1.792   3.273  18.371  0.00  0.00    +0.000 C 
ATOM     22  C   UNL     1       3.214   2.810  18.712  0.00  0.00    +0.000 C 
ATOM     23  C   UNL     1       1.830   4.758  17.994  0.00  0.00    +0.000 C 
ATOM     24  C   UNL     1       1.477   5.372  20.476  0.00  0.00    +0.000 C 
ENDBRANCH   2  15
TORSDOF 1
ENDMDL
MODEL 5
REMARK VINA RESULT:      -7.2      1.965      3.102
REMARK  Name = 
REMARK  1 active torsions:
REMARK  status: ('A' for Active; 'I' for Inactive)
REMARK    1  A    between atoms: C_2  and  C_15
REMARK                            x       y       z     vdW  Elec       q    Type
REMARK                         _______ _______ _______ _____ _____    ______ ____
ROOT
ATOM      1  O   UNL     1       3.852   6.473  17.397  0.00  0.00    +0.000 OA
ATOM      2  C   UNL     1       2.932   6.421  18.220  0.00  0.00    +0.000 C 
ATOM      3  N   UNL     1       2.198   7.566  18.509  0.00  0.00    +0.000 N 
ATOM      4  C   UNL     1       1.084   7.702  19.458  0.00  0.00    +0.000 C 
ATOM      5  C   UNL     1       1.262   8.953  20.323  0.00  0.00    +0.000 C 
ATOM      6  N   UNL     1       1.313  10.128  19.462  0.00  0.00    +0.000 N 
ATOM      7  C   UNL     1       0.236  10.981  19.436  0.00  0.00    +0.000 A 
ATOM      8  N   UNL     1      -0.753  10.779  20.326  0.00  0.00    +0.000 NA
ATOM      9  C   UNL     1      -1.771  11.657  20.366  0.00  0.00    +0.000 A 
ATOM     10  C   UNL     1      -1.858  12.741  19.539  0.00  0.00    +0.000 A 
ATOM     11  C   UNL     1      -0.823  12.866  18.647  0.00  0.00    +0.000 A 
ATOM     12  N   UNL     1       0.218  12.008  18.575  0.00  0.00    +0.000 NA
ATOM     13  C   UNL     1       2.329  10.108  18.407  0.00  0.00    +0.000 C 
ATOM     14  C   UNL     1       2.354   8.757  17.645  0.00  0.00    +0.000 C 
ENDROOT
BRANCH   2  15
ATOM     15  C   UNL     1       2.593   5.059  18.893  0.00  0.00    +0.000 C 
ATOM     16  C   UNL     1       3.836   4.105  18.828  0.00  0.00    +0.000 C 
ATOM     17  C   UNL     1       3.515   2.720  19.433  0.00  0.00    +0.000 C 
ATOM     18  C   UNL     1       3.091   2.881  20.901  0.00  0.00    +0.000 C 
ATOM     19  C   UNL     1       1.875   3.812  20.988  0.00  0.00    +0.000 C 
ATOM     20  C   UNL     1       0.708   3.211  20.183  0.00  0.00    +0.000 C 
ATOM     21  C   UNL     1       1.124   2.989  18.720  0.00  0.00    +0.000 C 
ATOM     22  C   UNL     1       2.357   2.078  18.657  0.00  0.00    +0.000 C 
ATOM     23  C   UNL     1       1.474   4.343  18.093  0.00  0.00    +0.000 C 
ATOM     24  C   UNL     1       2.260   5.183  20.403  0.00  0.00    +0.000 C 
ENDBRANCH   2  15
TORSDOF 1
ENDMDL
MODEL 6
REMARK VINA RESULT:      -7.1      2.236      3.564
REMARK  Name = 
REMARK  1 active torsions:
REMARK  status: ('A' for Active; 'I' for Inactive)
REMARK    1  A    between atoms: C_2  and  C_15
REMARK                            x       y       z     vdW  Elec       q    Type
REMARK                         _______ _______ _______ _____ _____    ______ ____
ROOT
ATOM      1  O   UNL     1       2.916   7.524  17.711  0.00  0.00    +0.000 OA
ATOM      2  C   UNL     1       2.336   7.194  18.750  0.00  0.00    +0.000 C 
ATOM      3  N   UNL     1       1.652   8.150  19.494  0.00  0.00    +0.000 N 
ATOM      4  C   UNL     1       0.918   7.953  20.751  0.00  0.00    +0.000 C 
ATOM      5  C   UNL     1       1.276   9.044  21.763  0.00  0.00    +0.000 C 
ATOM      6  N   UNL     1       0.937  10.347  21.202  0.00  0.00    +0.000 N 
ATOM      7  C   UNL     1      -0.150  11.023  21.699  0.00  0.00    +0.000 A 
ATOM      8  N   UNL     1      -0.760  10.526  22.790  0.00  0.00    +0.000 NA
ATOM      9  C   UNL     1      -1.772  11.223  23.336  0.00  0.00    +0.000 A 
ATOM     10  C   UNL     1      -2.221  12.411  22.830  0.00  0.00    +0.000 A 
ATOM     11  C   UNL     1      -1.562  12.841  21.706  0.00  0.00    +0.000 A 
ATOM     12  N   UNL     1      -0.541  12.172  21.128  0.00  0.00    +0.000 NA
ATOM     13  C   UNL     1       1.536  10.661  19.902  0.00  0.00    +0.000 C 
ATOM     14  C   UNL     1       1.411   9.484  18.900  0.00  0.00    +0.000 C 
ENDROOT
BRANCH   2  15
ATOM     15  C   UNL     1       2.355   5.700  19.188  0.00  0.00    +0.000 C 
ATOM     16  C   UNL     1       1.878   4.789  18.003  0.00  0.00    +0.000 C 
ATOM     17  C   UNL     1       1.827   3.302  18.423  0.00  0.00    +0.000 C 
ATOM     18  C   UNL     1       3.222   2.841  18.870  0.00  0.00    +0.000 C 
ATOM     19  C   UNL     1       3.709   3.721  20.029  0.00  0.00    +0.000 C 
ATOM     20  C   UNL     1       2.729   3.603  21.211  0.00  0.00    +0.000 C 
ATOM     21  C   UNL     1       1.312   4.008  20.775  0.00  0.00    +0.000 C 
ATOM     22  C   UNL     1       0.855   3.136  19.599  0.00  0.00    +0.000 C 
ATOM     23  C   UNL     1       1.330   5.474  20.329  0.00  0.00    +0.000 C 
ATOM     24  C   UNL     1       3.772   5.181  19.548  0.00  0.00    +0.000 C 
ENDBRANCH   2  15
TORSDOF 1
ENDMDL
MODEL 7
REMARK VINA RESULT:      -7.1      0.337      1.662
REMARK  Name = 
REMARK  1 active torsions:
REMARK  status: ('A' for Active; 'I' for Inactive)
REMARK    1  A    between atoms: C_2  and  C_15
REMARK                            x       y       z     vdW  Elec       q    Type
REMARK                         _______ _______ _______ _____ _____    ______ ____
ROOT
ATOM      1  O   UNL     1       1.302   5.413  21.139  0.00  0.00    +0.000 OA
ATOM      2  C   UNL     1       1.916   5.880  20.174  0.00  0.00    +0.000 C 
ATOM      3  N   UNL     1       1.874   7.247  19.925  0.00  0.00    +0.000 N 
ATOM      4  C   UNL     1       2.523   7.980  18.830  0.00  0.00    +0.000 C 
ATOM      5  C   UNL     1       1.546   8.967  18.186  0.00  0.00    +0.000 C 
ATOM      6  N   UNL     1       1.085   9.912  19.196  0.00  0.00    +0.000 N 
ATOM      7  C   UNL     1       1.545  11.206  19.156  0.00  0.00    +0.000 A 
ATOM      8  N   UNL     1       2.278  11.585  18.094  0.00  0.00    +0.000 NA
ATOM      9  C   UNL     1       2.663  12.870  18.003  0.00  0.00    +0.000 A 
ATOM     10  C   UNL     1       2.355  13.812  18.945  0.00  0.00    +0.000 A 
ATOM     11  C   UNL     1       1.623  13.344  20.006  0.00  0.00    +0.000 A 
ATOM     12  N   UNL     1       1.216  12.062  20.135  0.00  0.00    +0.000 NA
ATOM     13  C   UNL     1       0.478   9.327  20.394  0.00  0.00    +0.000 C 
ATOM     14  C   UNL     1       1.316   8.149  20.958  0.00  0.00    +0.000 C 
ENDROOT
BRANCH   2  15
ATOM     15  C   UNL     1       2.753   4.925  19.274  0.00  0.00    +0.000 C 
ATOM     16  C   UNL     1       4.127   5.593  18.919  0.00  0.00    +0.000 C 
ATOM     17  C   UNL     1       4.961   4.696  17.975  0.00  0.00    +0.000 C 
ATOM     18  C   UNL     1       5.229   3.342  18.649  0.00  0.00    +0.000 C 
ATOM     19  C   UNL     1       3.896   2.671  19.007  0.00  0.00    +0.000 C 
ATOM     20  C   UNL     1       3.072   2.449  17.726  0.00  0.00    +0.000 C 
ATOM     21  C   UNL     1       2.835   3.784  17.002  0.00  0.00    +0.000 C 
ATOM     22  C   UNL     1       4.178   4.452  16.678  0.00  0.00    +0.000 C 
ATOM     23  C   UNL     1       2.029   4.710  17.920  0.00  0.00    +0.000 C 
ATOM     24  C   UNL     1       3.125   3.590  19.971  0.00  0.00    +0.000 C 
ENDBRANCH   2  15
TORSDOF 1
ENDMDL
MODEL 8
REMARK VINA RESULT:      -7.1      8.761     10.474
REMARK  Name = 
REMARK  1 active torsions:
REMARK  status: ('A' for Active; 'I' for Inactive)
REMARK    1  A    between atoms: C_2  and  C_15
REMARK                            x       y       z     vdW  Elec       q    Type
REMARK                         _______ _______ _______ _____ _____    ______ ____
ROOT
ATOM      1  O   UNL     1      10.315  15.343  21.813  0.00  0.00    +0.000 OA
ATOM      2  C   UNL     1       9.791  14.227  21.724  0.00  0.00    +0.000 C 
ATOM      3  N   UNL     1       8.973  13.764  22.748  0.00  0.00    +0.000 N 
ATOM      4  C   UNL     1       8.277  12.473  22.827  0.00  0.00    +0.000 C 
ATOM      5  C   UNL     1       8.469  11.839  24.208  0.00  0.00    +0.000 C 
ATOM      6  N   UNL     1       7.939  12.739  25.226  0.00  0.00    +0.000 N 
ATOM      7  C   UNL     1       6.763  12.412  25.856  0.00  0.00    +0.000 A 
ATOM      8  N   UNL     1       6.235  11.197  25.620  0.00  0.00    +0.000 NA
ATOM      9  C   UNL     1       5.130  10.834  26.295  0.00  0.00    +0.000 A 
ATOM     10  C   UNL     1       4.509  11.643  27.204  0.00  0.00    +0.000 A 
ATOM     11  C   UNL     1       5.095  12.871  27.374  0.00  0.00    +0.000 A 
ATOM     12  N   UNL     1       6.204  13.274  26.717  0.00  0.00    +0.000 NA
ATOM     13  C   UNL     1       8.482  14.099  25.226  0.00  0.00    +0.000 C 
ATOM     14  C   UNL     1       8.535  14.709  23.800  0.00  0.00    +0.000 C 
ENDROOT
BRANCH   2  15
ATOM     15  C   UNL     1      10.034  13.376  20.443  0.00  0.00    +0.000 C 
ATOM     16  C   UNL     1      11.216  13.985  19.611  0.00  0.00    +0.000 C 
ATOM     17  C   UNL     1      11.444  13.198  18.301  0.00  0.00    +0.000 C 
ATOM     18  C   UNL     1      11.772  11.733  18.625  0.00  0.00    +0.000 C 
ATOM     19  C   UNL     1      10.628  11.117  19.441  0.00  0.00    +0.000 C 
ATOM     20  C   UNL     1       9.323  11.179  18.627  0.00  0.00    +0.000 C 
ATOM     21  C   UNL     1       9.000  12.632  18.242  0.00  0.00    +0.000 C 
ATOM     22  C   UNL     1      10.166  13.238  17.451  0.00  0.00    +0.000 C 
ATOM     23  C   UNL     1       8.790  13.449  19.521  0.00  0.00    +0.000 C 
ATOM     24  C   UNL     1      10.466  11.917  20.746  0.00  0.00    +0.000 C 
ENDBRANCH   2  15
TORSDOF 1
ENDMDL
MODEL 9
REMARK VINA RESULT:      -7.0      2.254      3.256
REMARK  Name = 
REMARK  1 active torsions:
REMARK  status: ('A' for Active; 'I' for Inactive)
REMARK    1  A    between atoms: C_2  and  C_15
REMARK                            x       y       z     vdW  Elec       q    Type
REMARK                         _______ _______ _______ _____ _____    ______ ____
ROOT
ATOM      1  O   UNL     1       2.957   8.157  16.936  0.00  0.00    +0.000 OA
ATOM      2  C   UNL     1       2.509   7.666  17.977  0.00  0.00    +0.000 C 
ATOM      3  N   UNL     1       1.807   8.467  18.872  0.00  0.00    +0.000 N 
ATOM      4  C   UNL     1       1.214   8.071  20.156  0.00  0.00    +0.000 C 
ATOM      5  C   UNL     1       1.557   9.089  21.247  0.00  0.00    +0.000 C 
ATOM      6  N   UNL     1       1.043  10.397  20.859  0.00  0.00    +0.000 N 
ATOM      7  C   UNL     1      -0.054  10.902  21.512  0.00  0.00    +0.000 A 
ATOM      8  N   UNL     1      -0.511  10.238  22.590  0.00  0.00    +0.000 NA
ATOM      9  C   UNL     1      -1.531  10.768  23.288  0.00  0.00    +0.000 A 
ATOM     10  C   UNL     1      -2.137  11.945  22.950  0.00  0.00    +0.000 A 
ATOM     11  C   UNL     1      -1.629  12.551  21.829  0.00  0.00    +0.000 A 
ATOM     12  N   UNL     1      -0.606  12.054  21.101  0.00  0.00    +0.000 NA
ATOM     13  C   UNL     1       1.486  10.900  19.556  0.00  0.00    +0.000 C 
ATOM     14  C   UNL     1       1.384   9.820  18.446  0.00  0.00    +0.000 C 
ENDROOT
BRANCH   2  15
ATOM     15  C   UNL     1       2.713   6.147  18.249  0.00  0.00    +0.000 C 
ATOM     16  C   UNL     1       2.918   5.900  19.784  0.00  0.00    +0.000 C 
ATOM     17  C   UNL     1       3.185   4.408  20.083  0.00  0.00    +0.000 C 
ATOM     18  C   UNL     1       1.997   3.561  19.601  0.00  0.00    +0.000 C 
ATOM     19  C   UNL     1       1.777   3.789  18.099  0.00  0.00    +0.000 C 
ATOM     20  C   UNL     1       3.043   3.378  17.326  0.00  0.00    +0.000 C 
ATOM     21  C   UNL     1       4.260   4.172  17.827  0.00  0.00    +0.000 C 
ATOM     22  C   UNL     1       4.446   3.953  19.334  0.00  0.00    +0.000 C 
ATOM     23  C   UNL     1       4.020   5.663  17.568  0.00  0.00    +0.000 C 
ATOM     24  C   UNL     1       1.485   5.282  17.864  0.00  0.00    +0.000 C 
ENDBRANCH   2  15
TORSDOF 1
ENDMDL
