MODEL 1
REMARK VINA RESULT:      -8.9      0.000      0.000
REMARK  Name = 
REMARK  8 active torsions:
REMARK  status: ('A' for Active; 'I' for Inactive)
REMARK    1  A    between atoms: C_2  and  C_3
REMARK    2  A    between atoms: N_5  and  C_6
REMARK    3  A    between atoms: C_11  and  N_12
REMARK    4  A    between atoms: N_12  and  C_13
REMARK    5  A    between atoms: N_16  and  C_17
REMARK    6  A    between atoms: C_20  and  N_21
REMARK    7  A    between atoms: N_24  and  C_25
REMARK    8  A    between atoms: C_32  and  C_33
REMARK                            x       y       z     vdW  Elec       q    Type
REMARK                         _______ _______ _______ _____ _____    ______ ____
ROOT
ATOM      1  C   UNL     1      -2.670  12.302  19.124  0.00  0.00    +0.000 A 
ATOM      2  N   UNL     1      -1.360  12.026  19.308  0.00  0.00    +0.000 NA
ATOM      3  C   UNL     1      -0.832  10.962  18.697  0.00  0.00    +0.000 A 
ATOM      4  N   UNL     1       0.493  10.688  19.032  0.00  0.00    +0.000 N 
ATOM      5  N   UNL     1      -1.547  10.155  17.913  0.00  0.00    +0.000 NA
ATOM      6  C   UNL     1      -2.853  10.427  17.759  0.00  0.00    +0.000 A 
ATOM      7  C   UNL     1      -3.497  11.500  18.339  0.00  0.00    +0.000 A 
ATOM      8  H   UNL     1       0.810  11.383  19.694  0.00  0.00    +0.000 HD
ENDROOT
BRANCH   4   9
ATOM      9  C   UNL     1       1.150   9.453  19.076  0.00  0.00    +0.000 A 
ATOM     10  C   UNL     1       1.755   8.873  17.965  0.00  0.00    +0.000 A 
ATOM     11  C   UNL     1       2.344   7.609  18.038  0.00  0.00    +0.000 A 
ATOM     12  C   UNL     1       2.391   6.876  19.228  0.00  0.00    +0.000 A 
ATOM     13  C   UNL     1       1.811   7.480  20.350  0.00  0.00    +0.000 A 
ATOM     14  C   UNL     1       1.209   8.747  20.280  0.00  0.00    +0.000 A 
BRANCH  12  15
ATOM     15  N   UNL     1       2.924   5.602  19.240  0.00  0.00    +0.000 N 
ATOM     16  C   UNL     1       4.107   5.286  18.416  0.00  0.00    +0.000 C 
ATOM     17  C   UNL     1       4.019   3.822  17.932  0.00  0.00    +0.000 C 
ATOM     18  N   UNL     1       3.901   2.864  19.056  0.00  0.00    +0.000 NA
ATOM     19  C   UNL     1       3.761   1.502  18.550  0.00  0.00    +0.000 C 
ATOM     20  C   UNL     1       2.732   3.231  19.888  0.00  0.00    +0.000 C 
ATOM     21  C   UNL     1       2.769   4.697  20.389  0.00  0.00    +0.000 C 
ENDBRANCH  12  15
ENDBRANCH   4   9
BRANCH   7  22
ATOM     22  C   UNL     1      -4.938  11.666  18.201  0.00  0.00    +0.000 A 
ATOM     23  C   UNL     1      -5.698  12.513  17.341  0.00  0.00    +0.000 A 
ATOM     24  C   UNL     1      -7.019  12.333  17.673  0.00  0.00    +0.000 A 
ATOM     25  O   UNL     1      -7.134  11.438  18.684  0.00  0.00    +0.000 OA
ATOM     26  C   UNL     1      -5.877  11.040  19.003  0.00  0.00    +0.000 A 
ENDBRANCH   7  22
BRANCH   1  27
ATOM     27  N   UNL     1      -3.182  13.433  19.791  0.00  0.00    +0.000 N 
ATOM     28  H   UNL     1      -2.515  14.193  19.691  0.00  0.00    +0.000 HD
BRANCH  27  34
ATOM     29  C   UNL     1      -3.739  12.749  22.159  0.00  0.00    +0.000 A 
ATOM     30  C   UNL     1      -4.649  12.868  23.223  0.00  0.00    +0.000 A 
ATOM     31  C   UNL     1      -5.751  13.716  23.150  0.00  0.00    +0.000 A 
ATOM     32  C   UNL     1      -5.967  14.471  22.006  0.00  0.00    +0.000 A 
ATOM     33  C   UNL     1      -5.076  14.377  20.941  0.00  0.00    +0.000 A 
ATOM     34  C   UNL     1      -3.940  13.533  20.990  0.00  0.00    +0.000 A 
BRANCH  29  37
ATOM     35  C   UNL     1      -1.409  12.135  22.837  0.00  0.00    +0.000 C 
ATOM     36  O   UNL     1      -1.115  13.121  23.504  0.00  0.00    +0.000 OA
ATOM     37  N   UNL     1      -2.636  11.864  22.266  0.00  0.00    +0.000 N 
ATOM     38  H   UNL     1      -2.786  10.953  21.858  0.00  0.00    +0.000 HD
BRANCH  35  40
ATOM     39  C   UNL     1      -0.529   9.880  23.202  0.00  0.00    +0.000 C 
ATOM     40  C   UNL     1      -0.401  11.066  22.589  0.00  0.00    +0.000 C 
ENDBRANCH  35  40
ENDBRANCH  29  37
ENDBRANCH  27  34
ENDBRANCH   1  27
TORSDOF 7
ENDMDL
MODEL 2
REMARK VINA RESULT:      -8.5      2.524      4.383
REMARK  Name = 
REMARK  8 active torsions:
REMARK  status: ('A' for Active; 'I' for Inactive)
REMARK    1  A    between atoms: C_2  and  C_3
REMARK    2  A    between atoms: N_5  and  C_6
REMARK    3  A    between atoms: C_11  and  N_12
REMARK    4  A    between atoms: N_12  and  C_13
REMARK    5  A    between atoms: N_16  and  C_17
REMARK    6  A    between atoms: C_20  and  N_21
REMARK    7  A    between atoms: N_24  and  C_25
REMARK    8  A    between atoms: C_32  and  C_33
REMARK                            x       y       z     vdW  Elec       q    Type
REMARK                         _______ _______ _______ _____ _____    ______ ____
ROOT
ATOM      1  C   UNL     1      -1.528  13.020  19.962  0.00  0.00    +0.000 A 
ATOM      2  N   UNL     1      -1.355  11.682  20.023  0.00  0.00    +0.000 NA
ATOM      3  C   UNL     1      -0.114  11.190  20.049  0.00  0.00    +0.000 A 
ATOM      4  N   UNL     1      -0.029   9.800  19.997  0.00  0.00    +0.000 N 
ATOM      5  N   UNL     1       0.968  11.969  20.012  0.00  0.00    +0.000 NA
ATOM      6  C   UNL     1       0.781  13.296  19.926  0.00  0.00    +0.000 A 
ATOM      7  C   UNL     1      -0.454  13.907  19.897  0.00  0.00    +0.000 A 
ATOM      8  H   UNL     1      -0.964   9.420  19.957  0.00  0.00    +0.000 HD
ENDROOT
BRANCH   4   9
ATOM      9  C   UNL     1       0.982   9.002  19.450  0.00  0.00    +0.000 A 
ATOM     10  C   UNL     1       1.489   9.189  18.167  0.00  0.00    +0.000 A 
ATOM     11  C   UNL     1       2.453   8.329  17.636  0.00  0.00    +0.000 A 
ATOM     12  C   UNL     1       2.985   7.264  18.368  0.00  0.00    +0.000 A 
ATOM     13  C   UNL     1       2.496   7.102  19.670  0.00  0.00    +0.000 A 
ATOM     14  C   UNL     1       1.519   7.957  20.206  0.00  0.00    +0.000 A 
BRANCH  12  15
ATOM     15  N   UNL     1       3.886   6.397  17.780  0.00  0.00    +0.000 N 
ATOM     16  C   UNL     1       5.113   6.921  17.149  0.00  0.00    +0.000 C 
ATOM     17  C   UNL     1       5.485   6.037  15.940  0.00  0.00    +0.000 C 
ATOM     18  N   UNL     1       5.665   4.616  16.317  0.00  0.00    +0.000 NA
ATOM     19  C   UNL     1       5.958   3.809  15.135  0.00  0.00    +0.000 C 
ATOM     20  C   UNL     1       4.436   4.130  16.986  0.00  0.00    +0.000 C 
ATOM     21  C   UNL     1       4.014   4.994  18.201  0.00  0.00    +0.000 C 
ENDBRANCH  12  15
ENDBRANCH   4   9
BRANCH   7  22
ATOM     22  C   UNL     1      -0.568  15.347  19.703  0.00  0.00    +0.000 A 
ATOM     23  C   UNL     1      -0.381  16.146  18.537  0.00  0.00    +0.000 A 
ATOM     24  C   UNL     1      -0.536  17.455  18.924  0.00  0.00    +0.000 A 
ATOM     25  O   UNL     1      -0.799  17.528  20.251  0.00  0.00    +0.000 OA
ATOM     26  C   UNL     1      -0.815  16.254  20.719  0.00  0.00    +0.000 A 
ENDBRANCH   7  22
BRANCH   1  27
ATOM     27  N   UNL     1      -2.856  13.491  19.935  0.00  0.00    +0.000 N 
ATOM     28  H   UNL     1      -2.887  14.389  20.409  0.00  0.00    +0.000 HD
BRANCH  27  34
ATOM     29  C   UNL     1      -4.703  12.057  18.977  0.00  0.00    +0.000 A 
ATOM     30  C   UNL     1      -5.986  11.519  19.180  0.00  0.00    +0.000 A 
ATOM     31  C   UNL     1      -6.673  11.702  20.376  0.00  0.00    +0.000 A 
ATOM     32  C   UNL     1      -6.090  12.429  21.405  0.00  0.00    +0.000 A 
ATOM     33  C   UNL     1      -4.817  12.965  21.231  0.00  0.00    +0.000 A 
ATOM     34  C   UNL     1      -4.087  12.786  20.031  0.00  0.00    +0.000 A 
BRANCH  29  37
ATOM     35  C   UNL     1      -3.415  10.708  17.308  0.00  0.00    +0.000 C 
ATOM     36  O   UNL     1      -3.470   9.604  17.838  0.00  0.00    +0.000 OA
ATOM     37  N   UNL     1      -4.040  11.860  17.738  0.00  0.00    +0.000 N 
ATOM     38  H   UNL     1      -4.025  12.671  17.136  0.00  0.00    +0.000 HD
BRANCH  35  40
ATOM     39  C   UNL     1      -3.028  10.308  14.924  0.00  0.00    +0.000 C 
ATOM     40  C   UNL     1      -2.628  10.903  16.057  0.00  0.00    +0.000 C 
ENDBRANCH  35  40
ENDBRANCH  29  37
ENDBRANCH  27  34
ENDBRANCH   1  27
TORSDOF 7
ENDMDL
MODEL 3
REMARK VINA RESULT:      -8.4      1.589      2.977
REMARK  Name = 
REMARK  8 active torsions:
REMARK  status: ('A' for Active; 'I' for Inactive)
REMARK    1  A    between atoms: C_2  and  C_3
REMARK    2  A    between atoms: N_5  and  C_6
REMARK    3  A    between atoms: C_11  and  N_12
REMARK    4  A    between atoms: N_12  and  C_13
REMARK    5  A    between atoms: N_16  and  C_17
REMARK    6  A    between atoms: C_20  and  N_21
REMARK    7  A    between atoms: N_24  and  C_25
REMARK    8  A    between atoms: C_32  and  C_33
REMARK                            x       y       z     vdW  Elec       q    Type
REMARK                         _______ _______ _______ _____ _____    ______ ____
ROOT
ATOM      1  C   UNL     1      -2.719  12.194  19.395  0.00  0.00    +0.000 A 
ATOM      2  N   UNL     1      -1.418  11.911  19.623  0.00  0.00    +0.000 NA
ATOM      3  C   UNL     1      -0.831  10.947  18.908  0.00  0.00    +0.000 A 
ATOM      4  N   UNL     1       0.475  10.645  19.285  0.00  0.00    +0.000 N 
ATOM      5  N   UNL     1      -1.481  10.245  17.979  0.00  0.00    +0.000 NA
ATOM      6  C   UNL     1      -2.781  10.521  17.782  0.00  0.00    +0.000 A 
ATOM      7  C   UNL     1      -3.480  11.496  18.459  0.00  0.00    +0.000 A 
ATOM      8  H   UNL     1       0.738  11.247  20.053  0.00  0.00    +0.000 HD
ENDROOT
BRANCH   4   9
ATOM      9  C   UNL     1       1.153   9.423  19.204  0.00  0.00    +0.000 A 
ATOM     10  C   UNL     1       1.722   8.946  18.026  0.00  0.00    +0.000 A 
ATOM     11  C   UNL     1       2.334   7.692  17.974  0.00  0.00    +0.000 A 
ATOM     12  C   UNL     1       2.441   6.867  19.098  0.00  0.00    +0.000 A 
ATOM     13  C   UNL     1       1.897   7.368  20.287  0.00  0.00    +0.000 A 
ATOM     14  C   UNL     1       1.272   8.625  20.344  0.00  0.00    +0.000 A 
BRANCH  12  15
ATOM     15  N   UNL     1       2.994   5.606  18.986  0.00  0.00    +0.000 N 
ATOM     16  C   UNL     1       3.965   5.316  17.914  0.00  0.00    +0.000 C 
ATOM     17  C   UNL     1       3.804   3.848  17.460  0.00  0.00    +0.000 C 
ATOM     18  N   UNL     1       3.971   2.893  18.580  0.00  0.00    +0.000 NA
ATOM     19  C   UNL     1       3.753   1.525  18.117  0.00  0.00    +0.000 C 
ATOM     20  C   UNL     1       3.014   3.234  19.658  0.00  0.00    +0.000 C 
ATOM     21  C   UNL     1       3.128   4.703  20.139  0.00  0.00    +0.000 C 
ENDBRANCH  12  15
ENDBRANCH   4   9
BRANCH   7  22
ATOM     22  C   UNL     1      -4.914  11.663  18.254  0.00  0.00    +0.000 A 
ATOM     23  C   UNL     1      -6.024  11.177  19.006  0.00  0.00    +0.000 A 
ATOM     24  C   UNL     1      -7.158  11.560  18.331  0.00  0.00    +0.000 A 
ATOM     25  O   UNL     1      -6.831  12.244  17.208  0.00  0.00    +0.000 OA
ATOM     26  C   UNL     1      -5.477  12.302  17.163  0.00  0.00    +0.000 A 
ENDBRANCH   7  22
BRANCH   1  27
ATOM     27  N   UNL     1      -3.293  13.218  20.175  0.00  0.00    +0.000 N 
ATOM     28  H   UNL     1      -2.797  14.084  19.982  0.00  0.00    +0.000 HD
BRANCH  27  34
ATOM     29  C   UNL     1      -4.959  13.929  21.938  0.00  0.00    +0.000 A 
ATOM     30  C   UNL     1      -5.299  13.896  23.301  0.00  0.00    +0.000 A 
ATOM     31  C   UNL     1      -4.548  13.173  24.224  0.00  0.00    +0.000 A 
ATOM     32  C   UNL     1      -3.435  12.459  23.801  0.00  0.00    +0.000 A 
ATOM     33  C   UNL     1      -3.082  12.470  22.454  0.00  0.00    +0.000 A 
ATOM     34  C   UNL     1      -3.832  13.185  21.491  0.00  0.00    +0.000 A 
BRANCH  29  37
ATOM     35  C   UNL     1      -7.030  14.416  20.620  0.00  0.00    +0.000 C 
ATOM     36  O   UNL     1      -7.786  13.575  21.093  0.00  0.00    +0.000 OA
ATOM     37  N   UNL     1      -5.741  14.688  21.030  0.00  0.00    +0.000 N 
ATOM     38  H   UNL     1      -5.275  15.498  20.648  0.00  0.00    +0.000 HD
BRANCH  35  40
ATOM     39  C   UNL     1      -6.607  15.641  18.542  0.00  0.00    +0.000 C 
ATOM     40  C   UNL     1      -7.481  15.286  19.496  0.00  0.00    +0.000 C 
ENDBRANCH  35  40
ENDBRANCH  29  37
ENDBRANCH  27  34
ENDBRANCH   1  27
TORSDOF 7
ENDMDL
MODEL 4
REMARK VINA RESULT:      -8.4      1.320      1.606
REMARK  Name = 
REMARK  8 active torsions:
REMARK  status: ('A' for Active; 'I' for Inactive)
REMARK    1  A    between atoms: C_2  and  C_3
REMARK    2  A    between atoms: N_5  and  C_6
REMARK    3  A    between atoms: C_11  and  N_12
REMARK    4  A    between atoms: N_12  and  C_13
REMARK    5  A    between atoms: N_16  and  C_17
REMARK    6  A    between atoms: C_20  and  N_21
REMARK    7  A    between atoms: N_24  and  C_25
REMARK    8  A    between atoms: C_32  and  C_33
REMARK                            x       y       z     vdW  Elec       q    Type
REMARK                         _______ _______ _______ _____ _____    ______ ____
ROOT
ATOM      1  C   UNL     1      -2.649  12.180  19.302  0.00  0.00    +0.000 A 
ATOM      2  N   UNL     1      -1.344  11.899  19.512  0.00  0.00    +0.000 NA
ATOM      3  C   UNL     1      -0.769  10.926  18.799  0.00  0.00    +0.000 A 
ATOM      4  N   UNL     1       0.543  10.629  19.158  0.00  0.00    +0.000 N 
ATOM      5  N   UNL     1      -1.434  10.214  17.888  0.00  0.00    +0.000 NA
ATOM      6  C   UNL     1      -2.737  10.487  17.709  0.00  0.00    +0.000 A 
ATOM      7  C   UNL     1      -3.425  11.471  18.387  0.00  0.00    +0.000 A 
ATOM      8  H   UNL     1       0.818  11.240  19.915  0.00  0.00    +0.000 HD
ENDROOT
BRANCH   4   9
ATOM      9  C   UNL     1       1.220   9.406  19.080  0.00  0.00    +0.000 A 
ATOM     10  C   UNL     1       1.821   8.943  17.913  0.00  0.00    +0.000 A 
ATOM     11  C   UNL     1       2.431   7.688  17.862  0.00  0.00    +0.000 A 
ATOM     12  C   UNL     1       2.504   6.848  18.977  0.00  0.00    +0.000 A 
ATOM     13  C   UNL     1       1.927   7.335  20.157  0.00  0.00    +0.000 A 
ATOM     14  C   UNL     1       1.304   8.593  20.212  0.00  0.00    +0.000 A 
BRANCH  12  15
ATOM     15  N   UNL     1       3.056   5.587  18.865  0.00  0.00    +0.000 N 
ATOM     16  C   UNL     1       3.757   5.194  17.627  0.00  0.00    +0.000 C 
ATOM     17  C   UNL     1       3.543   3.685  17.374  0.00  0.00    +0.000 C 
ATOM     18  N   UNL     1       3.999   2.854  18.512  0.00  0.00    +0.000 NA
ATOM     19  C   UNL     1       3.724   1.444  18.253  0.00  0.00    +0.000 C 
ATOM     20  C   UNL     1       3.312   3.299  19.747  0.00  0.00    +0.000 C 
ATOM     21  C   UNL     1       3.487   4.811  20.037  0.00  0.00    +0.000 C 
ENDBRANCH  12  15
ENDBRANCH   4   9
BRANCH   7  22
ATOM     22  C   UNL     1      -4.862  11.635  18.203  0.00  0.00    +0.000 A 
ATOM     23  C   UNL     1      -5.961  11.104  18.940  0.00  0.00    +0.000 A 
ATOM     24  C   UNL     1      -7.104  11.510  18.295  0.00  0.00    +0.000 A 
ATOM     25  O   UNL     1      -6.794  12.250  17.204  0.00  0.00    +0.000 OA
ATOM     26  C   UNL     1      -5.440  12.322  17.149  0.00  0.00    +0.000 A 
ENDBRANCH   7  22
BRANCH   1  27
ATOM     27  N   UNL     1      -3.211  13.212  20.079  0.00  0.00    +0.000 N 
ATOM     28  H   UNL     1      -2.824  14.097  19.764  0.00  0.00    +0.000 HD
BRANCH  27  34
ATOM     29  C   UNL     1      -2.665  13.198  22.547  0.00  0.00    +0.000 A 
ATOM     30  C   UNL     1      -3.175  13.102  23.853  0.00  0.00    +0.000 A 
ATOM     31  C   UNL     1      -4.543  13.024  24.099  0.00  0.00    +0.000 A 
ATOM     32  C   UNL     1      -5.438  13.045  23.039  0.00  0.00    +0.000 A 
ATOM     33  C   UNL     1      -4.958  13.147  21.736  0.00  0.00    +0.000 A 
ATOM     34  C   UNL     1      -3.574  13.240  21.454  0.00  0.00    +0.000 A 
BRANCH  29  37
ATOM     35  C   UNL     1      -0.517  14.391  22.069  0.00  0.00    +0.000 C 
ATOM     36  O   UNL     1      -0.899  15.554  22.138  0.00  0.00    +0.000 OA
ATOM     37  N   UNL     1      -1.264  13.262  22.336  0.00  0.00    +0.000 N 
ATOM     38  H   UNL     1      -0.792  12.370  22.375  0.00  0.00    +0.000 HD
BRANCH  35  40
ATOM     39  C   UNL     1       1.586  14.969  20.956  0.00  0.00    +0.000 C 
ATOM     40  C   UNL     1       0.889  14.083  21.683  0.00  0.00    +0.000 C 
ENDBRANCH  35  40
ENDBRANCH  29  37
ENDBRANCH  27  34
ENDBRANCH   1  27
TORSDOF 7
ENDMDL
MODEL 5
REMARK VINA RESULT:      -8.4      4.144     11.387
REMARK  Name = 
REMARK  8 active torsions:
REMARK  status: ('A' for Active; 'I' for Inactive)
REMARK    1  A    between atoms: C_2  and  C_3
REMARK    2  A    between atoms: N_5  and  C_6
REMARK    3  A    between atoms: C_11  and  N_12
REMARK    4  A    between atoms: N_12  and  C_13
REMARK    5  A    between atoms: N_16  and  C_17
REMARK    6  A    between atoms: C_20  and  N_21
REMARK    7  A    between atoms: N_24  and  C_25
REMARK    8  A    between atoms: C_32  and  C_33
REMARK                            x       y       z     vdW  Elec       q    Type
REMARK                         _______ _______ _______ _____ _____    ______ ____
ROOT
ATOM      1  C   UNL     1       3.454   6.994  17.759  0.00  0.00    +0.000 A 
ATOM      2  N   UNL     1       2.999   8.257  17.613  0.00  0.00    +0.000 NA
ATOM      3  C   UNL     1       2.051   8.704  18.441  0.00  0.00    +0.000 A 
ATOM      4  N   UNL     1       1.563   9.975  18.148  0.00  0.00    +0.000 N 
ATOM      5  N   UNL     1       1.528   7.949  19.408  0.00  0.00    +0.000 NA
ATOM      6  C   UNL     1       1.972   6.686  19.525  0.00  0.00    +0.000 A 
ATOM      7  C   UNL     1       2.948   6.128  18.727  0.00  0.00    +0.000 A 
ATOM      8  H   UNL     1       2.049  10.329  17.335  0.00  0.00    +0.000 HD
ENDROOT
BRANCH   4   9
ATOM      9  C   UNL     1       0.285  10.499  18.375  0.00  0.00    +0.000 A 
ATOM     10  C   UNL     1       0.022  11.473  19.334  0.00  0.00    +0.000 A 
ATOM     11  C   UNL     1      -1.278  11.923  19.572  0.00  0.00    +0.000 A 
ATOM     12  C   UNL     1      -2.375  11.451  18.845  0.00  0.00    +0.000 A 
ATOM     13  C   UNL     1      -2.099  10.496  17.859  0.00  0.00    +0.000 A 
ATOM     14  C   UNL     1      -0.794  10.033  17.621  0.00  0.00    +0.000 A 
BRANCH  12  15
ATOM     15  N   UNL     1      -3.653  11.872  19.160  0.00  0.00    +0.000 N 
ATOM     16  C   UNL     1      -3.858  12.900  20.199  0.00  0.00    +0.000 C 
ATOM     17  C   UNL     1      -5.186  12.625  20.936  0.00  0.00    +0.000 C 
ATOM     18  N   UNL     1      -6.344  12.584  20.014  0.00  0.00    +0.000 NA
ATOM     19  C   UNL     1      -7.566  12.263  20.746  0.00  0.00    +0.000 C 
ATOM     20  C   UNL     1      -6.091  11.576  18.958  0.00  0.00    +0.000 C 
ATOM     21  C   UNL     1      -4.761  11.803  18.196  0.00  0.00    +0.000 C 
ENDBRANCH  12  15
ENDBRANCH   4   9
BRANCH   7  22
ATOM     22  C   UNL     1       3.301   4.719  18.858  0.00  0.00    +0.000 A 
ATOM     23  C   UNL     1       4.220   4.068  19.732  0.00  0.00    +0.000 A 
ATOM     24  C   UNL     1       4.223   2.739  19.384  0.00  0.00    +0.000 A 
ATOM     25  O   UNL     1       3.377   2.519  18.350  0.00  0.00    +0.000 OA
ATOM     26  C   UNL     1       2.823   3.716  18.032  0.00  0.00    +0.000 A 
ENDBRANCH   7  22
BRANCH   1  27
ATOM     27  N   UNL     1       4.452   6.568  16.861  0.00  0.00    +0.000 N 
ATOM     28  H   UNL     1       3.999   6.188  16.035  0.00  0.00    +0.000 HD
BRANCH  27  34
ATOM     29  C   UNL     1       6.236   4.830  16.430  0.00  0.00    +0.000 A 
ATOM     30  C   UNL     1       7.451   4.274  16.866  0.00  0.00    +0.000 A 
ATOM     31  C   UNL     1       8.147   4.799  17.950  0.00  0.00    +0.000 A 
ATOM     32  C   UNL     1       7.644   5.902  18.626  0.00  0.00    +0.000 A 
ATOM     33  C   UNL     1       6.445   6.476  18.209  0.00  0.00    +0.000 A 
ATOM     34  C   UNL     1       5.721   5.972  17.103  0.00  0.00    +0.000 A 
BRANCH  29  37
ATOM     35  C   UNL     1       5.974   4.219  14.017  0.00  0.00    +0.000 C 
ATOM     36  O   UNL     1       7.089   4.514  13.600  0.00  0.00    +0.000 OA
ATOM     37  N   UNL     1       5.549   4.257  15.329  0.00  0.00    +0.000 N 
ATOM     38  H   UNL     1       4.649   3.858  15.556  0.00  0.00    +0.000 HD
BRANCH  35  40
ATOM     39  C   UNL     1       5.277   3.203  11.901  0.00  0.00    +0.000 C 
ATOM     40  C   UNL     1       4.921   3.743  13.076  0.00  0.00    +0.000 C 
ENDBRANCH  35  40
ENDBRANCH  29  37
ENDBRANCH  27  34
ENDBRANCH   1  27
TORSDOF 7
ENDMDL
MODEL 6
REMARK VINA RESULT:      -8.2      1.671      2.089
REMARK  Name = 
REMARK  8 active torsions:
REMARK  status: ('A' for Active; 'I' for Inactive)
REMARK    1  A    between atoms: C_2  and  C_3
REMARK    2  A    between atoms: N_5  and  C_6
REMARK    3  A    between atoms: C_11  and  N_12
REMARK    4  A    between atoms: N_12  and  C_13
REMARK    5  A    between atoms: N_16  and  C_17
REMARK    6  A    between atoms: C_20  and  N_21
REMARK    7  A    between atoms: N_24  and  C_25
REMARK    8  A    between atoms: C_32  and  C_33
REMARK                            x       y       z     vdW  Elec       q    Type
REMARK                         _______ _______ _______ _____ _____    ______ ____
ROOT
ATOM      1  C   UNL     1      -2.521  12.353  19.268  0.00  0.00    +0.000 A 
ATOM      2  N   UNL     1      -1.213  12.056  19.426  0.00  0.00    +0.000 NA
ATOM      3  C   UNL     1      -0.696  11.027  18.749  0.00  0.00    +0.000 A 
ATOM      4  N   UNL     1       0.628  10.724  19.056  0.00  0.00    +0.000 N 
ATOM      5  N   UNL     1      -1.424  10.273  17.924  0.00  0.00    +0.000 NA
ATOM      6  C   UNL     1      -2.729  10.564  17.797  0.00  0.00    +0.000 A 
ATOM      7  C   UNL     1      -3.360  11.604  18.444  0.00  0.00    +0.000 A 
ATOM      8  H   UNL     1       0.956  11.376  19.756  0.00  0.00    +0.000 HD
ENDROOT
BRANCH   4   9
ATOM      9  C   UNL     1       1.276   9.483  19.023  0.00  0.00    +0.000 A 
ATOM     10  C   UNL     1       1.907   8.985  17.886  0.00  0.00    +0.000 A 
ATOM     11  C   UNL     1       2.486   7.715  17.877  0.00  0.00    +0.000 A 
ATOM     12  C   UNL     1       2.497   6.893  19.008  0.00  0.00    +0.000 A 
ATOM     13  C   UNL     1       1.890   7.413  20.157  0.00  0.00    +0.000 A 
ATOM     14  C   UNL     1       1.298   8.687  20.170  0.00  0.00    +0.000 A 
BRANCH  12  15
ATOM     15  N   UNL     1       3.020   5.616  18.936  0.00  0.00    +0.000 N 
ATOM     16  C   UNL     1       3.877   5.231  17.797  0.00  0.00    +0.000 C 
ATOM     17  C   UNL     1       3.655   3.738  17.471  0.00  0.00    +0.000 C 
ATOM     18  N   UNL     1       3.920   2.863  18.636  0.00  0.00    +0.000 NA
ATOM     19  C   UNL     1       3.641   1.470  18.299  0.00  0.00    +0.000 C 
ATOM     20  C   UNL     1       3.079   3.299  19.775  0.00  0.00    +0.000 C 
ATOM     21  C   UNL     1       3.257   4.797  20.133  0.00  0.00    +0.000 C 
ENDBRANCH  12  15
ENDBRANCH   4   9
BRANCH   7  22
ATOM     22  C   UNL     1      -4.801  11.789  18.327  0.00  0.00    +0.000 A 
ATOM     23  C   UNL     1      -5.842  11.614  19.286  0.00  0.00    +0.000 A 
ATOM     24  C   UNL     1      -7.028  11.849  18.631  0.00  0.00    +0.000 A 
ATOM     25  O   UNL     1      -6.797  12.150  17.330  0.00  0.00    +0.000 OA
ATOM     26  C   UNL     1      -5.453  12.110  17.149  0.00  0.00    +0.000 A 
ENDBRANCH   7  22
BRANCH   1  27
ATOM     27  N   UNL     1      -3.019  13.446  20.005  0.00  0.00    +0.000 N 
ATOM     28  H   UNL     1      -2.973  14.274  19.419  0.00  0.00    +0.000 HD
BRANCH  27  34
ATOM     29  C   UNL     1      -1.782  14.366  22.007  0.00  0.00    +0.000 A 
ATOM     30  C   UNL     1      -1.761  14.494  23.407  0.00  0.00    +0.000 A 
ATOM     31  C   UNL     1      -2.800  14.016  24.199  0.00  0.00    +0.000 A 
ATOM     32  C   UNL     1      -3.895  13.401  23.607  0.00  0.00    +0.000 A 
ATOM     33  C   UNL     1      -3.943  13.270  22.222  0.00  0.00    +0.000 A 
ATOM     34  C   UNL     1      -2.908  13.755  21.388  0.00  0.00    +0.000 A 
BRANCH  29  37
ATOM     35  C   UNL     1       0.594  14.365  21.219  0.00  0.00    +0.000 C 
ATOM     36  O   UNL     1       0.988  13.325  21.734  0.00  0.00    +0.000 OA
ATOM     37  N   UNL     1      -0.697  14.853  21.234  0.00  0.00    +0.000 N 
ATOM     38  H   UNL     1      -0.917  15.652  20.657  0.00  0.00    +0.000 HD
BRANCH  35  40
ATOM     39  C   UNL     1       1.921  14.889  19.230  0.00  0.00    +0.000 C 
ATOM     40  C   UNL     1       1.539  15.238  20.467  0.00  0.00    +0.000 C 
ENDBRANCH  35  40
ENDBRANCH  29  37
ENDBRANCH  27  34
ENDBRANCH   1  27
TORSDOF 7
ENDMDL
MODEL 7
REMARK VINA RESULT:      -8.2      1.892      2.646
REMARK  Name = 
REMARK  8 active torsions:
REMARK  status: ('A' for Active; 'I' for Inactive)
REMARK    1  A    between atoms: C_2  and  C_3
REMARK    2  A    between atoms: N_5  and  C_6
REMARK    3  A    between atoms: C_11  and  N_12
REMARK    4  A    between atoms: N_12  and  C_13
REMARK    5  A    between atoms: N_16  and  C_17
REMARK    6  A    between atoms: C_20  and  N_21
REMARK    7  A    between atoms: N_24  and  C_25
REMARK    8  A    between atoms: C_32  and  C_33
REMARK                            x       y       z     vdW  Elec       q    Type
REMARK                         _______ _______ _______ _____ _____    ______ ____
ROOT
ATOM      1  C   UNL     1      -2.622  12.219  19.102  0.00  0.00    +0.000 A 
ATOM      2  N   UNL     1      -1.315  11.945  19.306  0.00  0.00    +0.000 NA
ATOM      3  C   UNL     1      -0.755  10.931  18.641  0.00  0.00    +0.000 A 
ATOM      4  N   UNL     1       0.563  10.649  18.995  0.00  0.00    +0.000 N 
ATOM      5  N   UNL     1      -1.437  10.171  17.783  0.00  0.00    +0.000 NA
ATOM      6  C   UNL     1      -2.742  10.439  17.610  0.00  0.00    +0.000 A 
ATOM      7  C   UNL     1      -3.416  11.462  18.242  0.00  0.00    +0.000 A 
ATOM      8  H   UNL     1       0.852  11.302  19.711  0.00  0.00    +0.000 HD
ENDROOT
BRANCH   4   9
ATOM      9  C   UNL     1       1.234   9.421  18.976  0.00  0.00    +0.000 A 
ATOM     10  C   UNL     1       1.867   8.918  17.843  0.00  0.00    +0.000 A 
ATOM     11  C   UNL     1       2.470   7.659  17.850  0.00  0.00    +0.000 A 
ATOM     12  C   UNL     1       2.504   6.855  18.993  0.00  0.00    +0.000 A 
ATOM     13  C   UNL     1       1.896   7.382  20.139  0.00  0.00    +0.000 A 
ATOM     14  C   UNL     1       1.279   8.644  20.136  0.00  0.00    +0.000 A 
BRANCH  12  15
ATOM     15  N   UNL     1       3.052   5.588  18.937  0.00  0.00    +0.000 N 
ATOM     16  C   UNL     1       3.829   5.169  17.754  0.00  0.00    +0.000 C 
ATOM     17  C   UNL     1       3.620   3.658  17.512  0.00  0.00    +0.000 C 
ATOM     18  N   UNL     1       3.993   2.843  18.691  0.00  0.00    +0.000 NA
ATOM     19  C   UNL     1       3.724   1.430  18.438  0.00  0.00    +0.000 C 
ATOM     20  C   UNL     1       3.231   3.313  19.871  0.00  0.00    +0.000 C 
ATOM     21  C   UNL     1       3.399   4.829  20.148  0.00  0.00    +0.000 C 
ENDBRANCH  12  15
ENDBRANCH   4   9
BRANCH   7  22
ATOM     22  C   UNL     1      -4.855  11.622  18.072  0.00  0.00    +0.000 A 
ATOM     23  C   UNL     1      -5.600  12.392  17.132  0.00  0.00    +0.000 A 
ATOM     24  C   UNL     1      -6.926  12.247  17.464  0.00  0.00    +0.000 A 
ATOM     25  O   UNL     1      -7.057  11.447  18.549  0.00  0.00    +0.000 OA
ATOM     26  C   UNL     1      -5.805  11.074  18.916  0.00  0.00    +0.000 A 
ENDBRANCH   7  22
BRANCH   1  27
ATOM     27  N   UNL     1      -3.167  13.297  19.828  0.00  0.00    +0.000 N 
ATOM     28  H   UNL     1      -3.405  14.036  19.173  0.00  0.00    +0.000 HD
BRANCH  27  34
ATOM     29  C   UNL     1      -2.056  14.957  21.376  0.00  0.00    +0.000 A 
ATOM     30  C   UNL     1      -1.709  15.262  22.703  0.00  0.00    +0.000 A 
ATOM     31  C   UNL     1      -2.096  14.448  23.764  0.00  0.00    +0.000 A 
ATOM     32  C   UNL     1      -2.848  13.307  23.521  0.00  0.00    +0.000 A 
ATOM     33  C   UNL     1      -3.211  12.987  22.216  0.00  0.00    +0.000 A 
ATOM     34  C   UNL     1      -2.843  13.800  21.117  0.00  0.00    +0.000 A 
BRANCH  29  37
ATOM     35  C   UNL     1      -0.462  15.698  19.593  0.00  0.00    +0.000 C 
ATOM     36  O   UNL     1       0.328  14.761  19.611  0.00  0.00    +0.000 OA
ATOM     37  N   UNL     1      -1.631  15.803  20.320  0.00  0.00    +0.000 N 
ATOM     38  H   UNL     1      -2.261  16.564  20.111  0.00  0.00    +0.000 HD
BRANCH  35  40
ATOM     39  C   UNL     1      -1.248  17.643  18.331  0.00  0.00    +0.000 C 
ATOM     40  C   UNL     1      -0.217  16.872  18.708  0.00  0.00    +0.000 C 
ENDBRANCH  35  40
ENDBRANCH  29  37
ENDBRANCH  27  34
ENDBRANCH   1  27
TORSDOF 7
ENDMDL
MODEL 8
REMARK VINA RESULT:      -8.1      4.028     11.402
REMARK  Name = 
REMARK  8 active torsions:
REMARK  status: ('A' for Active; 'I' for Inactive)
REMARK    1  A    between atoms: C_2  and  C_3
REMARK    2  A    between atoms: N_5  and  C_6
REMARK    3  A    between atoms: C_11  and  N_12
REMARK    4  A    between atoms: N_12  and  C_13
REMARK    5  A    between atoms: N_16  and  C_17
REMARK    6  A    between atoms: C_20  and  N_21
REMARK    7  A    between atoms: N_24  and  C_25
REMARK    8  A    between atoms: C_32  and  C_33
REMARK                            x       y       z     vdW  Elec       q    Type
REMARK                         _______ _______ _______ _____ _____    ______ ____
ROOT
ATOM      1  C   UNL     1       3.239   6.382  18.310  0.00  0.00    +0.000 A 
ATOM      2  N   UNL     1       2.923   7.694  18.245  0.00  0.00    +0.000 NA
ATOM      3  C   UNL     1       2.017   8.184  19.094  0.00  0.00    +0.000 A 
ATOM      4  N   UNL     1       1.671   9.517  18.883  0.00  0.00    +0.000 N 
ATOM      5  N   UNL     1       1.403   7.428  20.005  0.00  0.00    +0.000 NA
ATOM      6  C   UNL     1       1.707   6.120  20.041  0.00  0.00    +0.000 A 
ATOM      7  C   UNL     1       2.630   5.514  19.215  0.00  0.00    +0.000 A 
ATOM      8  H   UNL     1       2.204   9.870  18.099  0.00  0.00    +0.000 HD
ENDROOT
BRANCH   4   9
ATOM      9  C   UNL     1       0.453  10.159  19.136  0.00  0.00    +0.000 A 
ATOM     10  C   UNL     1      -0.621  10.128  18.251  0.00  0.00    +0.000 A 
ATOM     11  C   UNL     1      -1.796  10.836  18.514  0.00  0.00    +0.000 A 
ATOM     12  C   UNL     1      -1.972  11.580  19.684  0.00  0.00    +0.000 A 
ATOM     13  C   UNL     1      -0.901  11.580  20.585  0.00  0.00    +0.000 A 
ATOM     14  C   UNL     1       0.287  10.878  20.322  0.00  0.00    +0.000 A 
BRANCH  12  15
ATOM     15  N   UNL     1      -3.124  12.320  19.871  0.00  0.00    +0.000 N 
ATOM     16  C   UNL     1      -3.058  13.637  20.536  0.00  0.00    +0.000 C 
ATOM     17  C   UNL     1      -4.352  13.867  21.346  0.00  0.00    +0.000 C 
ATOM     18  N   UNL     1      -5.567  13.774  20.504  0.00  0.00    +0.000 NA
ATOM     19  C   UNL     1      -6.765  13.940  21.321  0.00  0.00    +0.000 C 
ATOM     20  C   UNL     1      -5.584  12.462  19.817  0.00  0.00    +0.000 C 
ATOM     21  C   UNL     1      -4.299  12.178  18.999  0.00  0.00    +0.000 C 
ENDBRANCH  12  15
ENDBRANCH   4   9
BRANCH   7  22
ATOM     22  C   UNL     1       2.828   4.070  19.254  0.00  0.00    +0.000 A 
ATOM     23  C   UNL     1       3.917   3.295  19.750  0.00  0.00    +0.000 A 
ATOM     24  C   UNL     1       3.627   1.981  19.470  0.00  0.00    +0.000 A 
ATOM     25  O   UNL     1       2.438   1.886  18.827  0.00  0.00    +0.000 OA
ATOM     26  C   UNL     1       1.960   3.148  18.696  0.00  0.00    +0.000 A 
ENDBRANCH   7  22
BRANCH   1  27
ATOM     27  N   UNL     1       4.199   5.911  17.392  0.00  0.00    +0.000 N 
ATOM     28  H   UNL     1       3.738   5.282  16.741  0.00  0.00    +0.000 HD
BRANCH  27  34
ATOM     29  C   UNL     1       6.326   4.706  16.755  0.00  0.00    +0.000 A 
ATOM     30  C   UNL     1       7.640   4.381  17.132  0.00  0.00    +0.000 A 
ATOM     31  C   UNL     1       8.210   4.883  18.299  0.00  0.00    +0.000 A 
ATOM     32  C   UNL     1       7.475   5.730  19.118  0.00  0.00    +0.000 A 
ATOM     33  C   UNL     1       6.174   6.073  18.761  0.00  0.00    +0.000 A 
ATOM     34  C   UNL     1       5.572   5.589  17.575  0.00  0.00    +0.000 A 
BRANCH  29  37
ATOM     35  C   UNL     1       6.181   4.424  14.271  0.00  0.00    +0.000 C 
ATOM     36  O   UNL     1       7.190   5.030  13.929  0.00  0.00    +0.000 OA
ATOM     37  N   UNL     1       5.776   4.163  15.565  0.00  0.00    +0.000 N 
ATOM     38  H   UNL     1       4.998   3.536  15.709  0.00  0.00    +0.000 HD
BRANCH  35  40
ATOM     39  C   UNL     1       5.756   3.296  12.140  0.00  0.00    +0.000 C 
ATOM     40  C   UNL     1       5.254   3.865  13.246  0.00  0.00    +0.000 C 
ENDBRANCH  35  40
ENDBRANCH  29  37
ENDBRANCH  27  34
ENDBRANCH   1  27
TORSDOF 7
ENDMDL
MODEL 9
REMARK VINA RESULT:      -8.1      4.022     11.413
REMARK  Name = 
REMARK  8 active torsions:
REMARK  status: ('A' for Active; 'I' for Inactive)
REMARK    1  A    between atoms: C_2  and  C_3
REMARK    2  A    between atoms: N_5  and  C_6
REMARK    3  A    between atoms: C_11  and  N_12
REMARK    4  A    between atoms: N_12  and  C_13
REMARK    5  A    between atoms: N_16  and  C_17
REMARK    6  A    between atoms: C_20  and  N_21
REMARK    7  A    between atoms: N_24  and  C_25
REMARK    8  A    between atoms: C_32  and  C_33
REMARK                            x       y       z     vdW  Elec       q    Type
REMARK                         _______ _______ _______ _____ _____    ______ ____
ROOT
ATOM      1  C   UNL     1       3.228   6.505  18.150  0.00  0.00    +0.000 A 
ATOM      2  N   UNL     1       2.891   7.796  17.940  0.00  0.00    +0.000 NA
ATOM      3  C   UNL     1       2.011   8.377  18.761  0.00  0.00    +0.000 A 
ATOM      4  N   UNL     1       1.637   9.671  18.405  0.00  0.00    +0.000 N 
ATOM      5  N   UNL     1       1.447   7.730  19.781  0.00  0.00    +0.000 NA
ATOM      6  C   UNL     1       1.772   6.440  19.962  0.00  0.00    +0.000 A 
ATOM      7  C   UNL     1       2.670   5.747  19.178  0.00  0.00    +0.000 A 
ATOM      8  H   UNL     1       2.132   9.931  17.563  0.00  0.00    +0.000 HD
ENDROOT
BRANCH   4   9
ATOM      9  C   UNL     1       0.421  10.326  18.629  0.00  0.00    +0.000 A 
ATOM     10  C   UNL     1       0.232  11.250  19.653  0.00  0.00    +0.000 A 
ATOM     11  C   UNL     1      -1.016  11.833  19.882  0.00  0.00    +0.000 A 
ATOM     12  C   UNL     1      -2.127  11.553  19.081  0.00  0.00    +0.000 A 
ATOM     13  C   UNL     1      -1.922  10.649  18.032  0.00  0.00    +0.000 A 
ATOM     14  C   UNL     1      -0.672  10.052  17.803  0.00  0.00    +0.000 A 
BRANCH  12  15
ATOM     15  N   UNL     1      -3.359  12.100  19.384  0.00  0.00    +0.000 N 
ATOM     16  C   UNL     1      -4.577  11.593  18.722  0.00  0.00    +0.000 C 
ATOM     17  C   UNL     1      -5.579  12.753  18.536  0.00  0.00    +0.000 C 
ATOM     18  N   UNL     1      -5.923  13.411  19.818  0.00  0.00    +0.000 NA
ATOM     19  C   UNL     1      -6.825  14.535  19.586  0.00  0.00    +0.000 C 
ATOM     20  C   UNL     1      -4.680  13.870  20.479  0.00  0.00    +0.000 C 
ATOM     21  C   UNL     1      -3.636  12.742  20.677  0.00  0.00    +0.000 C 
ENDBRANCH  12  15
ENDBRANCH   4   9
BRANCH   7  22
ATOM     22  C   UNL     1       2.892   4.321  19.382  0.00  0.00    +0.000 A 
ATOM     23  C   UNL     1       3.939   3.631  20.062  0.00  0.00    +0.000 A 
ATOM     24  C   UNL     1       3.706   2.288  19.888  0.00  0.00    +0.000 A 
ATOM     25  O   UNL     1       2.592   2.094  19.142  0.00  0.00    +0.000 OA
ATOM     26  C   UNL     1       2.105   3.323  18.835  0.00  0.00    +0.000 A 
ENDBRANCH   7  22
BRANCH   1  27
ATOM     27  N   UNL     1       4.158   5.937  17.256  0.00  0.00    +0.000 N 
ATOM     28  H   UNL     1       3.666   5.280  16.658  0.00  0.00    +0.000 HD
BRANCH  27  34
ATOM     29  C   UNL     1       6.240   4.633  16.663  0.00  0.00    +0.000 A 
ATOM     30  C   UNL     1       7.547   4.286  17.047  0.00  0.00    +0.000 A 
ATOM     31  C   UNL     1       8.142   4.826  18.183  0.00  0.00    +0.000 A 
ATOM     32  C   UNL     1       7.443   5.736  18.963  0.00  0.00    +0.000 A 
ATOM     33  C   UNL     1       6.150   6.103  18.600  0.00  0.00    +0.000 A 
ATOM     34  C   UNL     1       5.521   5.580  17.445  0.00  0.00    +0.000 A 
BRANCH  29  37
ATOM     35  C   UNL     1       6.059   4.238  14.198  0.00  0.00    +0.000 C 
ATOM     36  O   UNL     1       7.080   4.799  13.816  0.00  0.00    +0.000 OA
ATOM     37  N   UNL     1       5.662   4.050  15.506  0.00  0.00    +0.000 N 
ATOM     38  H   UNL     1       4.869   3.453  15.688  0.00  0.00    +0.000 HD
BRANCH  35  40
ATOM     39  C   UNL     1       5.547   3.303  11.994  0.00  0.00    +0.000 C 
ATOM     40  C   UNL     1       5.106   3.657  13.210  0.00  0.00    +0.000 C 
ENDBRANCH  35  40
ENDBRANCH  29  37
ENDBRANCH  27  34
ENDBRANCH   1  27
TORSDOF 7
ENDMDL
