MODEL 1
REMARK VINA RESULT:      -7.8      0.000      0.000
REMARK  Name = 
REMARK  6 active torsions:
REMARK  status: ('A' for Active; 'I' for Inactive)
REMARK    1  A    between atoms: C_1  and  C_2
REMARK    2  A    between atoms: C_2  and  O_3
REMARK    3  A    between atoms: O_3  and  C_4
REMARK    4  A    between atoms: C_4  and  C_6
REMARK    5  A    between atoms: C_7  and  C_8
REMARK    6  A    between atoms: C_19  and  C_20
REMARK                            x       y       z     vdW  Elec       q    Type
REMARK                         _______ _______ _______ _____ _____    ______ ____
ROOT
ATOM      1  C   UNL     1       2.157   4.902  18.904  0.00  0.00    +0.000 C 
ATOM      2  C   UNL     1       2.684   4.470  20.072  0.00  0.00    +0.000 C 
ATOM      3  C   UNL     1       1.822   4.048  21.228  0.00  0.00    +0.000 C 
ATOM      4  N   UNL     1       4.058   4.604  20.303  0.00  0.00    +0.000 N 
ATOM      5  C   UNL     1       4.888   4.914  19.276  0.00  0.00    +0.000 A 
ATOM      6  N   UNL     1       6.103   4.488  19.022  0.00  0.00    +0.000 NA
ATOM      7  C   UNL     1       6.340   4.847  17.708  0.00  0.00    +0.000 A 
ATOM      8  C   UNL     1       7.387   4.493  16.847  0.00  0.00    +0.000 A 
ATOM      9  C   UNL     1       7.349   4.943  15.518  0.00  0.00    +0.000 A 
ATOM     10  C   UNL     1       6.317   5.762  15.063  0.00  0.00    +0.000 A 
ATOM     11  C   UNL     1       5.267   6.138  15.906  0.00  0.00    +0.000 A 
ATOM     12  C   UNL     1       5.303   5.631  17.210  0.00  0.00    +0.000 A 
ATOM     13  N   UNL     1       4.378   5.636  18.219  0.00  0.00    +0.000 N 
ATOM     14  C   UNL     1       2.944   5.860  18.047  0.00  0.00    +0.000 C 
ATOM     15  H   UNL     1       4.428   3.921  20.965  0.00  0.00    +0.000 HD
ENDROOT
BRANCH  14  16
ATOM     16  C   UNL     1       2.527   7.279  18.334  0.00  0.00    +0.000 A 
ATOM     17  C   UNL     1       1.953   7.853  19.454  0.00  0.00    +0.000 A 
ATOM     18  N   UNL     1       1.633   9.133  19.090  0.00  0.00    +0.000 N 
ATOM     19  C   UNL     1       2.016   9.301  17.790  0.00  0.00    +0.000 A 
ATOM     20  N   UNL     1       2.575   8.216  17.313  0.00  0.00    +0.000 NA
ATOM     21  H   UNL     1       1.166   9.826  19.661  0.00  0.00    +0.000 HD
ENDBRANCH  14  16
BRANCH   1  22
ATOM     22  C   UNL     1       1.449   3.897  18.070  0.00  0.00    +0.000 C 
ATOM     23  O   UNL     1       0.523   4.171  17.327  0.00  0.00    +0.000 OA
BRANCH  22  24
ATOM     24  O   UNL     1       1.830   2.654  18.457  0.00  0.00    +0.000 OA
BRANCH  24  26
ATOM     25  C   UNL     1       3.796   1.265  18.618  0.00  0.00    +0.000 C 
ATOM     26  C   UNL     1       2.874   2.035  17.686  0.00  0.00    +0.000 C 
ENDBRANCH  24  26
ENDBRANCH  22  24
ENDBRANCH   1  22
TORSDOF 4
ENDMDL
MODEL 2
REMARK VINA RESULT:      -7.3      2.470      5.181
REMARK  Name = 
REMARK  6 active torsions:
REMARK  status: ('A' for Active; 'I' for Inactive)
REMARK    1  A    between atoms: C_1  and  C_2
REMARK    2  A    between atoms: C_2  and  O_3
REMARK    3  A    between atoms: O_3  and  C_4
REMARK    4  A    between atoms: C_4  and  C_6
REMARK    5  A    between atoms: C_7  and  C_8
REMARK    6  A    between atoms: C_19  and  C_20
REMARK                            x       y       z     vdW  Elec       q    Type
REMARK                         _______ _______ _______ _____ _____    ______ ____
ROOT
ATOM      1  C   UNL     1       5.096   5.632  17.522  0.00  0.00    +0.000 C 
ATOM      2  C   UNL     1       4.892   4.900  16.403  0.00  0.00    +0.000 C 
ATOM      3  C   UNL     1       5.660   5.149  15.137  0.00  0.00    +0.000 C 
ATOM      4  N   UNL     1       3.804   4.021  16.339  0.00  0.00    +0.000 N 
ATOM      5  C   UNL     1       3.122   3.709  17.469  0.00  0.00    +0.000 A 
ATOM      6  N   UNL     1       2.595   2.566  17.841  0.00  0.00    +0.000 NA
ATOM      7  C   UNL     1       2.329   2.718  19.189  0.00  0.00    +0.000 A 
ATOM      8  C   UNL     1       1.940   1.773  20.148  0.00  0.00    +0.000 A 
ATOM      9  C   UNL     1       1.806   2.182  21.484  0.00  0.00    +0.000 A 
ATOM     10  C   UNL     1       2.011   3.510  21.856  0.00  0.00    +0.000 A 
ATOM     11  C   UNL     1       2.389   4.474  20.915  0.00  0.00    +0.000 A 
ATOM     12  C   UNL     1       2.568   4.025  19.601  0.00  0.00    +0.000 A 
ATOM     13  N   UNL     1       3.098   4.630  18.494  0.00  0.00    +0.000 N 
ATOM     14  C   UNL     1       3.971   5.802  18.510  0.00  0.00    +0.000 C 
ATOM     15  H   UNL     1       3.946   3.245  15.693  0.00  0.00    +0.000 HD
ENDROOT
BRANCH  14  16
ATOM     16  C   UNL     1       3.236   7.091  18.245  0.00  0.00    +0.000 A 
ATOM     17  C   UNL     1       3.456   8.092  17.316  0.00  0.00    +0.000 A 
ATOM     18  N   UNL     1       2.592   9.100  17.649  0.00  0.00    +0.000 N 
ATOM     19  C   UNL     1       1.883   8.693  18.743  0.00  0.00    +0.000 A 
ATOM     20  N   UNL     1       2.230   7.485  19.114  0.00  0.00    +0.000 NA
ATOM     21  H   UNL     1       2.509  10.001  17.195  0.00  0.00    +0.000 HD
ENDBRANCH  14  16
BRANCH   1  22
ATOM     22  C   UNL     1       6.396   5.452  18.220  0.00  0.00    +0.000 C 
ATOM     23  O   UNL     1       6.785   4.382  18.653  0.00  0.00    +0.000 OA
BRANCH  22  24
ATOM     24  O   UNL     1       6.920   6.673  18.497  0.00  0.00    +0.000 OA
BRANCH  24  26
ATOM     25  C   UNL     1       8.080   8.699  17.888  0.00  0.00    +0.000 C 
ATOM     26  C   UNL     1       7.458   7.406  17.384  0.00  0.00    +0.000 C 
ENDBRANCH  24  26
ENDBRANCH  22  24
ENDBRANCH   1  22
TORSDOF 4
ENDMDL
MODEL 3
REMARK VINA RESULT:      -6.8      2.237      4.872
REMARK  Name = 
REMARK  6 active torsions:
REMARK  status: ('A' for Active; 'I' for Inactive)
REMARK    1  A    between atoms: C_1  and  C_2
REMARK    2  A    between atoms: C_2  and  O_3
REMARK    3  A    between atoms: O_3  and  C_4
REMARK    4  A    between atoms: C_4  and  C_6
REMARK    5  A    between atoms: C_7  and  C_8
REMARK    6  A    between atoms: C_19  and  C_20
REMARK                            x       y       z     vdW  Elec       q    Type
REMARK                         _______ _______ _______ _____ _____    ______ ____
ROOT
ATOM      1  C   UNL     1       2.779   3.310  19.728  0.00  0.00    +0.000 C 
ATOM      2  C   UNL     1       2.090   3.102  18.584  0.00  0.00    +0.000 C 
ATOM      3  C   UNL     1       0.728   2.469  18.578  0.00  0.00    +0.000 C 
ATOM      4  N   UNL     1       2.724   3.285  17.349  0.00  0.00    +0.000 N 
ATOM      5  C   UNL     1       3.923   3.917  17.294  0.00  0.00    +0.000 A 
ATOM      6  N   UNL     1       4.388   4.756  16.400  0.00  0.00    +0.000 NA
ATOM      7  C   UNL     1       5.490   5.339  16.996  0.00  0.00    +0.000 A 
ATOM      8  C   UNL     1       6.267   6.434  16.592  0.00  0.00    +0.000 A 
ATOM      9  C   UNL     1       7.301   6.874  17.432  0.00  0.00    +0.000 A 
ATOM     10  C   UNL     1       7.589   6.218  18.627  0.00  0.00    +0.000 A 
ATOM     11  C   UNL     1       6.836   5.116  19.047  0.00  0.00    +0.000 A 
ATOM     12  C   UNL     1       5.777   4.734  18.215  0.00  0.00    +0.000 A 
ATOM     13  N   UNL     1       4.748   3.849  18.395  0.00  0.00    +0.000 N 
ATOM     14  C   UNL     1       4.285   3.345  19.687  0.00  0.00    +0.000 C 
ATOM     15  H   UNL     1       2.080   3.516  16.591  0.00  0.00    +0.000 HD
ENDROOT
BRANCH  14  16
ATOM     16  C   UNL     1       4.847   1.990  20.031  0.00  0.00    +0.000 A 
ATOM     17  C   UNL     1       4.901   0.814  19.304  0.00  0.00    +0.000 A 
ATOM     18  N   UNL     1       5.361  -0.137  20.174  0.00  0.00    +0.000 N 
ATOM     19  C   UNL     1       5.575   0.473  21.378  0.00  0.00    +0.000 A 
ATOM     20  N   UNL     1       5.296   1.753  21.320  0.00  0.00    +0.000 NA
ATOM     21  H   UNL     1       5.490  -1.122  19.982  0.00  0.00    +0.000 HD
ENDBRANCH  14  16
BRANCH   1  22
ATOM     22  C   UNL     1       2.247   4.337  20.660  0.00  0.00    +0.000 C 
ATOM     23  O   UNL     1       2.098   4.150  21.855  0.00  0.00    +0.000 OA
BRANCH  22  24
ATOM     24  O   UNL     1       1.745   5.371  19.939  0.00  0.00    +0.000 OA
BRANCH  24  26
ATOM     25  C   UNL     1       2.487   7.085  18.412  0.00  0.00    +0.000 C 
ATOM     26  C   UNL     1       2.577   6.538  19.828  0.00  0.00    +0.000 C 
ENDBRANCH  24  26
ENDBRANCH  22  24
ENDBRANCH   1  22
TORSDOF 4
ENDMDL
MODEL 4
REMARK VINA RESULT:      -6.6      5.165      8.820
REMARK  Name = 
REMARK  6 active torsions:
REMARK  status: ('A' for Active; 'I' for Inactive)
REMARK    1  A    between atoms: C_1  and  C_2
REMARK    2  A    between atoms: C_2  and  O_3
REMARK    3  A    between atoms: O_3  and  C_4
REMARK    4  A    between atoms: C_4  and  C_6
REMARK    5  A    between atoms: C_7  and  C_8
REMARK    6  A    between atoms: C_19  and  C_20
REMARK                            x       y       z     vdW  Elec       q    Type
REMARK                         _______ _______ _______ _____ _____    ______ ____
ROOT
ATOM      1  C   UNL     1       1.021  10.016  19.961  0.00  0.00    +0.000 C 
ATOM      2  C   UNL     1       1.059   9.414  18.751  0.00  0.00    +0.000 C 
ATOM      3  C   UNL     1       2.149   8.453  18.373  0.00  0.00    +0.000 C 
ATOM      4  N   UNL     1       0.187   9.836  17.740  0.00  0.00    +0.000 N 
ATOM      5  C   UNL     1      -0.856  10.647  18.044  0.00  0.00    +0.000 A 
ATOM      6  N   UNL     1      -2.077  10.657  17.564  0.00  0.00    +0.000 NA
ATOM      7  C   UNL     1      -2.800  11.440  18.444  0.00  0.00    +0.000 A 
ATOM      8  C   UNL     1      -4.182  11.652  18.544  0.00  0.00    +0.000 A 
ATOM      9  C   UNL     1      -4.669  12.449  19.592  0.00  0.00    +0.000 A 
ATOM     10  C   UNL     1      -3.802  13.059  20.497  0.00  0.00    +0.000 A 
ATOM     11  C   UNL     1      -2.418  12.872  20.411  0.00  0.00    +0.000 A 
ATOM     12  C   UNL     1      -1.966  12.029  19.389  0.00  0.00    +0.000 A 
ATOM     13  N   UNL     1      -0.737  11.487  19.130  0.00  0.00    +0.000 N 
ATOM     14  C   UNL     1       0.350  11.359  20.098  0.00  0.00    +0.000 C 
ATOM     15  H   UNL     1      -0.016   9.112  17.050  0.00  0.00    +0.000 HD
ENDROOT
BRANCH  14  16
ATOM     16  C   UNL     1       1.370  12.464  19.992  0.00  0.00    +0.000 A 
ATOM     17  C   UNL     1       2.017  13.006  18.896  0.00  0.00    +0.000 A 
ATOM     18  N   UNL     1       2.961  13.856  19.408  0.00  0.00    +0.000 N 
ATOM     19  C   UNL     1       2.862  13.811  20.769  0.00  0.00    +0.000 A 
ATOM     20  N   UNL     1       1.904  13.002  21.153  0.00  0.00    +0.000 NA
ATOM     21  H   UNL     1       3.636  14.396  18.883  0.00  0.00    +0.000 HD
ENDBRANCH  14  16
BRANCH   1  22
ATOM     22  C   UNL     1       0.732   9.154  21.136  0.00  0.00    +0.000 C 
ATOM     23  O   UNL     1       0.171   8.076  21.060  0.00  0.00    +0.000 OA
BRANCH  22  24
ATOM     24  O   UNL     1       0.962   9.863  22.271  0.00  0.00    +0.000 OA
BRANCH  24  26
ATOM     25  C   UNL     1      -1.136  10.601  23.205  0.00  0.00    +0.000 C 
ATOM     26  C   UNL     1       0.043   9.652  23.355  0.00  0.00    +0.000 C 
ENDBRANCH  24  26
ENDBRANCH  22  24
ENDBRANCH   1  22
TORSDOF 4
ENDMDL
MODEL 5
REMARK VINA RESULT:      -6.6      2.387      4.488
REMARK  Name = 
REMARK  6 active torsions:
REMARK  status: ('A' for Active; 'I' for Inactive)
REMARK    1  A    between atoms: C_1  and  C_2
REMARK    2  A    between atoms: C_2  and  O_3
REMARK    3  A    between atoms: O_3  and  C_4
REMARK    4  A    between atoms: C_4  and  C_6
REMARK    5  A    between atoms: C_7  and  C_8
REMARK    6  A    between atoms: C_19  and  C_20
REMARK                            x       y       z     vdW  Elec       q    Type
REMARK                         _______ _______ _______ _____ _____    ______ ____
ROOT
ATOM      1  C   UNL     1       2.818   4.483  19.030  0.00  0.00    +0.000 C 
ATOM      2  C   UNL     1       2.344   4.665  17.777  0.00  0.00    +0.000 C 
ATOM      3  C   UNL     1       0.921   4.355  17.410  0.00  0.00    +0.000 C 
ATOM      4  N   UNL     1       3.234   4.953  16.735  0.00  0.00    +0.000 N 
ATOM      5  C   UNL     1       4.512   5.308  17.018  0.00  0.00    +0.000 A 
ATOM      6  N   UNL     1       5.286   6.191  16.433  0.00  0.00    +0.000 NA
ATOM      7  C   UNL     1       6.333   6.389  17.314  0.00  0.00    +0.000 A 
ATOM      8  C   UNL     1       7.354   7.349  17.307  0.00  0.00    +0.000 A 
ATOM      9  C   UNL     1       8.262   7.376  18.378  0.00  0.00    +0.000 A 
ATOM     10  C   UNL     1       8.186   6.444  19.412  0.00  0.00    +0.000 A 
ATOM     11  C   UNL     1       7.182   5.470  19.435  0.00  0.00    +0.000 A 
ATOM     12  C   UNL     1       6.260   5.501  18.383  0.00  0.00    +0.000 A 
ATOM     13  N   UNL     1       5.077   4.842  18.185  0.00  0.00    +0.000 N 
ATOM     14  C   UNL     1       4.284   4.199  19.232  0.00  0.00    +0.000 C 
ATOM     15  H   UNL     1       2.805   5.466  15.964  0.00  0.00    +0.000 HD
ENDROOT
BRANCH  14  16
ATOM     16  C   UNL     1       4.520   2.714  19.325  0.00  0.00    +0.000 A 
ATOM     17  C   UNL     1       4.156   1.678  18.484  0.00  0.00    +0.000 A 
ATOM     18  N   UNL     1       4.479   0.528  19.152  0.00  0.00    +0.000 N 
ATOM     19  C   UNL     1       5.021   0.887  20.353  0.00  0.00    +0.000 A 
ATOM     20  N   UNL     1       5.080   2.190  20.480  0.00  0.00    +0.000 NA
ATOM     21  H   UNL     1       4.317  -0.420  18.839  0.00  0.00    +0.000 HD
ENDBRANCH  14  16
BRANCH   1  22
ATOM     22  C   UNL     1       2.299   5.390  20.087  0.00  0.00    +0.000 C 
ATOM     23  O   UNL     1       2.315   6.604  20.000  0.00  0.00    +0.000 OA
BRANCH  22  24
ATOM     24  O   UNL     1       2.057   4.666  21.209  0.00  0.00    +0.000 OA
BRANCH  24  26
ATOM     25  C   UNL     1       1.776   2.360  21.861  0.00  0.00    +0.000 C 
ATOM     26  C   UNL     1       1.204   3.518  21.059  0.00  0.00    +0.000 C 
ENDBRANCH  24  26
ENDBRANCH  22  24
ENDBRANCH   1  22
TORSDOF 4
ENDMDL
MODEL 6
REMARK VINA RESULT:      -6.5      2.566      5.377
REMARK  Name = 
REMARK  6 active torsions:
REMARK  status: ('A' for Active; 'I' for Inactive)
REMARK    1  A    between atoms: C_1  and  C_2
REMARK    2  A    between atoms: C_2  and  O_3
REMARK    3  A    between atoms: O_3  and  C_4
REMARK    4  A    between atoms: C_4  and  C_6
REMARK    5  A    between atoms: C_7  and  C_8
REMARK    6  A    between atoms: C_19  and  C_20
REMARK                            x       y       z     vdW  Elec       q    Type
REMARK                         _______ _______ _______ _____ _____    ______ ____
ROOT
ATOM      1  C   UNL     1       5.712   6.299  17.178  0.00  0.00    +0.000 C 
ATOM      2  C   UNL     1       6.696   6.144  18.092  0.00  0.00    +0.000 C 
ATOM      3  C   UNL     1       7.860   7.088  18.178  0.00  0.00    +0.000 C 
ATOM      4  N   UNL     1       6.757   4.969  18.852  0.00  0.00    +0.000 N 
ATOM      5  C   UNL     1       5.701   4.118  18.863  0.00  0.00    +0.000 A 
ATOM      6  N   UNL     1       5.208   3.408  19.851  0.00  0.00    +0.000 NA
ATOM      7  C   UNL     1       3.963   2.998  19.409  0.00  0.00    +0.000 A 
ATOM      8  C   UNL     1       2.916   2.377  20.101  0.00  0.00    +0.000 A 
ATOM      9  C   UNL     1       1.711   2.131  19.424  0.00  0.00    +0.000 A 
ATOM     10  C   UNL     1       1.562   2.456  18.077  0.00  0.00    +0.000 A 
ATOM     11  C   UNL     1       2.597   3.067  17.361  0.00  0.00    +0.000 A 
ATOM     12  C   UNL     1       3.766   3.348  18.077  0.00  0.00    +0.000 A 
ATOM     13  N   UNL     1       4.876   4.084  17.760  0.00  0.00    +0.000 N 
ATOM     14  C   UNL     1       4.947   5.090  16.702  0.00  0.00    +0.000 C 
ATOM     15  H   UNL     1       7.223   5.090  19.751  0.00  0.00    +0.000 HD
ENDROOT
BRANCH  14  16
ATOM     16  C   UNL     1       5.547   4.564  15.424  0.00  0.00    +0.000 A 
ATOM     17  C   UNL     1       5.614   3.282  14.908  0.00  0.00    +0.000 A 
ATOM     18  N   UNL     1       6.422   3.369  13.807  0.00  0.00    +0.000 N 
ATOM     19  C   UNL     1       6.812   4.673  13.682  0.00  0.00    +0.000 A 
ATOM     20  N   UNL     1       6.288   5.419  14.624  0.00  0.00    +0.000 NA
ATOM     21  H   UNL     1       6.713   2.608  13.207  0.00  0.00    +0.000 HD
ENDBRANCH  14  16
BRANCH   1  22
ATOM     22  C   UNL     1       4.811   7.468  17.346  0.00  0.00    +0.000 C 
ATOM     23  O   UNL     1       5.202   8.584  17.636  0.00  0.00    +0.000 OA
BRANCH  22  24
ATOM     24  O   UNL     1       3.525   7.034  17.370  0.00  0.00    +0.000 OA
BRANCH  24  26
ATOM     25  C   UNL     1       2.579   6.496  19.523  0.00  0.00    +0.000 C 
ATOM     26  C   UNL     1       2.697   7.545  18.428  0.00  0.00    +0.000 C 
ENDBRANCH  24  26
ENDBRANCH  22  24
ENDBRANCH   1  22
TORSDOF 4
ENDMDL
MODEL 7
REMARK VINA RESULT:      -6.4      4.289      7.099
REMARK  Name = 
REMARK  6 active torsions:
REMARK  status: ('A' for Active; 'I' for Inactive)
REMARK    1  A    between atoms: C_1  and  C_2
REMARK    2  A    between atoms: C_2  and  O_3
REMARK    3  A    between atoms: O_3  and  C_4
REMARK    4  A    between atoms: C_4  and  C_6
REMARK    5  A    between atoms: C_7  and  C_8
REMARK    6  A    between atoms: C_19  and  C_20
REMARK                            x       y       z     vdW  Elec       q    Type
REMARK                         _______ _______ _______ _____ _____    ______ ____
ROOT
ATOM      1  C   UNL     1      -0.967  11.335  19.107  0.00  0.00    +0.000 C 
ATOM      2  C   UNL     1      -1.248  11.432  20.425  0.00  0.00    +0.000 C 
ATOM      3  C   UNL     1      -2.274  12.395  20.953  0.00  0.00    +0.000 C 
ATOM      4  N   UNL     1      -0.434  10.778  21.358  0.00  0.00    +0.000 N 
ATOM      5  C   UNL     1       0.458   9.847  20.938  0.00  0.00    +0.000 A 
ATOM      6  N   UNL     1       0.815   8.715  21.498  0.00  0.00    +0.000 NA
ATOM      7  C   UNL     1       1.478   8.019  20.505  0.00  0.00    +0.000 A 
ATOM      8  C   UNL     1       1.915   6.688  20.468  0.00  0.00    +0.000 A 
ATOM      9  C   UNL     1       2.505   6.203  19.291  0.00  0.00    +0.000 A 
ATOM     10  C   UNL     1       2.700   7.032  18.187  0.00  0.00    +0.000 A 
ATOM     11  C   UNL     1       2.283   8.367  18.204  0.00  0.00    +0.000 A 
ATOM     12  C   UNL     1       1.649   8.807  19.371  0.00  0.00    +0.000 A 
ATOM     13  N   UNL     1       0.966   9.957  19.662  0.00  0.00    +0.000 N 
ATOM     14  C   UNL     1       0.402  10.876  18.675  0.00  0.00    +0.000 C 
ATOM     15  H   UNL     1      -0.915  10.552  22.230  0.00  0.00    +0.000 HD
ENDROOT
BRANCH  14  16
ATOM     16  C   UNL     1       1.287  12.064  18.398  0.00  0.00    +0.000 A 
ATOM     17  C   UNL     1       2.611  12.144  18.007  0.00  0.00    +0.000 A 
ATOM     18  N   UNL     1       2.938  13.471  18.078  0.00  0.00    +0.000 N 
ATOM     19  C   UNL     1       1.827  14.148  18.495  0.00  0.00    +0.000 A 
ATOM     20  N   UNL     1       0.813  13.337  18.676  0.00  0.00    +0.000 NA
ATOM     21  H   UNL     1       3.843  13.883  17.891  0.00  0.00    +0.000 HD
ENDBRANCH  14  16
BRANCH   1  22
ATOM     22  C   UNL     1      -2.022  10.763  18.231  0.00  0.00    +0.000 C 
ATOM     23  O   UNL     1      -2.519   9.664  18.404  0.00  0.00    +0.000 OA
BRANCH  22  24
ATOM     24  O   UNL     1      -2.139  11.533  17.120  0.00  0.00    +0.000 OA
BRANCH  24  26
ATOM     25  C   UNL     1      -2.862  10.449  15.089  0.00  0.00    +0.000 C 
ATOM     26  C   UNL     1      -3.285  11.285  16.287  0.00  0.00    +0.000 C 
ENDBRANCH  24  26
ENDBRANCH  22  24
ENDBRANCH   1  22
TORSDOF 4
ENDMDL
MODEL 8
REMARK VINA RESULT:      -6.3      2.149      5.521
REMARK  Name = 
REMARK  6 active torsions:
REMARK  status: ('A' for Active; 'I' for Inactive)
REMARK    1  A    between atoms: C_1  and  C_2
REMARK    2  A    between atoms: C_2  and  O_3
REMARK    3  A    between atoms: O_3  and  C_4
REMARK    4  A    between atoms: C_4  and  C_6
REMARK    5  A    between atoms: C_7  and  C_8
REMARK    6  A    between atoms: C_19  and  C_20
REMARK                            x       y       z     vdW  Elec       q    Type
REMARK                         _______ _______ _______ _____ _____    ______ ____
ROOT
ATOM      1  C   UNL     1       5.262   5.323  16.791  0.00  0.00    +0.000 C 
ATOM      2  C   UNL     1       4.554   6.420  16.444  0.00  0.00    +0.000 C 
ATOM      3  C   UNL     1       4.892   7.236  15.229  0.00  0.00    +0.000 C 
ATOM      4  N   UNL     1       3.608   6.945  17.333  0.00  0.00    +0.000 N 
ATOM      5  C   UNL     1       3.217   6.215  18.408  0.00  0.00    +0.000 A 
ATOM      6  N   UNL     1       2.031   6.105  18.959  0.00  0.00    +0.000 NA
ATOM      7  C   UNL     1       2.123   5.001  19.786  0.00  0.00    +0.000 A 
ATOM      8  C   UNL     1       1.125   4.301  20.477  0.00  0.00    +0.000 A 
ATOM      9  C   UNL     1       1.483   3.151  21.198  0.00  0.00    +0.000 A 
ATOM     10  C   UNL     1       2.809   2.727  21.268  0.00  0.00    +0.000 A 
ATOM     11  C   UNL     1       3.824   3.415  20.596  0.00  0.00    +0.000 A 
ATOM     12  C   UNL     1       3.429   4.526  19.842  0.00  0.00    +0.000 A 
ATOM     13  N   UNL     1       4.102   5.300  18.934  0.00  0.00    +0.000 N 
ATOM     14  C   UNL     1       5.328   4.912  18.239  0.00  0.00    +0.000 C 
ATOM     15  H   UNL     1       2.863   7.468  16.873  0.00  0.00    +0.000 HD
ENDROOT
BRANCH  14  16
ATOM     16  C   UNL     1       6.574   5.465  18.882  0.00  0.00    +0.000 A 
ATOM     17  C   UNL     1       7.525   6.352  18.413  0.00  0.00    +0.000 A 
ATOM     18  N   UNL     1       8.521   6.357  19.351  0.00  0.00    +0.000 N 
ATOM     19  C   UNL     1       8.155   5.495  20.346  0.00  0.00    +0.000 A 
ATOM     20  N   UNL     1       6.983   4.959  20.106  0.00  0.00    +0.000 NA
ATOM     21  H   UNL     1       9.390   6.873  19.310  0.00  0.00    +0.000 HD
ENDBRANCH  14  16
BRANCH   1  22
ATOM     22  C   UNL     1       5.147   4.135  15.905  0.00  0.00    +0.000 C 
ATOM     23  O   UNL     1       4.154   3.432  15.847  0.00  0.00    +0.000 OA
BRANCH  22  24
ATOM     24  O   UNL     1       6.370   3.845  15.394  0.00  0.00    +0.000 OA
BRANCH  24  26
ATOM     25  C   UNL     1       6.111   3.615  13.006  0.00  0.00    +0.000 C 
ATOM     26  C   UNL     1       6.698   4.452  14.132  0.00  0.00    +0.000 C 
ENDBRANCH  24  26
ENDBRANCH  22  24
ENDBRANCH   1  22
TORSDOF 4
ENDMDL
MODEL 9
REMARK VINA RESULT:      -6.2      6.290      9.883
REMARK  Name = 
REMARK  6 active torsions:
REMARK  status: ('A' for Active; 'I' for Inactive)
REMARK    1  A    between atoms: C_1  and  C_2
REMARK    2  A    between atoms: C_2  and  O_3
REMARK    3  A    between atoms: O_3  and  C_4
REMARK    4  A    between atoms: C_4  and  C_6
REMARK    5  A    between atoms: C_7  and  C_8
REMARK    6  A    between atoms: C_19  and  C_20
REMARK                            x       y       z     vdW  Elec       q    Type
REMARK                         _______ _______ _______ _____ _____    ______ ____
ROOT
ATOM      1  C   UNL     1      -0.276  10.939  19.598  0.00  0.00    +0.000 C 
ATOM      2  C   UNL     1      -0.072  10.233  18.463  0.00  0.00    +0.000 C 
ATOM      3  C   UNL     1       1.256   9.610  18.140  0.00  0.00    +0.000 C 
ATOM      4  N   UNL     1      -1.044  10.244  17.455  0.00  0.00    +0.000 N 
ATOM      5  C   UNL     1      -2.282  10.732  17.718  0.00  0.00    +0.000 A 
ATOM      6  N   UNL     1      -3.454  10.312  17.303  0.00  0.00    +0.000 NA
ATOM      7  C   UNL     1      -4.370  10.941  18.125  0.00  0.00    +0.000 A 
ATOM      8  C   UNL     1      -5.749  10.734  18.270  0.00  0.00    +0.000 A 
ATOM      9  C   UNL     1      -6.443  11.468  19.245  0.00  0.00    +0.000 A 
ATOM     10  C   UNL     1      -5.793  12.418  20.031  0.00  0.00    +0.000 A 
ATOM     11  C   UNL     1      -4.420  12.650  19.897  0.00  0.00    +0.000 A 
ATOM     12  C   UNL     1      -3.745  11.866  18.955  0.00  0.00    +0.000 A 
ATOM     13  N   UNL     1      -2.412  11.694  18.696  0.00  0.00    +0.000 N 
ATOM     14  C   UNL     1      -1.325  12.022  19.616  0.00  0.00    +0.000 C 
ATOM     15  H   UNL     1      -1.025   9.414  16.862  0.00  0.00    +0.000 HD
ENDROOT
BRANCH  14  16
ATOM     16  C   UNL     1      -0.695  13.362  19.336  0.00  0.00    +0.000 A 
ATOM     17  C   UNL     1       0.397  13.712  18.563  0.00  0.00    +0.000 A 
ATOM     18  N   UNL     1       0.617  15.039  18.815  0.00  0.00    +0.000 N 
ATOM     19  C   UNL     1      -0.328  15.452  19.710  0.00  0.00    +0.000 A 
ATOM     20  N   UNL     1      -1.143  14.476  20.028  0.00  0.00    +0.000 NA
ATOM     21  H   UNL     1       1.362  15.612  18.438  0.00  0.00    +0.000 HD
ENDBRANCH  14  16
BRANCH   1  22
ATOM     22  C   UNL     1      -0.270  10.180  20.875  0.00  0.00    +0.000 C 
ATOM     23  O   UNL     1      -0.502   8.987  20.952  0.00  0.00    +0.000 OA
BRANCH  22  24
ATOM     24  O   UNL     1      -0.218  11.058  21.909  0.00  0.00    +0.000 OA
BRANCH  24  26
ATOM     25  C   UNL     1      -2.151  11.761  23.171  0.00  0.00    +0.000 C 
ATOM     26  C   UNL     1      -1.025  10.745  23.057  0.00  0.00    +0.000 C 
ENDBRANCH  24  26
ENDBRANCH  22  24
ENDBRANCH   1  22
TORSDOF 4
ENDMDL
