MODEL 1
REMARK VINA RESULT:      -5.4      0.000      0.000
REMARK  Name = 
REMARK  11 active torsions:
REMARK  status: ('A' for Active; 'I' for Inactive)
REMARK    1  A    between atoms: C_1  and  O_2
REMARK    2  A    between atoms: O_2  and  C_3
REMARK    3  A    between atoms: C_6  and  C_7
REMARK    4  A    between atoms: C_8  and  C_9
REMARK    5  A    between atoms: C_11  and  O_12
REMARK    6  A    between atoms: O_12  and  C_13
REMARK    7  A    between atoms: C_14  and  O_15
REMARK    8  A    between atoms: O_15  and  C_16
REMARK    9  A    between atoms: C_17  and  O_18
REMARK   10  A    between atoms: O_18  and  C_19
REMARK   11  A    between atoms: C_26  and  N_27
REMARK                            x       y       z     vdW  Elec       q    Type
REMARK                         _______ _______ _______ _____ _____    ______ ____
ROOT
ATOM      1  C   UNL     1      -1.624  13.911  21.336  0.00  0.00    +0.000 A 
ATOM      2  C   UNL     1      -2.896  14.321  21.169  0.00  0.00    +0.000 A 
ATOM      3  S   UNL     1      -3.284  16.006  21.253  0.00  0.00    +0.000 S 
ATOM      4  S   UNL     1      -1.417  16.566  21.826  0.00  0.00    +0.000 S 
ATOM      5  C   UNL     1      -0.637  14.997  21.629  0.00  0.00    +0.000 A 
ATOM      6  S   UNL     1       1.024  14.842  21.813  0.00  0.00    +0.000 S 
ENDROOT
BRANCH   1  10
ATOM      7  C   UNL     1      -0.428   9.814  21.125  0.00  0.00    +0.000 A 
ATOM      8  C   UNL     1      -0.600  10.560  19.955  0.00  0.00    +0.000 A 
ATOM      9  C   UNL     1      -0.991  11.897  20.025  0.00  0.00    +0.000 A 
ATOM     10  C   UNL     1      -1.239  12.492  21.267  0.00  0.00    +0.000 A 
ATOM     11  C   UNL     1      -1.109  11.733  22.438  0.00  0.00    +0.000 A 
ATOM     12  C   UNL     1      -0.667  10.406  22.380  0.00  0.00    +0.000 A 
BRANCH  12  13
ATOM     13  N   UNL     1      -0.664   9.629  23.554  0.00  0.00    +0.000 N 
ATOM     14  H   UNL     1      -1.108   8.723  23.464  0.00  0.00    +0.000 HD
ATOM     15  H   UNL     1      -1.000  10.170  24.350  0.00  0.00    +0.000 HD
ENDBRANCH  12  13
BRANCH   7  17
ATOM     16  C   UNL     1       1.354   8.291  20.830  0.00  0.00    +0.000 C 
ATOM     17  O   UNL     1      -0.021   8.500  21.141  0.00  0.00    +0.000 OA
ENDBRANCH   7  17
ENDBRANCH   1  10
BRANCH   2  18
ATOM     18  C   UNL     1      -4.051  13.441  20.926  0.00  0.00    +0.000 A 
ATOM     19  C   UNL     1      -4.874  13.072  21.993  0.00  0.00    +0.000 A 
ATOM     20  C   UNL     1      -6.010  12.285  21.774  0.00  0.00    +0.000 A 
ATOM     21  C   UNL     1      -6.311  11.825  20.473  0.00  0.00    +0.000 A 
ATOM     22  C   UNL     1      -5.462  12.164  19.396  0.00  0.00    +0.000 A 
ATOM     23  C   UNL     1      -4.346  12.979  19.639  0.00  0.00    +0.000 A 
BRANCH  20  24
ATOM     24  O   UNL     1      -6.869  11.920  22.785  0.00  0.00    +0.000 OA
ATOM     25  C   UNL     1      -6.864  12.744  23.944  0.00  0.00    +0.000 C 
ENDBRANCH  20  24
BRANCH  21  26
ATOM     26  O   UNL     1      -7.415  11.004  20.384  0.00  0.00    +0.000 OA
ATOM     27  C   UNL     1      -7.175   9.620  20.159  0.00  0.00    +0.000 C 
ENDBRANCH  21  26
BRANCH  22  28
ATOM     28  O   UNL     1      -5.759  11.658  18.159  0.00  0.00    +0.000 OA
ATOM     29  C   UNL     1      -6.322  12.533  17.189  0.00  0.00    +0.000 C 
ENDBRANCH  22  28
ENDBRANCH   2  18
TORSDOF 7
ENDMDL
MODEL 2
REMARK VINA RESULT:      -5.2      1.202      1.285
REMARK  Name = 
REMARK  11 active torsions:
REMARK  status: ('A' for Active; 'I' for Inactive)
REMARK    1  A    between atoms: C_1  and  O_2
REMARK    2  A    between atoms: O_2  and  C_3
REMARK    3  A    between atoms: C_6  and  C_7
REMARK    4  A    between atoms: C_8  and  C_9
REMARK    5  A    between atoms: C_11  and  O_12
REMARK    6  A    between atoms: O_12  and  C_13
REMARK    7  A    between atoms: C_14  and  O_15
REMARK    8  A    between atoms: O_15  and  C_16
REMARK    9  A    between atoms: C_17  and  O_18
REMARK   10  A    between atoms: O_18  and  C_19
REMARK   11  A    between atoms: C_26  and  N_27
REMARK                            x       y       z     vdW  Elec       q    Type
REMARK                         _______ _______ _______ _____ _____    ______ ____
ROOT
ATOM      1  C   UNL     1      -0.486  13.553  20.806  0.00  0.00    +0.000 A 
ATOM      2  C   UNL     1      -1.700  14.133  20.758  0.00  0.00    +0.000 A 
ATOM      3  S   UNL     1      -1.835  15.854  20.622  0.00  0.00    +0.000 S 
ATOM      4  S   UNL     1       0.159  16.182  20.826  0.00  0.00    +0.000 S 
ATOM      5  C   UNL     1       0.675  14.497  20.776  0.00  0.00    +0.000 A 
ATOM      6  S   UNL     1       2.306  14.106  20.743  0.00  0.00    +0.000 S 
ENDROOT
BRANCH   1  10
ATOM      7  C   UNL     1       0.092   9.330  21.109  0.00  0.00    +0.000 A 
ATOM      8  C   UNL     1       0.094   9.954  19.858  0.00  0.00    +0.000 A 
ATOM      9  C   UNL     1      -0.095  11.332  19.760  0.00  0.00    +0.000 A 
ATOM     10  C   UNL     1      -0.315  12.095  20.912  0.00  0.00    +0.000 A 
ATOM     11  C   UNL     1      -0.361  11.463  22.163  0.00  0.00    +0.000 A 
ATOM     12  C   UNL     1      -0.120  10.088  22.276  0.00  0.00    +0.000 A 
BRANCH  12  13
ATOM     13  N   UNL     1      -0.295   9.458  23.522  0.00  0.00    +0.000 N 
ATOM     14  H   UNL     1      -0.765   8.562  23.482  0.00  0.00    +0.000 HD
ATOM     15  H   UNL     1      -0.701  10.100  24.201  0.00  0.00    +0.000 HD
ENDBRANCH  12  13
BRANCH   7  17
ATOM     16  C   UNL     1       1.547   7.491  20.817  0.00  0.00    +0.000 C 
ATOM     17  O   UNL     1       0.296   7.981  21.291  0.00  0.00    +0.000 OA
ENDBRANCH   7  17
ENDBRANCH   1  10
BRANCH   2  18
ATOM     18  C   UNL     1      -2.989  13.424  20.828  0.00  0.00    +0.000 A 
ATOM     19  C   UNL     1      -3.657  13.325  22.051  0.00  0.00    +0.000 A 
ATOM     20  C   UNL     1      -4.910  12.708  22.127  0.00  0.00    +0.000 A 
ATOM     21  C   UNL     1      -5.491  12.143  20.970  0.00  0.00    +0.000 A 
ATOM     22  C   UNL     1      -4.804  12.207  19.738  0.00  0.00    +0.000 A 
ATOM     23  C   UNL     1      -3.562  12.858  19.684  0.00  0.00    +0.000 A 
BRANCH  20  24
ATOM     24  O   UNL     1      -5.623  12.612  23.300  0.00  0.00    +0.000 OA
ATOM     25  C   UNL     1      -6.183  13.821  23.798  0.00  0.00    +0.000 C 
ENDBRANCH  20  24
BRANCH  21  26
ATOM     26  O   UNL     1      -6.695  11.503  21.174  0.00  0.00    +0.000 OA
ATOM     27  C   UNL     1      -7.875  12.227  20.846  0.00  0.00    +0.000 C 
ENDBRANCH  21  26
BRANCH  22  28
ATOM     28  O   UNL     1      -5.377  11.605  18.649  0.00  0.00    +0.000 OA
ATOM     29  C   UNL     1      -4.742  11.751  17.386  0.00  0.00    +0.000 C 
ENDBRANCH  22  28
ENDBRANCH   2  18
TORSDOF 7
ENDMDL
MODEL 3
REMARK VINA RESULT:      -5.2      6.683      9.811
REMARK  Name = 
REMARK  11 active torsions:
REMARK  status: ('A' for Active; 'I' for Inactive)
REMARK    1  A    between atoms: C_1  and  O_2
REMARK    2  A    between atoms: O_2  and  C_3
REMARK    3  A    between atoms: C_6  and  C_7
REMARK    4  A    between atoms: C_8  and  C_9
REMARK    5  A    between atoms: C_11  and  O_12
REMARK    6  A    between atoms: O_12  and  C_13
REMARK    7  A    between atoms: C_14  and  O_15
REMARK    8  A    between atoms: O_15  and  C_16
REMARK    9  A    between atoms: C_17  and  O_18
REMARK   10  A    between atoms: O_18  and  C_19
REMARK   11  A    between atoms: C_26  and  N_27
REMARK                            x       y       z     vdW  Elec       q    Type
REMARK                         _______ _______ _______ _____ _____    ______ ____
ROOT
ATOM      1  C   UNL     1       3.143   4.281  18.949  0.00  0.00    +0.000 A 
ATOM      2  C   UNL     1       2.052   4.868  19.475  0.00  0.00    +0.000 A 
ATOM      3  S   UNL     1       0.746   3.899  20.071  0.00  0.00    +0.000 S 
ATOM      4  S   UNL     1       1.540   2.149  19.413  0.00  0.00    +0.000 S 
ATOM      5  C   UNL     1       3.100   2.785  18.894  0.00  0.00    +0.000 A 
ATOM      6  S   UNL     1       4.313   1.749  18.375  0.00  0.00    +0.000 S 
ENDROOT
BRANCH   1  10
ATOM      7  C   UNL     1       6.497   6.464  17.450  0.00  0.00    +0.000 A 
ATOM      8  C   UNL     1       6.470   6.039  18.782  0.00  0.00    +0.000 A 
ATOM      9  C   UNL     1       5.375   5.327  19.270  0.00  0.00    +0.000 A 
ATOM     10  C   UNL     1       4.284   5.056  18.436  0.00  0.00    +0.000 A 
ATOM     11  C   UNL     1       4.291   5.520  17.113  0.00  0.00    +0.000 A 
ATOM     12  C   UNL     1       5.409   6.189  16.599  0.00  0.00    +0.000 A 
BRANCH  12  13
ATOM     13  N   UNL     1       5.342   6.752  15.311  0.00  0.00    +0.000 N 
ATOM     14  H   UNL     1       5.383   7.764  15.287  0.00  0.00    +0.000 HD
ATOM     15  H   UNL     1       4.562   6.363  14.784  0.00  0.00    +0.000 HD
ENDBRANCH  12  13
BRANCH   7  17
ATOM     16  C   UNL     1       7.933   8.336  17.572  0.00  0.00    +0.000 C 
ATOM     17  O   UNL     1       7.549   7.147  16.886  0.00  0.00    +0.000 OA
ENDBRANCH   7  17
ENDBRANCH   1  10
BRANCH   2  18
ATOM     18  C   UNL     1       1.834   6.320  19.588  0.00  0.00    +0.000 A 
ATOM     19  C   UNL     1       1.497   6.874  20.825  0.00  0.00    +0.000 A 
ATOM     20  C   UNL     1       1.345   8.257  20.965  0.00  0.00    +0.000 A 
ATOM     21  C   UNL     1       1.493   9.102  19.843  0.00  0.00    +0.000 A 
ATOM     22  C   UNL     1       1.798   8.545  18.582  0.00  0.00    +0.000 A 
ATOM     23  C   UNL     1       1.975   7.156  18.475  0.00  0.00    +0.000 A 
BRANCH  20  24
ATOM     24  O   UNL     1       1.043   8.855  22.168  0.00  0.00    +0.000 OA
ATOM     25  C   UNL     1      -0.325   8.832  22.556  0.00  0.00    +0.000 C 
ENDBRANCH  20  24
BRANCH  21  26
ATOM     26  O   UNL     1       1.256  10.439  20.083  0.00  0.00    +0.000 OA
ATOM     27  C   UNL     1      -0.035  10.936  19.753  0.00  0.00    +0.000 C 
ENDBRANCH  21  26
BRANCH  22  28
ATOM     28  O   UNL     1       1.886   9.390  17.509  0.00  0.00    +0.000 OA
ATOM     29  C   UNL     1       2.714  10.540  17.621  0.00  0.00    +0.000 C 
ENDBRANCH  22  28
ENDBRANCH   2  18
TORSDOF 7
ENDMDL
MODEL 4
REMARK VINA RESULT:      -5.2      8.543     11.313
REMARK  Name = 
REMARK  11 active torsions:
REMARK  status: ('A' for Active; 'I' for Inactive)
REMARK    1  A    between atoms: C_1  and  O_2
REMARK    2  A    between atoms: O_2  and  C_3
REMARK    3  A    between atoms: C_6  and  C_7
REMARK    4  A    between atoms: C_8  and  C_9
REMARK    5  A    between atoms: C_11  and  O_12
REMARK    6  A    between atoms: O_12  and  C_13
REMARK    7  A    between atoms: C_14  and  O_15
REMARK    8  A    between atoms: O_15  and  C_16
REMARK    9  A    between atoms: C_17  and  O_18
REMARK   10  A    between atoms: O_18  and  C_19
REMARK   11  A    between atoms: C_26  and  N_27
REMARK                            x       y       z     vdW  Elec       q    Type
REMARK                         _______ _______ _______ _____ _____    ______ ____
ROOT
ATOM      1  C   UNL     1       9.547  14.975  18.760  0.00  0.00    +0.000 A 
ATOM      2  C   UNL     1       8.560  15.852  19.026  0.00  0.00    +0.000 A 
ATOM      3  S   UNL     1       8.859  17.555  18.920  0.00  0.00    +0.000 S 
ATOM      4  S   UNL     1      10.852  17.342  18.597  0.00  0.00    +0.000 S 
ATOM      5  C   UNL     1      10.871  15.587  18.423  0.00  0.00    +0.000 A 
ATOM      6  S   UNL     1      12.276  14.791  17.970  0.00  0.00    +0.000 S 
ENDROOT
BRANCH   1  10
ATOM      7  C   UNL     1       9.034  10.736  18.920  0.00  0.00    +0.000 A 
ATOM      8  C   UNL     1       8.802  11.430  17.729  0.00  0.00    +0.000 A 
ATOM      9  C   UNL     1       8.969  12.814  17.678  0.00  0.00    +0.000 A 
ATOM     10  C   UNL     1       9.345  13.519  18.826  0.00  0.00    +0.000 A 
ATOM     11  C   UNL     1       9.536  12.829  20.032  0.00  0.00    +0.000 A 
ATOM     12  C   UNL     1       9.421  11.435  20.080  0.00  0.00    +0.000 A 
BRANCH  12  13
ATOM     13  N   UNL     1       9.494  10.780  21.324  0.00  0.00    +0.000 N 
ATOM     14  H   UNL     1       8.647  10.299  21.600  0.00  0.00    +0.000 HD
ATOM     15  H   UNL     1       9.861  11.403  22.042  0.00  0.00    +0.000 HD
ENDBRANCH  12  13
BRANCH   7  17
ATOM     16  C   UNL     1       8.213   8.727  17.988  0.00  0.00    +0.000 C 
ATOM     17  O   UNL     1       8.916   9.371  19.045  0.00  0.00    +0.000 OA
ENDBRANCH   7  17
ENDBRANCH   1  10
BRANCH   2  18
ATOM     18  C   UNL     1       7.190  15.497  19.432  0.00  0.00    +0.000 A 
ATOM     19  C   UNL     1       6.188  15.391  18.465  0.00  0.00    +0.000 A 
ATOM     20  C   UNL     1       4.895  14.997  18.823  0.00  0.00    +0.000 A 
ATOM     21  C   UNL     1       4.583  14.741  20.177  0.00  0.00    +0.000 A 
ATOM     22  C   UNL     1       5.583  14.882  21.164  0.00  0.00    +0.000 A 
ATOM     23  C   UNL     1       6.879  15.250  20.774  0.00  0.00    +0.000 A 
BRANCH  20  24
ATOM     24  O   UNL     1       3.880  14.849  17.905  0.00  0.00    +0.000 OA
ATOM     25  C   UNL     1       3.359  16.048  17.344  0.00  0.00    +0.000 C 
ENDBRANCH  20  24
BRANCH  21  26
ATOM     26  O   UNL     1       3.264  14.425  20.423  0.00  0.00    +0.000 OA
ATOM     27  C   UNL     1       2.426  15.472  20.898  0.00  0.00    +0.000 C 
ENDBRANCH  21  26
BRANCH  22  28
ATOM     28  O   UNL     1       5.230  14.672  22.471  0.00  0.00    +0.000 OA
ATOM     29  C   UNL     1       5.267  15.777  23.365  0.00  0.00    +0.000 C 
ENDBRANCH  22  28
ENDBRANCH   2  18
TORSDOF 7
ENDMDL
MODEL 5
REMARK VINA RESULT:      -5.2      6.658     10.054
REMARK  Name = 
REMARK  11 active torsions:
REMARK  status: ('A' for Active; 'I' for Inactive)
REMARK    1  A    between atoms: C_1  and  O_2
REMARK    2  A    between atoms: O_2  and  C_3
REMARK    3  A    between atoms: C_6  and  C_7
REMARK    4  A    between atoms: C_8  and  C_9
REMARK    5  A    between atoms: C_11  and  O_12
REMARK    6  A    between atoms: O_12  and  C_13
REMARK    7  A    between atoms: C_14  and  O_15
REMARK    8  A    between atoms: O_15  and  C_16
REMARK    9  A    between atoms: C_17  and  O_18
REMARK   10  A    between atoms: O_18  and  C_19
REMARK   11  A    between atoms: C_26  and  N_27
REMARK                            x       y       z     vdW  Elec       q    Type
REMARK                         _______ _______ _______ _____ _____    ______ ____
ROOT
ATOM      1  C   UNL     1       3.120   4.295  18.952  0.00  0.00    +0.000 A 
ATOM      2  C   UNL     1       2.048   4.888  19.510  0.00  0.00    +0.000 A 
ATOM      3  S   UNL     1       0.735   3.927  20.103  0.00  0.00    +0.000 S 
ATOM      4  S   UNL     1       1.488   2.180  19.392  0.00  0.00    +0.000 S 
ATOM      5  C   UNL     1       3.051   2.803  18.862  0.00  0.00    +0.000 A 
ATOM      6  S   UNL     1       4.237   1.759  18.299  0.00  0.00    +0.000 S 
ENDROOT
BRANCH   1  10
ATOM      7  C   UNL     1       6.488   6.457  17.452  0.00  0.00    +0.000 A 
ATOM      8  C   UNL     1       6.469   6.011  18.777  0.00  0.00    +0.000 A 
ATOM      9  C   UNL     1       5.369   5.306  19.265  0.00  0.00    +0.000 A 
ATOM     10  C   UNL     1       4.267   5.064  18.440  0.00  0.00    +0.000 A 
ATOM     11  C   UNL     1       4.266   5.548  17.124  0.00  0.00    +0.000 A 
ATOM     12  C   UNL     1       5.387   6.211  16.609  0.00  0.00    +0.000 A 
BRANCH  12  13
ATOM     13  N   UNL     1       5.314   6.795  15.330  0.00  0.00    +0.000 N 
ATOM     14  H   UNL     1       4.431   6.663  14.853  0.00  0.00    +0.000 HD
ATOM     15  H   UNL     1       6.123   6.539  14.766  0.00  0.00    +0.000 HD
ENDBRANCH  12  13
BRANCH   7  17
ATOM     16  C   UNL     1       7.923   8.330  17.563  0.00  0.00    +0.000 C 
ATOM     17  O   UNL     1       7.543   7.135  16.888  0.00  0.00    +0.000 OA
ENDBRANCH   7  17
ENDBRANCH   1  10
BRANCH   2  18
ATOM     18  C   UNL     1       1.857   6.341  19.660  0.00  0.00    +0.000 A 
ATOM     19  C   UNL     1       1.941   7.168  18.538  0.00  0.00    +0.000 A 
ATOM     20  C   UNL     1       1.704   8.542  18.650  0.00  0.00    +0.000 A 
ATOM     21  C   UNL     1       1.418   9.109  19.912  0.00  0.00    +0.000 A 
ATOM     22  C   UNL     1       1.368   8.283  21.056  0.00  0.00    +0.000 A 
ATOM     23  C   UNL     1       1.580   6.904  20.911  0.00  0.00    +0.000 A 
BRANCH  20  24
ATOM     24  O   UNL     1       1.745   9.395  17.571  0.00  0.00    +0.000 OA
ATOM     25  C   UNL     1       2.765  10.387  17.590  0.00  0.00    +0.000 C 
ENDBRANCH  20  24
BRANCH  21  26
ATOM     26  O   UNL     1       1.268  10.480  19.915  0.00  0.00    +0.000 OA
ATOM     27  C   UNL     1      -0.058  10.985  19.808  0.00  0.00    +0.000 C 
ENDBRANCH  21  26
BRANCH  22  28
ATOM     28  O   UNL     1       1.135   8.877  22.268  0.00  0.00    +0.000 OA
ATOM     29  C   UNL     1      -0.211   9.013  22.706  0.00  0.00    +0.000 C 
ENDBRANCH  22  28
ENDBRANCH   2  18
TORSDOF 7
ENDMDL
MODEL 6
REMARK VINA RESULT:      -5.2      2.343      5.423
REMARK  Name = 
REMARK  11 active torsions:
REMARK  status: ('A' for Active; 'I' for Inactive)
REMARK    1  A    between atoms: C_1  and  O_2
REMARK    2  A    between atoms: O_2  and  C_3
REMARK    3  A    between atoms: C_6  and  C_7
REMARK    4  A    between atoms: C_8  and  C_9
REMARK    5  A    between atoms: C_11  and  O_12
REMARK    6  A    between atoms: O_12  and  C_13
REMARK    7  A    between atoms: C_14  and  O_15
REMARK    8  A    between atoms: O_15  and  C_16
REMARK    9  A    between atoms: C_17  and  O_18
REMARK   10  A    between atoms: O_18  and  C_19
REMARK   11  A    between atoms: C_26  and  N_27
REMARK                            x       y       z     vdW  Elec       q    Type
REMARK                         _______ _______ _______ _____ _____    ______ ____
ROOT
ATOM      1  C   UNL     1      -2.212  15.513  22.441  0.00  0.00    +0.000 A 
ATOM      2  C   UNL     1      -1.070  15.106  21.854  0.00  0.00    +0.000 A 
ATOM      3  S   UNL     1       0.285  16.180  21.750  0.00  0.00    +0.000 S 
ATOM      4  S   UNL     1      -0.729  17.778  22.488  0.00  0.00    +0.000 S 
ATOM      5  C   UNL     1      -2.208  16.927  22.932  0.00  0.00    +0.000 A 
ATOM      6  S   UNL     1      -3.427  17.718  23.770  0.00  0.00    +0.000 S 
ENDROOT
BRANCH   1  10
ATOM      7  C   UNL     1      -5.597  12.923  22.743  0.00  0.00    +0.000 A 
ATOM      8  C   UNL     1      -5.498  13.834  21.687  0.00  0.00    +0.000 A 
ATOM      9  C   UNL     1      -4.393  14.679  21.590  0.00  0.00    +0.000 A 
ATOM     10  C   UNL     1      -3.389  14.639  22.563  0.00  0.00    +0.000 A 
ATOM     11  C   UNL     1      -3.509  13.755  23.646  0.00  0.00    +0.000 A 
ATOM     12  C   UNL     1      -4.588  12.867  23.723  0.00  0.00    +0.000 A 
BRANCH  12  13
ATOM     13  N   UNL     1      -4.750  12.080  24.879  0.00  0.00    +0.000 N 
ATOM     14  H   UNL     1      -5.707  11.990  25.200  0.00  0.00    +0.000 HD
ATOM     15  H   UNL     1      -4.101  12.368  25.610  0.00  0.00    +0.000 HD
ENDBRANCH  12  13
BRANCH   7  17
ATOM     16  C   UNL     1      -7.917  12.641  23.091  0.00  0.00    +0.000 C 
ATOM     17  O   UNL     1      -6.640  12.039  22.895  0.00  0.00    +0.000 OA
ENDBRANCH   7  17
ENDBRANCH   1  10
BRANCH   2  18
ATOM     18  C   UNL     1      -0.847  13.783  21.247  0.00  0.00    +0.000 A 
ATOM     19  C   UNL     1      -0.283  12.758  22.010  0.00  0.00    +0.000 A 
ATOM     20  C   UNL     1      -0.118  11.479  21.469  0.00  0.00    +0.000 A 
ATOM     21  C   UNL     1      -0.487  11.224  20.130  0.00  0.00    +0.000 A 
ATOM     22  C   UNL     1      -1.025  12.266  19.342  0.00  0.00    +0.000 A 
ATOM     23  C   UNL     1      -1.207  13.532  19.918  0.00  0.00    +0.000 A 
BRANCH  20  24
ATOM     24  O   UNL     1       0.405  10.428  22.189  0.00  0.00    +0.000 OA
ATOM     25  C   UNL     1      -0.433   9.877  23.197  0.00  0.00    +0.000 C 
ENDBRANCH  20  24
BRANCH  21  26
ATOM     26  O   UNL     1      -0.220   9.948  19.683  0.00  0.00    +0.000 OA
ATOM     27  C   UNL     1       0.954   9.770  18.899  0.00  0.00    +0.000 C 
ENDBRANCH  21  26
BRANCH  22  28
ATOM     28  O   UNL     1      -1.325  11.993  18.034  0.00  0.00    +0.000 OA
ATOM     29  C   UNL     1      -2.652  11.593  17.715  0.00  0.00    +0.000 C 
ENDBRANCH  22  28
ENDBRANCH   2  18
TORSDOF 7
ENDMDL
MODEL 7
REMARK VINA RESULT:      -5.2      1.320      2.819
REMARK  Name = 
REMARK  11 active torsions:
REMARK  status: ('A' for Active; 'I' for Inactive)
REMARK    1  A    between atoms: C_1  and  O_2
REMARK    2  A    between atoms: O_2  and  C_3
REMARK    3  A    between atoms: C_6  and  C_7
REMARK    4  A    between atoms: C_8  and  C_9
REMARK    5  A    between atoms: C_11  and  O_12
REMARK    6  A    between atoms: O_12  and  C_13
REMARK    7  A    between atoms: C_14  and  O_15
REMARK    8  A    between atoms: O_15  and  C_16
REMARK    9  A    between atoms: C_17  and  O_18
REMARK   10  A    between atoms: O_18  and  C_19
REMARK   11  A    between atoms: C_26  and  N_27
REMARK                            x       y       z     vdW  Elec       q    Type
REMARK                         _______ _______ _______ _____ _____    ______ ____
ROOT
ATOM      1  C   UNL     1      -0.461  13.657  20.611  0.00  0.00    +0.000 A 
ATOM      2  C   UNL     1      -1.640  14.305  20.683  0.00  0.00    +0.000 A 
ATOM      3  S   UNL     1      -1.700  16.022  20.469  0.00  0.00    +0.000 S 
ATOM      4  S   UNL     1       0.318  16.241  20.401  0.00  0.00    +0.000 S 
ATOM      5  C   UNL     1       0.734  14.528  20.381  0.00  0.00    +0.000 A 
ATOM      6  S   UNL     1       2.324  14.040  20.166  0.00  0.00    +0.000 S 
ENDROOT
BRANCH   1  10
ATOM      7  C   UNL     1      -0.071   9.428  21.086  0.00  0.00    +0.000 A 
ATOM      8  C   UNL     1      -0.051   9.999  19.810  0.00  0.00    +0.000 A 
ATOM      9  C   UNL     1      -0.179  11.379  19.657  0.00  0.00    +0.000 A 
ATOM     10  C   UNL     1      -0.354  12.198  20.777  0.00  0.00    +0.000 A 
ATOM     11  C   UNL     1      -0.419  11.622  22.054  0.00  0.00    +0.000 A 
ATOM     12  C   UNL     1      -0.238  10.244  22.222  0.00  0.00    +0.000 A 
BRANCH  12  13
ATOM     13  N   UNL     1      -0.430   9.674  23.495  0.00  0.00    +0.000 N 
ATOM     14  H   UNL     1      -0.281   8.673  23.539  0.00  0.00    +0.000 HD
ATOM     15  H   UNL     1      -1.318   9.972  23.897  0.00  0.00    +0.000 HD
ENDBRANCH  12  13
BRANCH   7  17
ATOM     16  C   UNL     1       1.322   7.527  20.913  0.00  0.00    +0.000 C 
ATOM     17  O   UNL     1       0.075   8.081  21.323  0.00  0.00    +0.000 OA
ENDBRANCH   7  17
ENDBRANCH   1  10
BRANCH   2  18
ATOM     18  C   UNL     1      -2.944  13.678  20.955  0.00  0.00    +0.000 A 
ATOM     19  C   UNL     1      -3.627  13.030  19.923  0.00  0.00    +0.000 A 
ATOM     20  C   UNL     1      -4.838  12.377  20.175  0.00  0.00    +0.000 A 
ATOM     21  C   UNL     1      -5.400  12.402  21.471  0.00  0.00    +0.000 A 
ATOM     22  C   UNL     1      -4.731  13.086  22.510  0.00  0.00    +0.000 A 
ATOM     23  C   UNL     1      -3.503  13.708  22.237  0.00  0.00    +0.000 A 
BRANCH  20  24
ATOM     24  O   UNL     1      -5.535  11.699  19.200  0.00  0.00    +0.000 OA
ATOM     25  C   UNL     1      -6.103  12.493  18.166  0.00  0.00    +0.000 C 
ENDBRANCH  20  24
BRANCH  21  26
ATOM     26  O   UNL     1      -6.626  11.784  21.588  0.00  0.00    +0.000 OA
ATOM     27  C   UNL     1      -7.773  12.625  21.629  0.00  0.00    +0.000 C 
ENDBRANCH  21  26
BRANCH  22  28
ATOM     28  O   UNL     1      -5.330  13.130  23.740  0.00  0.00    +0.000 OA
ATOM     29  C   UNL     1      -4.772  12.353  24.791  0.00  0.00    +0.000 C 
ENDBRANCH  22  28
ENDBRANCH   2  18
TORSDOF 7
ENDMDL
MODEL 8
REMARK VINA RESULT:      -5.1      2.487      5.950
REMARK  Name = 
REMARK  11 active torsions:
REMARK  status: ('A' for Active; 'I' for Inactive)
REMARK    1  A    between atoms: C_1  and  O_2
REMARK    2  A    between atoms: O_2  and  C_3
REMARK    3  A    between atoms: C_6  and  C_7
REMARK    4  A    between atoms: C_8  and  C_9
REMARK    5  A    between atoms: C_11  and  O_12
REMARK    6  A    between atoms: O_12  and  C_13
REMARK    7  A    between atoms: C_14  and  O_15
REMARK    8  A    between atoms: O_15  and  C_16
REMARK    9  A    between atoms: C_17  and  O_18
REMARK   10  A    between atoms: O_18  and  C_19
REMARK   11  A    between atoms: C_26  and  N_27
REMARK                            x       y       z     vdW  Elec       q    Type
REMARK                         _______ _______ _______ _____ _____    ______ ____
ROOT
ATOM      1  C   UNL     1      -1.938  15.110  20.635  0.00  0.00    +0.000 A 
ATOM      2  C   UNL     1      -0.910  14.482  20.032  0.00  0.00    +0.000 A 
ATOM      3  S   UNL     1       0.195  15.377  19.044  0.00  0.00    +0.000 S 
ATOM      4  S   UNL     1      -0.864  17.106  19.155  0.00  0.00    +0.000 S 
ATOM      5  C   UNL     1      -2.048  16.575  20.349  0.00  0.00    +0.000 A 
ATOM      6  S   UNL     1      -3.153  17.659  20.994  0.00  0.00    +0.000 S 
ENDROOT
BRANCH   1  10
ATOM      7  C   UNL     1      -4.692  12.977  23.111  0.00  0.00    +0.000 A 
ATOM      8  C   UNL     1      -4.806  12.922  21.718  0.00  0.00    +0.000 A 
ATOM      9  C   UNL     1      -3.907  13.619  20.912  0.00  0.00    +0.000 A 
ATOM     10  C   UNL     1      -2.901  14.399  21.491  0.00  0.00    +0.000 A 
ATOM     11  C   UNL     1      -2.812  14.490  22.888  0.00  0.00    +0.000 A 
ATOM     12  C   UNL     1      -3.677  13.752  23.705  0.00  0.00    +0.000 A 
BRANCH  12  13
ATOM     13  N   UNL     1      -3.650  13.956  25.098  0.00  0.00    +0.000 N 
ATOM     14  H   UNL     1      -3.374  13.146  25.640  0.00  0.00    +0.000 HD
ATOM     15  H   UNL     1      -4.516  14.386  25.420  0.00  0.00    +0.000 HD
ENDBRANCH  12  13
BRANCH   7  17
ATOM     16  C   UNL     1      -6.875  12.741  23.981  0.00  0.00    +0.000 C 
ATOM     17  O   UNL     1      -5.521  12.299  23.974  0.00  0.00    +0.000 OA
ENDBRANCH   7  17
ENDBRANCH   1  10
BRANCH   2  18
ATOM     18  C   UNL     1      -0.624  13.040  20.114  0.00  0.00    +0.000 A 
ATOM     19  C   UNL     1      -0.818  12.232  18.991  0.00  0.00    +0.000 A 
ATOM     20  C   UNL     1      -0.496  10.872  19.032  0.00  0.00    +0.000 A 
ATOM     21  C   UNL     1      -0.008  10.295  20.225  0.00  0.00    +0.000 A 
ATOM     22  C   UNL     1       0.155  11.099  21.375  0.00  0.00    +0.000 A 
ATOM     23  C   UNL     1      -0.147  12.468  21.298  0.00  0.00    +0.000 A 
BRANCH  20  24
ATOM     24  O   UNL     1      -0.639  10.040  17.944  0.00  0.00    +0.000 OA
ATOM     25  C   UNL     1      -1.906  10.063  17.297  0.00  0.00    +0.000 C 
ENDBRANCH  20  24
BRANCH  21  26
ATOM     26  O   UNL     1       0.213   8.936  20.170  0.00  0.00    +0.000 OA
ATOM     27  C   UNL     1       1.564   8.505  20.051  0.00  0.00    +0.000 C 
ENDBRANCH  21  26
BRANCH  22  28
ATOM     28  O   UNL     1       0.584  10.496  22.527  0.00  0.00    +0.000 OA
ATOM     29  C   UNL     1      -0.363   9.776  23.305  0.00  0.00    +0.000 C 
ENDBRANCH  22  28
ENDBRANCH   2  18
TORSDOF 7
ENDMDL
MODEL 9
REMARK VINA RESULT:      -5.1      3.613      6.686
REMARK  Name = 
REMARK  11 active torsions:
REMARK  status: ('A' for Active; 'I' for Inactive)
REMARK    1  A    between atoms: C_1  and  O_2
REMARK    2  A    between atoms: O_2  and  C_3
REMARK    3  A    between atoms: C_6  and  C_7
REMARK    4  A    between atoms: C_8  and  C_9
REMARK    5  A    between atoms: C_11  and  O_12
REMARK    6  A    between atoms: O_12  and  C_13
REMARK    7  A    between atoms: C_14  and  O_15
REMARK    8  A    between atoms: O_15  and  C_16
REMARK    9  A    between atoms: C_17  and  O_18
REMARK   10  A    between atoms: O_18  and  C_19
REMARK   11  A    between atoms: C_26  and  N_27
REMARK                            x       y       z     vdW  Elec       q    Type
REMARK                         _______ _______ _______ _____ _____    ______ ____
ROOT
ATOM      1  C   UNL     1      -4.328  12.631  20.055  0.00  0.00    +0.000 A 
ATOM      2  C   UNL     1      -3.251  12.204  19.370  0.00  0.00    +0.000 A 
ATOM      3  S   UNL     1      -3.455  11.298  17.908  0.00  0.00    +0.000 S 
ATOM      4  S   UNL     1      -5.472  11.155  18.095  0.00  0.00    +0.000 S 
ATOM      5  C   UNL     1      -5.651  12.231  19.481  0.00  0.00    +0.000 A 
ATOM      6  S   UNL     1      -7.175  12.658  20.037  0.00  0.00    +0.000 S 
ENDROOT
BRANCH   1  10
ATOM      7  C   UNL     1      -4.066  14.920  23.654  0.00  0.00    +0.000 A 
ATOM      8  C   UNL     1      -3.916  15.542  22.411  0.00  0.00    +0.000 A 
ATOM      9  C   UNL     1      -4.001  14.793  21.237  0.00  0.00    +0.000 A 
ATOM     10  C   UNL     1      -4.212  13.412  21.298  0.00  0.00    +0.000 A 
ATOM     11  C   UNL     1      -4.319  12.781  22.545  0.00  0.00    +0.000 A 
ATOM     12  C   UNL     1      -4.287  13.531  23.727  0.00  0.00    +0.000 A 
BRANCH  12  13
ATOM     13  N   UNL     1      -4.271  12.864  24.966  0.00  0.00    +0.000 N 
ATOM     14  H   UNL     1      -4.984  13.166  25.620  0.00  0.00    +0.000 HD
ATOM     15  H   UNL     1      -3.333  12.855  25.364  0.00  0.00    +0.000 HD
ENDBRANCH  12  13
BRANCH   7  17
ATOM     16  C   UNL     1      -4.658  16.865  24.858  0.00  0.00    +0.000 C 
ATOM     17  O   UNL     1      -4.021  15.591  24.854  0.00  0.00    +0.000 OA
ENDBRANCH   7  17
ENDBRANCH   1  10
BRANCH   2  18
ATOM     18  C   UNL     1      -1.848  12.422  19.761  0.00  0.00    +0.000 A 
ATOM     19  C   UNL     1      -1.285  11.644  20.775  0.00  0.00    +0.000 A 
ATOM     20  C   UNL     1       0.062  11.795  21.121  0.00  0.00    +0.000 A 
ATOM     21  C   UNL     1       0.854  12.768  20.471  0.00  0.00    +0.000 A 
ATOM     22  C   UNL     1       0.280  13.582  19.470  0.00  0.00    +0.000 A 
ATOM     23  C   UNL     1      -1.065  13.389  19.122  0.00  0.00    +0.000 A 
BRANCH  20  24
ATOM     24  O   UNL     1       0.672  11.033  22.091  0.00  0.00    +0.000 OA
ATOM     25  C   UNL     1      -0.155  10.091  22.763  0.00  0.00    +0.000 C 
ENDBRANCH  20  24
BRANCH  21  26
ATOM     26  O   UNL     1       2.147  12.874  20.936  0.00  0.00    +0.000 OA
ATOM     27  C   UNL     1       2.521  14.114  21.526  0.00  0.00    +0.000 C 
ENDBRANCH  21  26
BRANCH  22  28
ATOM     28  O   UNL     1       1.066  14.546  18.896  0.00  0.00    +0.000 OA
ATOM     29  C   UNL     1       0.569  15.877  18.839  0.00  0.00    +0.000 C 
ENDBRANCH  22  28
ENDBRANCH   2  18
TORSDOF 7
ENDMDL
