MODEL 1
REMARK VINA RESULT:      -7.9      0.000      0.000
REMARK  Name = 
REMARK  6 active torsions:
REMARK  status: ('A' for Active; 'I' for Inactive)
REMARK    1  A    between atoms: C_1  and  C_2
REMARK    2  A    between atoms: C_8  and  C_9
REMARK    3  A    between atoms: C_12  and  C_13
REMARK    4  A    between atoms: N_20  and  C_21
REMARK    5  A    between atoms: C_21  and  C_22
REMARK    6  A    between atoms: C_26  and  C_27
REMARK                            x       y       z     vdW  Elec       q    Type
REMARK                         _______ _______ _______ _____ _____    ______ ____
ROOT
ATOM      1  C   UNL     1       2.097  12.510  19.280  0.00  0.00    +0.000 C 
ATOM      2  C   UNL     1       1.022  11.630  18.625  0.00  0.00    +0.000 C 
ATOM      3  C   UNL     1       1.533  10.192  18.397  0.00  0.00    +0.000 C 
ATOM      4  N   UNL     1       1.403   9.402  19.602  0.00  0.00    +0.000 N 
ATOM      5  C   UNL     1       0.584   9.767  20.639  0.00  0.00    +0.000 A 
ATOM      6  N   UNL     1       0.621   8.831  21.564  0.00  0.00    +0.000 NA
ATOM      7  N   UNL     1       1.364   7.787  21.062  0.00  0.00    +0.000 NA
ATOM      8  C   UNL     1       1.785   8.116  19.852  0.00  0.00    +0.000 A 
ATOM      9  C   UNL     1      -0.300  10.908  20.619  0.00  0.00    +0.000 C 
ATOM     10  O   UNL     1      -1.125  11.164  21.491  0.00  0.00    +0.000 OA
ATOM     11  N   UNL     1      -0.215  11.646  19.432  0.00  0.00    +0.000 N 
ENDROOT
BRANCH   8  12
ATOM     12  C   UNL     1       2.495   7.176  18.947  0.00  0.00    +0.000 A 
ATOM     13  C   UNL     1       2.272   5.818  19.019  0.00  0.00    +0.000 A 
ATOM     14  S   UNL     1       3.228   5.004  17.863  0.00  0.00    +0.000 S 
ATOM     15  C   UNL     1       3.906   6.514  17.366  0.00  0.00    +0.000 A 
ATOM     16  N   UNL     1       3.396   7.579  17.976  0.00  0.00    +0.000 NA
BRANCH  15  17
ATOM     17  C   UNL     1       5.001   6.521  16.329  0.00  0.00    +0.000 C 
ATOM     18  F   UNL     1       4.678   7.211  15.200  0.00  0.00    +0.000 F 
ATOM     19  F   UNL     1       6.148   7.076  16.802  0.00  0.00    +0.000 F 
ATOM     20  F   UNL     1       5.316   5.260  15.926  0.00  0.00    +0.000 F 
ENDBRANCH  15  17
ENDBRANCH   8  12
BRANCH  11  21
ATOM     21  C   UNL     1      -1.327  12.511  19.060  0.00  0.00    +0.000 C 
BRANCH  21  22
ATOM     22  C   UNL     1      -2.486  11.736  18.449  0.00  0.00    +0.000 A 
ATOM     23  C   UNL     1      -2.201  10.782  17.451  0.00  0.00    +0.000 A 
ATOM     24  C   UNL     1      -3.203   9.976  16.913  0.00  0.00    +0.000 A 
ATOM     25  C   UNL     1      -4.507  10.090  17.381  0.00  0.00    +0.000 A 
ATOM     26  C   UNL     1      -4.834  11.038  18.366  0.00  0.00    +0.000 A 
ATOM     27  C   UNL     1      -3.825  11.888  18.862  0.00  0.00    +0.000 A 
ATOM     28 CL   UNL     1      -4.246  13.133  19.994  0.00  0.00    +0.000 Cl
BRANCH  26  29
ATOM     29  C   UNL     1      -6.239  11.084  18.910  0.00  0.00    +0.000 C 
ATOM     30  F   UNL     1      -6.899  12.238  18.599  0.00  0.00    +0.000 F 
ATOM     31  F   UNL     1      -7.023  10.083  18.420  0.00  0.00    +0.000 F 
ATOM     32  F   UNL     1      -6.296  10.990  20.267  0.00  0.00    +0.000 F 
ENDBRANCH  26  29
ENDBRANCH  21  22
ENDBRANCH  11  21
TORSDOF 5
ENDMDL
MODEL 2
REMARK VINA RESULT:      -7.9      2.287      2.750
REMARK  Name = 
REMARK  6 active torsions:
REMARK  status: ('A' for Active; 'I' for Inactive)
REMARK    1  A    between atoms: C_1  and  C_2
REMARK    2  A    between atoms: C_8  and  C_9
REMARK    3  A    between atoms: C_12  and  C_13
REMARK    4  A    between atoms: N_20  and  C_21
REMARK    5  A    between atoms: C_21  and  C_22
REMARK    6  A    between atoms: C_26  and  C_27
REMARK                            x       y       z     vdW  Elec       q    Type
REMARK                         _______ _______ _______ _____ _____    ______ ____
ROOT
ATOM      1  C   UNL     1       1.860  12.223  18.642  0.00  0.00    +0.000 C 
ATOM      2  C   UNL     1       0.582  11.371  18.663  0.00  0.00    +0.000 C 
ATOM      3  C   UNL     1       0.905   9.876  18.865  0.00  0.00    +0.000 C 
ATOM      4  N   UNL     1       1.092   9.575  20.268  0.00  0.00    +0.000 N 
ATOM      5  C   UNL     1       0.649  10.403  21.266  0.00  0.00    +0.000 A 
ATOM      6  N   UNL     1       0.901   9.844  22.431  0.00  0.00    +0.000 NA
ATOM      7  N   UNL     1       1.388   8.581  22.182  0.00  0.00    +0.000 NA
ATOM      8  C   UNL     1       1.445   8.404  20.873  0.00  0.00    +0.000 A 
ATOM      9  C   UNL     1      -0.122  11.603  21.049  0.00  0.00    +0.000 C 
ATOM     10  O   UNL     1      -0.628  12.277  21.943  0.00  0.00    +0.000 OA
ATOM     11  N   UNL     1      -0.351  11.870  19.693  0.00  0.00    +0.000 N 
ENDROOT
BRANCH   8  12
ATOM     12  C   UNL     1       1.786   7.106  20.235  0.00  0.00    +0.000 A 
ATOM     13  C   UNL     1       2.522   7.060  19.070  0.00  0.00    +0.000 A 
ATOM     14  S   UNL     1       2.748   5.441  18.582  0.00  0.00    +0.000 S 
ATOM     15  C   UNL     1       1.816   4.906  19.937  0.00  0.00    +0.000 A 
ATOM     16  N   UNL     1       1.418   5.876  20.754  0.00  0.00    +0.000 NA
BRANCH  15  17
ATOM     17  C   UNL     1       1.514   3.437  20.086  0.00  0.00    +0.000 C 
ATOM     18  F   UNL     1       2.613   2.640  19.976  0.00  0.00    +0.000 F 
ATOM     19  F   UNL     1       0.953   3.151  21.290  0.00  0.00    +0.000 F 
ATOM     20  F   UNL     1       0.638   3.008  19.137  0.00  0.00    +0.000 F 
ENDBRANCH  15  17
ENDBRANCH   8  12
BRANCH  11  21
ATOM     21  C   UNL     1      -1.463  12.735  19.324  0.00  0.00    +0.000 C 
BRANCH  21  22
ATOM     22  C   UNL     1      -2.590  11.973  18.641  0.00  0.00    +0.000 A 
ATOM     23  C   UNL     1      -2.263  11.112  17.573  0.00  0.00    +0.000 A 
ATOM     24  C   UNL     1      -3.232  10.318  16.961  0.00  0.00    +0.000 A 
ATOM     25  C   UNL     1      -4.543  10.349  17.423  0.00  0.00    +0.000 A 
ATOM     26  C   UNL     1      -4.910  11.204  18.478  0.00  0.00    +0.000 A 
ATOM     27  C   UNL     1      -3.936  12.045  19.051  0.00  0.00    +0.000 A 
ATOM     28 CL   UNL     1      -4.410  13.180  20.274  0.00  0.00    +0.000 Cl
BRANCH  26  29
ATOM     29  C   UNL     1      -6.321  11.158  19.008  0.00  0.00    +0.000 C 
ATOM     30  F   UNL     1      -6.382  10.992  20.362  0.00  0.00    +0.000 F 
ATOM     31  F   UNL     1      -7.012  12.305  18.760  0.00  0.00    +0.000 F 
ATOM     32  F   UNL     1      -7.060  10.141  18.486  0.00  0.00    +0.000 F 
ENDBRANCH  26  29
ENDBRANCH  21  22
ENDBRANCH  11  21
TORSDOF 5
ENDMDL
MODEL 3
REMARK VINA RESULT:      -7.6      1.044      1.357
REMARK  Name = 
REMARK  6 active torsions:
REMARK  status: ('A' for Active; 'I' for Inactive)
REMARK    1  A    between atoms: C_1  and  C_2
REMARK    2  A    between atoms: C_8  and  C_9
REMARK    3  A    between atoms: C_12  and  C_13
REMARK    4  A    between atoms: N_20  and  C_21
REMARK    5  A    between atoms: C_21  and  C_22
REMARK    6  A    between atoms: C_26  and  C_27
REMARK                            x       y       z     vdW  Elec       q    Type
REMARK                         _______ _______ _______ _____ _____    ______ ____
ROOT
ATOM      1  C   UNL     1       1.914  12.282  18.698  0.00  0.00    +0.000 C 
ATOM      2  C   UNL     1       0.672  11.382  18.607  0.00  0.00    +0.000 C 
ATOM      3  C   UNL     1       1.038   9.896  18.803  0.00  0.00    +0.000 C 
ATOM      4  N   UNL     1       1.133   9.572  20.211  0.00  0.00    +0.000 N 
ATOM      5  C   UNL     1       0.586  10.360  21.189  0.00  0.00    +0.000 A 
ATOM      6  N   UNL     1       0.773   9.785  22.358  0.00  0.00    +0.000 NA
ATOM      7  N   UNL     1       1.326   8.547  22.122  0.00  0.00    +0.000 NA
ATOM      8  C   UNL     1       1.487   8.402  20.818  0.00  0.00    +0.000 A 
ATOM      9  C   UNL     1      -0.214  11.535  20.938  0.00  0.00    +0.000 C 
ATOM     10  O   UNL     1      -0.810  12.168  21.804  0.00  0.00    +0.000 OA
ATOM     11  N   UNL     1      -0.353  11.823  19.575  0.00  0.00    +0.000 N 
ENDROOT
BRANCH   8  12
ATOM     12  C   UNL     1       1.925   7.133  20.182  0.00  0.00    +0.000 A 
ATOM     13  C   UNL     1       1.545   5.913  20.699  0.00  0.00    +0.000 A 
ATOM     14  S   UNL     1       2.202   4.647  19.761  0.00  0.00    +0.000 S 
ATOM     15  C   UNL     1       2.982   5.809  18.746  0.00  0.00    +0.000 A 
ATOM     16  N   UNL     1       2.711   7.076  19.043  0.00  0.00    +0.000 NA
BRANCH  15  17
ATOM     17  C   UNL     1       3.897   5.328  17.648  0.00  0.00    +0.000 C 
ATOM     18  F   UNL     1       4.238   6.300  16.758  0.00  0.00    +0.000 F 
ATOM     19  F   UNL     1       5.063   4.830  18.138  0.00  0.00    +0.000 F 
ATOM     20  F   UNL     1       3.323   4.331  16.920  0.00  0.00    +0.000 F 
ENDBRANCH  15  17
ENDBRANCH   8  12
BRANCH  11  21
ATOM     21  C   UNL     1      -1.468  12.653  19.140  0.00  0.00    +0.000 C 
BRANCH  21  22
ATOM     22  C   UNL     1      -2.590  11.837  18.514  0.00  0.00    +0.000 A 
ATOM     23  C   UNL     1      -2.257  10.891  17.524  0.00  0.00    +0.000 A 
ATOM     24  C   UNL     1      -3.222  10.049  16.973  0.00  0.00    +0.000 A 
ATOM     25  C   UNL     1      -4.536  10.118  17.422  0.00  0.00    +0.000 A 
ATOM     26  C   UNL     1      -4.911  11.057  18.399  0.00  0.00    +0.000 A 
ATOM     27  C   UNL     1      -3.940  11.943  18.908  0.00  0.00    +0.000 A 
ATOM     28 CL   UNL     1      -4.421  13.175  20.029  0.00  0.00    +0.000 Cl
BRANCH  26  29
ATOM     29  C   UNL     1      -6.324  11.055  18.922  0.00  0.00    +0.000 C 
ATOM     30  F   UNL     1      -6.395  11.028  20.285  0.00  0.00    +0.000 F 
ATOM     31  F   UNL     1      -7.021  12.167  18.553  0.00  0.00    +0.000 F 
ATOM     32  F   UNL     1      -7.054   9.985  18.501  0.00  0.00    +0.000 F 
ENDBRANCH  26  29
ENDBRANCH  21  22
ENDBRANCH  11  21
TORSDOF 5
ENDMDL
MODEL 4
REMARK VINA RESULT:      -7.6      4.304      9.248
REMARK  Name = 
REMARK  6 active torsions:
REMARK  status: ('A' for Active; 'I' for Inactive)
REMARK    1  A    between atoms: C_1  and  C_2
REMARK    2  A    between atoms: C_8  and  C_9
REMARK    3  A    between atoms: C_12  and  C_13
REMARK    4  A    between atoms: N_20  and  C_21
REMARK    5  A    between atoms: C_21  and  C_22
REMARK    6  A    between atoms: C_26  and  C_27
REMARK                            x       y       z     vdW  Elec       q    Type
REMARK                         _______ _______ _______ _____ _____    ______ ____
ROOT
ATOM      1  C   UNL     1      -0.113  13.970  18.332  0.00  0.00    +0.000 C 
ATOM      2  C   UNL     1      -0.240  12.804  19.325  0.00  0.00    +0.000 C 
ATOM      3  C   UNL     1      -1.506  12.941  20.195  0.00  0.00    +0.000 C 
ATOM      4  N   UNL     1      -2.668  12.433  19.497  0.00  0.00    +0.000 N 
ATOM      5  C   UNL     1      -2.573  11.602  18.412  0.00  0.00    +0.000 A 
ATOM      6  N   UNL     1      -3.784  11.255  18.030  0.00  0.00    +0.000 NA
ATOM      7  N   UNL     1      -4.667  11.757  18.959  0.00  0.00    +0.000 NA
ATOM      8  C   UNL     1      -3.979  12.419  19.875  0.00  0.00    +0.000 A 
ATOM      9  C   UNL     1      -1.334  11.067  17.900  0.00  0.00    +0.000 C 
ATOM     10  O   UNL     1      -1.256  10.223  17.011  0.00  0.00    +0.000 OA
ATOM     11  N   UNL     1      -0.211  11.513  18.606  0.00  0.00    +0.000 N 
ENDROOT
BRANCH   8  12
ATOM     12  C   UNL     1      -4.586  12.975  21.112  0.00  0.00    +0.000 A 
ATOM     13  C   UNL     1      -4.241  14.229  21.569  0.00  0.00    +0.000 A 
ATOM     14  S   UNL     1      -5.095  14.586  23.003  0.00  0.00    +0.000 S 
ATOM     15  C   UNL     1      -5.841  13.028  22.943  0.00  0.00    +0.000 A 
ATOM     16  N   UNL     1      -5.530  12.305  21.871  0.00  0.00    +0.000 NA
BRANCH  15  17
ATOM     17  C   UNL     1      -6.745  12.603  24.072  0.00  0.00    +0.000 C 
ATOM     18  F   UNL     1      -7.686  11.691  23.703  0.00  0.00    +0.000 F 
ATOM     19  F   UNL     1      -6.050  12.044  25.098  0.00  0.00    +0.000 F 
ATOM     20  F   UNL     1      -7.424  13.660  24.594  0.00  0.00    +0.000 F 
ENDBRANCH  15  17
ENDBRANCH   8  12
BRANCH  11  21
ATOM     21  C   UNL     1       1.020  10.737  18.534  0.00  0.00    +0.000 C 
BRANCH  21  22
ATOM     22  C   UNL     1       1.062   9.618  19.565  0.00  0.00    +0.000 A 
ATOM     23  C   UNL     1       0.318   9.774  20.752  0.00  0.00    +0.000 A 
ATOM     24  C   UNL     1       0.240   8.751  21.697  0.00  0.00    +0.000 A 
ATOM     25  C   UNL     1       0.884   7.542  21.460  0.00  0.00    +0.000 A 
ATOM     26  C   UNL     1       1.646   7.353  20.294  0.00  0.00    +0.000 A 
ATOM     27  C   UNL     1       1.766   8.412  19.373  0.00  0.00    +0.000 A 
ATOM     28 CL   UNL     1       2.796   8.221  17.990  0.00  0.00    +0.000 Cl
BRANCH  26  29
ATOM     29  C   UNL     1       2.267   6.005  20.028  0.00  0.00    +0.000 C 
ATOM     30  F   UNL     1       2.057   5.107  21.035  0.00  0.00    +0.000 F 
ATOM     31  F   UNL     1       1.766   5.409  18.910  0.00  0.00    +0.000 F 
ATOM     32  F   UNL     1       3.618   6.056  19.866  0.00  0.00    +0.000 F 
ENDBRANCH  26  29
ENDBRANCH  21  22
ENDBRANCH  11  21
TORSDOF 5
ENDMDL
MODEL 5
REMARK VINA RESULT:      -7.5      1.528      2.002
REMARK  Name = 
REMARK  6 active torsions:
REMARK  status: ('A' for Active; 'I' for Inactive)
REMARK    1  A    between atoms: C_1  and  C_2
REMARK    2  A    between atoms: C_8  and  C_9
REMARK    3  A    between atoms: C_12  and  C_13
REMARK    4  A    between atoms: N_20  and  C_21
REMARK    5  A    between atoms: C_21  and  C_22
REMARK    6  A    between atoms: C_26  and  C_27
REMARK                            x       y       z     vdW  Elec       q    Type
REMARK                         _______ _______ _______ _____ _____    ______ ____
ROOT
ATOM      1  C   UNL     1       1.950  12.529  19.102  0.00  0.00    +0.000 C 
ATOM      2  C   UNL     1       0.805  11.607  18.656  0.00  0.00    +0.000 C 
ATOM      3  C   UNL     1       1.283  10.147  18.512  0.00  0.00    +0.000 C 
ATOM      4  N   UNL     1       1.284   9.477  19.795  0.00  0.00    +0.000 N 
ATOM      5  C   UNL     1       0.586   9.950  20.875  0.00  0.00    +0.000 A 
ATOM      6  N   UNL     1       0.722   9.105  21.876  0.00  0.00    +0.000 NA
ATOM      7  N   UNL     1       1.400   8.007  21.397  0.00  0.00    +0.000 NA
ATOM      8  C   UNL     1       1.686   8.214  20.123  0.00  0.00    +0.000 A 
ATOM      9  C   UNL     1      -0.290  11.096  20.843  0.00  0.00    +0.000 C 
ATOM     10  O   UNL     1      -1.012  11.445  21.772  0.00  0.00    +0.000 OA
ATOM     11  N   UNL     1      -0.334  11.717  19.589  0.00  0.00    +0.000 N 
ENDROOT
BRANCH   8  12
ATOM     12  C   UNL     1       2.287   7.183  19.239  0.00  0.00    +0.000 A 
ATOM     13  C   UNL     1       3.261   7.515  18.321  0.00  0.00    +0.000 A 
ATOM     14  S   UNL     1       3.751   6.128  17.457  0.00  0.00    +0.000 S 
ATOM     15  C   UNL     1       2.605   5.178  18.337  0.00  0.00    +0.000 A 
ATOM     16  N   UNL     1       1.942   5.843  19.279  0.00  0.00    +0.000 NA
BRANCH  15  17
ATOM     17  C   UNL     1       2.428   3.724  17.981  0.00  0.00    +0.000 C 
ATOM     18  F   UNL     1       1.133   3.308  18.019  0.00  0.00    +0.000 F 
ATOM     19  F   UNL     1       2.884   3.447  16.730  0.00  0.00    +0.000 F 
ATOM     20  F   UNL     1       3.113   2.914  18.832  0.00  0.00    +0.000 F 
ENDBRANCH  15  17
ENDBRANCH   8  12
BRANCH  11  21
ATOM     21  C   UNL     1      -1.477  12.559  19.261  0.00  0.00    +0.000 C 
BRANCH  21  22
ATOM     22  C   UNL     1      -2.603  11.778  18.599  0.00  0.00    +0.000 A 
ATOM     23  C   UNL     1      -2.270  10.843  17.596  0.00  0.00    +0.000 A 
ATOM     24  C   UNL     1      -3.241  10.032  17.012  0.00  0.00    +0.000 A 
ATOM     25  C   UNL     1      -4.562  10.119  17.439  0.00  0.00    +0.000 A 
ATOM     26  C   UNL     1      -4.936  11.046  18.427  0.00  0.00    +0.000 A 
ATOM     27  C   UNL     1      -3.957  11.903  18.970  0.00  0.00    +0.000 A 
ATOM     28 CL   UNL     1      -4.435  13.122  20.106  0.00  0.00    +0.000 Cl
BRANCH  26  29
ATOM     29  C   UNL     1      -6.359  11.062  18.924  0.00  0.00    +0.000 C 
ATOM     30  F   UNL     1      -6.455  10.999  20.285  0.00  0.00    +0.000 F 
ATOM     31  F   UNL     1      -7.023  12.199  18.574  0.00  0.00    +0.000 F 
ATOM     32  F   UNL     1      -7.104  10.021  18.461  0.00  0.00    +0.000 F 
ENDBRANCH  26  29
ENDBRANCH  21  22
ENDBRANCH  11  21
TORSDOF 5
ENDMDL
MODEL 6
REMARK VINA RESULT:      -7.4      1.191      1.500
REMARK  Name = 
REMARK  6 active torsions:
REMARK  status: ('A' for Active; 'I' for Inactive)
REMARK    1  A    between atoms: C_1  and  C_2
REMARK    2  A    between atoms: C_8  and  C_9
REMARK    3  A    between atoms: C_12  and  C_13
REMARK    4  A    between atoms: N_20  and  C_21
REMARK    5  A    between atoms: C_21  and  C_22
REMARK    6  A    between atoms: C_26  and  C_27
REMARK                            x       y       z     vdW  Elec       q    Type
REMARK                         _______ _______ _______ _____ _____    ______ ____
ROOT
ATOM      1  C   UNL     1       1.910  12.156  18.595  0.00  0.00    +0.000 C 
ATOM      2  C   UNL     1       0.654  11.272  18.571  0.00  0.00    +0.000 C 
ATOM      3  C   UNL     1       1.002   9.792  18.838  0.00  0.00    +0.000 C 
ATOM      4  N   UNL     1       1.117   9.539  20.258  0.00  0.00    +0.000 N 
ATOM      5  C   UNL     1       0.599  10.385  21.204  0.00  0.00    +0.000 A 
ATOM      6  N   UNL     1       0.800   9.867  22.397  0.00  0.00    +0.000 NA
ATOM      7  N   UNL     1       1.330   8.610  22.216  0.00  0.00    +0.000 NA
ATOM      8  C   UNL     1       1.465   8.396  20.918  0.00  0.00    +0.000 A 
ATOM      9  C   UNL     1      -0.188  11.557  20.907  0.00  0.00    +0.000 C 
ATOM     10  O   UNL     1      -0.758  12.243  21.750  0.00  0.00    +0.000 OA
ATOM     11  N   UNL     1      -0.347  11.777  19.533  0.00  0.00    +0.000 N 
ENDROOT
BRANCH   8  12
ATOM     12  C   UNL     1       1.872   7.089  20.340  0.00  0.00    +0.000 A 
ATOM     13  C   UNL     1       1.266   5.917  20.741  0.00  0.00    +0.000 A 
ATOM     14  S   UNL     1       1.945   4.591  19.908  0.00  0.00    +0.000 S 
ATOM     15  C   UNL     1       3.030   5.662  19.094  0.00  0.00    +0.000 A 
ATOM     16  N   UNL     1       2.850   6.950  19.370  0.00  0.00    +0.000 NA
BRANCH  15  17
ATOM     17  C   UNL     1       4.079   5.087  18.176  0.00  0.00    +0.000 C 
ATOM     18  F   UNL     1       4.159   3.728  18.224  0.00  0.00    +0.000 F 
ATOM     19  F   UNL     1       3.852   5.412  16.876  0.00  0.00    +0.000 F 
ATOM     20  F   UNL     1       5.321   5.551  18.482  0.00  0.00    +0.000 F 
ENDBRANCH  15  17
ENDBRANCH   8  12
BRANCH  11  21
ATOM     21  C   UNL     1      -1.457  12.602  19.076  0.00  0.00    +0.000 C 
BRANCH  21  22
ATOM     22  C   UNL     1      -2.590  11.775  18.485  0.00  0.00    +0.000 A 
ATOM     23  C   UNL     1      -2.273  10.810  17.507  0.00  0.00    +0.000 A 
ATOM     24  C   UNL     1      -3.248   9.958  16.988  0.00  0.00    +0.000 A 
ATOM     25  C   UNL     1      -4.554  10.036  17.458  0.00  0.00    +0.000 A 
ATOM     26  C   UNL     1      -4.912  10.993  18.424  0.00  0.00    +0.000 A 
ATOM     27  C   UNL     1      -3.932  11.888  18.899  0.00  0.00    +0.000 A 
ATOM     28 CL   UNL     1      -4.394  13.141  20.006  0.00  0.00    +0.000 Cl
BRANCH  26  29
ATOM     29  C   UNL     1      -6.316  11.001  18.971  0.00  0.00    +0.000 C 
ATOM     30  F   UNL     1      -6.989  12.160  18.710  0.00  0.00    +0.000 F 
ATOM     31  F   UNL     1      -7.091  10.013  18.441  0.00  0.00    +0.000 F 
ATOM     32  F   UNL     1      -6.370  10.849  20.323  0.00  0.00    +0.000 F 
ENDBRANCH  26  29
ENDBRANCH  21  22
ENDBRANCH  11  21
TORSDOF 5
ENDMDL
MODEL 7
REMARK VINA RESULT:      -7.4      7.333      9.068
REMARK  Name = 
REMARK  6 active torsions:
REMARK  status: ('A' for Active; 'I' for Inactive)
REMARK    1  A    between atoms: C_1  and  C_2
REMARK    2  A    between atoms: C_8  and  C_9
REMARK    3  A    between atoms: C_12  and  C_13
REMARK    4  A    between atoms: N_20  and  C_21
REMARK    5  A    between atoms: C_21  and  C_22
REMARK    6  A    between atoms: C_26  and  C_27
REMARK                            x       y       z     vdW  Elec       q    Type
REMARK                         _______ _______ _______ _____ _____    ______ ____
ROOT
ATOM      1  C   UNL     1       3.934   7.191  16.803  0.00  0.00    +0.000 C 
ATOM      2  C   UNL     1       4.297   5.724  17.085  0.00  0.00    +0.000 C 
ATOM      3  C   UNL     1       4.570   4.951  15.778  0.00  0.00    +0.000 C 
ATOM      4  N   UNL     1       5.928   5.169  15.326  0.00  0.00    +0.000 N 
ATOM      5  C   UNL     1       6.912   5.652  16.148  0.00  0.00    +0.000 A 
ATOM      6  N   UNL     1       8.048   5.684  15.484  0.00  0.00    +0.000 NA
ATOM      7  N   UNL     1       7.827   5.088  14.263  0.00  0.00    +0.000 NA
ATOM      8  C   UNL     1       6.556   4.727  14.198  0.00  0.00    +0.000 A 
ATOM      9  C   UNL     1       6.743   5.909  17.558  0.00  0.00    +0.000 C 
ATOM     10  O   UNL     1       7.654   6.220  18.322  0.00  0.00    +0.000 OA
ATOM     11  N   UNL     1       5.445   5.650  18.012  0.00  0.00    +0.000 N 
ENDROOT
BRANCH   8  12
ATOM     12  C   UNL     1       5.989   3.924  13.084  0.00  0.00    +0.000 A 
ATOM     13  C   UNL     1       6.685   2.860  12.550  0.00  0.00    +0.000 A 
ATOM     14  S   UNL     1       5.783   2.141  11.292  0.00  0.00    +0.000 S 
ATOM     15  C   UNL     1       4.538   3.319  11.515  0.00  0.00    +0.000 A 
ATOM     16  N   UNL     1       4.746   4.162  12.523  0.00  0.00    +0.000 NA
BRANCH  15  17
ATOM     17  C   UNL     1       3.357   3.325  10.579  0.00  0.00    +0.000 C 
ATOM     18  F   UNL     1       2.973   4.573  10.192  0.00  0.00    +0.000 F 
ATOM     19  F   UNL     1       3.607   2.630   9.438  0.00  0.00    +0.000 F 
ATOM     20  F   UNL     1       2.263   2.752  11.151  0.00  0.00    +0.000 F 
ENDBRANCH  15  17
ENDBRANCH   8  12
BRANCH  11  21
ATOM     21  C   UNL     1       5.230   5.408  19.432  0.00  0.00    +0.000 C 
BRANCH  21  22
ATOM     22  C   UNL     1       3.805   4.973  19.739  0.00  0.00    +0.000 A 
ATOM     23  C   UNL     1       2.951   5.887  20.390  0.00  0.00    +0.000 A 
ATOM     24  C   UNL     1       1.610   5.587  20.621  0.00  0.00    +0.000 A 
ATOM     25  C   UNL     1       1.087   4.376  20.181  0.00  0.00    +0.000 A 
ATOM     26  C   UNL     1       1.909   3.433  19.539  0.00  0.00    +0.000 A 
ATOM     27  C   UNL     1       3.276   3.721  19.362  0.00  0.00    +0.000 A 
ATOM     28 CL   UNL     1       4.315   2.516  18.672  0.00  0.00    +0.000 Cl
BRANCH  26  29
ATOM     29  C   UNL     1       1.297   2.164  19.003  0.00  0.00    +0.000 C 
ATOM     30  F   UNL     1      -0.068   2.200  18.959  0.00  0.00    +0.000 F 
ATOM     31  F   UNL     1       1.686   1.893  17.726  0.00  0.00    +0.000 F 
ATOM     32  F   UNL     1       1.605   1.063  19.742  0.00  0.00    +0.000 F 
ENDBRANCH  26  29
ENDBRANCH  21  22
ENDBRANCH  11  21
TORSDOF 5
ENDMDL
MODEL 8
REMARK VINA RESULT:      -7.4      1.202      1.662
REMARK  Name = 
REMARK  6 active torsions:
REMARK  status: ('A' for Active; 'I' for Inactive)
REMARK    1  A    between atoms: C_1  and  C_2
REMARK    2  A    between atoms: C_8  and  C_9
REMARK    3  A    between atoms: C_12  and  C_13
REMARK    4  A    between atoms: N_20  and  C_21
REMARK    5  A    between atoms: C_21  and  C_22
REMARK    6  A    between atoms: C_26  and  C_27
REMARK                            x       y       z     vdW  Elec       q    Type
REMARK                         _______ _______ _______ _____ _____    ______ ____
ROOT
ATOM      1  C   UNL     1       1.450  12.892  19.454  0.00  0.00    +0.000 C 
ATOM      2  C   UNL     1       0.279  11.928  19.208  0.00  0.00    +0.000 C 
ATOM      3  C   UNL     1       0.739  10.457  19.270  0.00  0.00    +0.000 C 
ATOM      4  N   UNL     1       0.796   9.992  20.639  0.00  0.00    +0.000 N 
ATOM      5  C   UNL     1       0.154  10.635  21.664  0.00  0.00    +0.000 A 
ATOM      6  N   UNL     1       0.330   9.952  22.776  0.00  0.00    +0.000 NA
ATOM      7  N   UNL     1       0.978   8.785  22.442  0.00  0.00    +0.000 NA
ATOM      8  C   UNL     1       1.204   8.789  21.139  0.00  0.00    +0.000 A 
ATOM      9  C   UNL     1      -0.715  11.775  21.496  0.00  0.00    +0.000 C 
ATOM     10  O   UNL     1      -1.390  12.273  22.392  0.00  0.00    +0.000 OA
ATOM     11  N   UNL     1      -0.815  12.196  20.165  0.00  0.00    +0.000 N 
ENDROOT
BRANCH   8  12
ATOM     12  C   UNL     1       1.756   7.625  20.399  0.00  0.00    +0.000 A 
ATOM     13  C   UNL     1       1.511   6.336  20.820  0.00  0.00    +0.000 A 
ATOM     14  S   UNL     1       2.274   5.222  19.776  0.00  0.00    +0.000 S 
ATOM     15  C   UNL     1       2.914   6.534  18.850  0.00  0.00    +0.000 A 
ATOM     16  N   UNL     1       2.522   7.740  19.251  0.00  0.00    +0.000 NA
BRANCH  15  17
ATOM     17  C   UNL     1       3.852   6.237  17.707  0.00  0.00    +0.000 C 
ATOM     18  F   UNL     1       5.143   6.046  18.097  0.00  0.00    +0.000 F 
ATOM     19  F   UNL     1       3.488   5.119  17.026  0.00  0.00    +0.000 F 
ATOM     20  F   UNL     1       3.875   7.253  16.803  0.00  0.00    +0.000 F 
ENDBRANCH  15  17
ENDBRANCH   8  12
BRANCH  11  21
ATOM     21  C   UNL     1      -1.966  12.994  19.763  0.00  0.00    +0.000 C 
BRANCH  21  22
ATOM     22  C   UNL     1      -2.985  12.186  18.972  0.00  0.00    +0.000 A 
ATOM     23  C   UNL     1      -2.536  11.457  17.851  0.00  0.00    +0.000 A 
ATOM     24  C   UNL     1      -3.397  10.627  17.136  0.00  0.00    +0.000 A 
ATOM     25  C   UNL     1      -4.719  10.488  17.543  0.00  0.00    +0.000 A 
ATOM     26  C   UNL     1      -5.208  11.208  18.647  0.00  0.00    +0.000 A 
ATOM     27  C   UNL     1      -4.345  12.089  19.329  0.00  0.00    +0.000 A 
ATOM     28 CL   UNL     1      -4.972  13.061  20.620  0.00  0.00    +0.000 Cl
BRANCH  26  29
ATOM     29  C   UNL     1      -6.623  10.977  19.112  0.00  0.00    +0.000 C 
ATOM     30  F   UNL     1      -7.204   9.879  18.546  0.00  0.00    +0.000 F 
ATOM     31  F   UNL     1      -6.705  10.768  20.456  0.00  0.00    +0.000 F 
ATOM     32  F   UNL     1      -7.459  12.013  18.831  0.00  0.00    +0.000 F 
ENDBRANCH  26  29
ENDBRANCH  21  22
ENDBRANCH  11  21
TORSDOF 5
ENDMDL
MODEL 9
REMARK VINA RESULT:      -7.3      1.676      1.983
REMARK  Name = 
REMARK  6 active torsions:
REMARK  status: ('A' for Active; 'I' for Inactive)
REMARK    1  A    between atoms: C_1  and  C_2
REMARK    2  A    between atoms: C_8  and  C_9
REMARK    3  A    between atoms: C_12  and  C_13
REMARK    4  A    between atoms: N_20  and  C_21
REMARK    5  A    between atoms: C_21  and  C_22
REMARK    6  A    between atoms: C_26  and  C_27
REMARK                            x       y       z     vdW  Elec       q    Type
REMARK                         _______ _______ _______ _____ _____    ______ ____
ROOT
ATOM      1  C   UNL     1       1.864  12.682  19.722  0.00  0.00    +0.000 C 
ATOM      2  C   UNL     1       0.827  11.783  19.030  0.00  0.00    +0.000 C 
ATOM      3  C   UNL     1       1.328  10.328  18.921  0.00  0.00    +0.000 C 
ATOM      4  N   UNL     1       1.087   9.607  20.152  0.00  0.00    +0.000 N 
ATOM      5  C   UNL     1       0.195  10.040  21.099  0.00  0.00    +0.000 A 
ATOM      6  N   UNL     1       0.141   9.156  22.072  0.00  0.00    +0.000 NA
ATOM      7  N   UNL     1       0.901   8.075  21.687  0.00  0.00    +0.000 NA
ATOM      8  C   UNL     1       1.423   8.331  20.500  0.00  0.00    +0.000 A 
ATOM      9  C   UNL     1      -0.662  11.191  20.947  0.00  0.00    +0.000 C 
ATOM     10  O   UNL     1      -1.549  11.506  21.735  0.00  0.00    +0.000 OA
ATOM     11  N   UNL     1      -0.469  11.861  19.733  0.00  0.00    +0.000 N 
ENDROOT
BRANCH   8  12
ATOM     12  C   UNL     1       2.185   7.333  19.706  0.00  0.00    +0.000 A 
ATOM     13  C   UNL     1       2.630   7.628  18.435  0.00  0.00    +0.000 A 
ATOM     14  S   UNL     1       3.464   6.291  17.780  0.00  0.00    +0.000 S 
ATOM     15  C   UNL     1       3.146   5.390  19.221  0.00  0.00    +0.000 A 
ATOM     16  N   UNL     1       2.514   6.072  20.173  0.00  0.00    +0.000 NA
BRANCH  15  17
ATOM     17  C   UNL     1       3.571   3.946  19.293  0.00  0.00    +0.000 C 
ATOM     18  F   UNL     1       2.974   3.252  20.301  0.00  0.00    +0.000 F 
ATOM     19  F   UNL     1       3.290   3.274  18.146  0.00  0.00    +0.000 F 
ATOM     20  F   UNL     1       4.912   3.829  19.494  0.00  0.00    +0.000 F 
ENDBRANCH  15  17
ENDBRANCH   8  12
BRANCH  11  21
ATOM     21  C   UNL     1      -1.532  12.721  19.227  0.00  0.00    +0.000 C 
BRANCH  21  22
ATOM     22  C   UNL     1      -2.653  11.932  18.567  0.00  0.00    +0.000 A 
ATOM     23  C   UNL     1      -2.321  11.041  17.526  0.00  0.00    +0.000 A 
ATOM     24  C   UNL     1      -3.285  10.223  16.938  0.00  0.00    +0.000 A 
ATOM     25  C   UNL     1      -4.596  10.260  17.400  0.00  0.00    +0.000 A 
ATOM     26  C   UNL     1      -4.969  11.143  18.428  0.00  0.00    +0.000 A 
ATOM     27  C   UNL     1      -4.000  12.007  18.976  0.00  0.00    +0.000 A 
ATOM     28 CL   UNL     1      -4.480  13.175  20.164  0.00  0.00    +0.000 Cl
BRANCH  26  29
ATOM     29  C   UNL     1      -6.379  11.103  18.961  0.00  0.00    +0.000 C 
ATOM     30  F   UNL     1      -7.111  12.207  18.628  0.00  0.00    +0.000 F 
ATOM     31  F   UNL     1      -7.091  10.046  18.479  0.00  0.00    +0.000 F 
ATOM     32  F   UNL     1      -6.440  11.024  20.318  0.00  0.00    +0.000 F 
ENDBRANCH  26  29
ENDBRANCH  21  22
ENDBRANCH  11  21
TORSDOF 5
ENDMDL
