MODEL 1
REMARK VINA RESULT:      -7.7      0.000      0.000
REMARK  Name = 
REMARK  2 active torsions:
REMARK  status: ('A' for Active; 'I' for Inactive)
REMARK    1  A    between atoms: C_1  and  O_2
REMARK    2  A    between atoms: O_2  and  C_3
REMARK                            x       y       z     vdW  Elec       q    Type
REMARK                         _______ _______ _______ _____ _____    ______ ____
ROOT
ATOM      1  C   UNL     1      -0.952  14.267  20.232  0.00  0.00    +0.000 C 
ATOM      2  C   UNL     1      -1.469  13.040  20.150  0.00  0.00    +0.000 C 
ATOM      3  C   UNL     1      -1.976  12.573  21.547  0.00  0.00    +0.000 C 
ATOM      4  C   UNL     1      -1.022  11.501  21.537  0.00  0.00    +0.000 C 
ATOM      5  C   UNL     1      -0.540  10.520  22.483  0.00  0.00    +0.000 C 
ATOM      6  C   UNL     1       0.375   9.888  21.447  0.00  0.00    +0.000 C 
ATOM      7  C   UNL     1       0.510   8.500  21.816  0.00  0.00    +0.000 C 
ATOM      8  C   UNL     1       1.169   7.923  20.637  0.00  0.00    +0.000 C 
ATOM      9  C   UNL     1       1.444   6.559  21.093  0.00  0.00    +0.000 C 
ATOM     10  C   UNL     1       2.207   5.898  20.055  0.00  0.00    +0.000 C 
ATOM     11  C   UNL     1       2.547   4.475  20.524  0.00  0.00    +0.000 C 
ATOM     12  C   UNL     1       3.488   4.244  19.431  0.00  0.00    +0.000 C 
ATOM     13  C   UNL     1       3.914   3.132  18.614  0.00  0.00    +0.000 C 
ATOM     14  C   UNL     1       4.207   4.026  17.273  0.00  0.00    +0.000 C 
ATOM     15  C   UNL     1       4.414   5.854  17.422  0.00  0.00    +0.000 C 
ATOM     16  C   UNL     1       3.385   7.396  17.035  0.00  0.00    +0.000 C 
ATOM     17  C   UNL     1       2.577   8.790  18.069  0.00  0.00    +0.000 C 
ATOM     18  N   UNL     1       1.638  10.368  17.794  0.00  0.00    +0.000 N 
ATOM     19  C   UNL     1       0.826  11.588  18.764  0.00  0.00    +0.000 C 
ATOM     20  C   UNL     1       1.162  12.922  18.960  0.00  0.00    +0.000 C 
ATOM     21  C   UNL     1       0.379  14.282  19.552  0.00  0.00    +0.000 C 
ATOM     22  O   UNL     1       0.970  15.360  19.477  0.00  0.00    +0.000 OA
ATOM     23  C   UNL     1      -0.835  11.964  18.910  0.00  0.00    +0.000 C 
ATOM     24  O   UNL     1      -1.593  11.682  17.981  0.00  0.00    +0.000 OA
ATOM     25  H   UNL     1       2.334  10.941  17.307  0.00  0.00    +0.000 HD
ENDROOT
BRANCH   1  27
ATOM     26  C   UNL     1      -2.163  16.532  21.130  0.00  0.00    +0.000 C 
ATOM     27  O   UNL     1      -1.367  15.272  21.227  0.00  0.00    +0.000 OA
ENDBRANCH   1  27
TORSDOF 1
ENDMDL
MODEL 2
REMARK VINA RESULT:      -7.5      1.055      1.169
REMARK  Name = 
REMARK  2 active torsions:
REMARK  status: ('A' for Active; 'I' for Inactive)
REMARK    1  A    between atoms: C_1  and  O_2
REMARK    2  A    between atoms: O_2  and  C_3
REMARK                            x       y       z     vdW  Elec       q    Type
REMARK                         _______ _______ _______ _____ _____    ______ ____
ROOT
ATOM      1  C   UNL     1      -2.127  14.597  20.864  0.00  0.00    +0.000 C 
ATOM      2  C   UNL     1      -2.525  13.325  20.809  0.00  0.00    +0.000 C 
ATOM      3  C   UNL     1      -2.881  12.808  22.234  0.00  0.00    +0.000 C 
ATOM      4  C   UNL     1      -1.829  11.837  22.147  0.00  0.00    +0.000 C 
ATOM      5  C   UNL     1      -1.186  10.907  23.049  0.00  0.00    +0.000 C 
ATOM      6  C   UNL     1      -0.289  10.371  21.944  0.00  0.00    +0.000 C 
ATOM      7  C   UNL     1       0.009   9.002  22.291  0.00  0.00    +0.000 C 
ATOM      8  C   UNL     1       0.635   8.495  21.063  0.00  0.00    +0.000 C 
ATOM      9  C   UNL     1       1.076   7.165  21.488  0.00  0.00    +0.000 C 
ATOM     10  C   UNL     1       1.824   6.583  20.392  0.00  0.00    +0.000 C 
ATOM     11  C   UNL     1       2.336   5.201  20.825  0.00  0.00    +0.000 C 
ATOM     12  C   UNL     1       3.214   5.066  19.664  0.00  0.00    +0.000 C 
ATOM     13  C   UNL     1       3.688   4.003  18.810  0.00  0.00    +0.000 C 
ATOM     14  C   UNL     1       3.794   4.923  17.459  0.00  0.00    +0.000 C 
ATOM     15  C   UNL     1       3.830   6.763  17.609  0.00  0.00    +0.000 C 
ATOM     16  C   UNL     1       2.627   8.195  17.309  0.00  0.00    +0.000 C 
ATOM     17  C   UNL     1       1.762   9.500  18.409  0.00  0.00    +0.000 C 
ATOM     18  N   UNL     1       0.654  10.978  18.215  0.00  0.00    +0.000 N 
ATOM     19  C   UNL     1      -0.203  12.110  19.251  0.00  0.00    +0.000 C 
ATOM     20  C   UNL     1       0.013  13.471  19.433  0.00  0.00    +0.000 C 
ATOM     21  C   UNL     1      -0.857  14.745  20.091  0.00  0.00    +0.000 C 
ATOM     22  O   UNL     1      -0.383  15.877  19.983  0.00  0.00    +0.000 OA
ATOM     23  C   UNL     1      -1.879  12.319  19.518  0.00  0.00    +0.000 C 
ATOM     24  O   UNL     1      -2.669  11.964  18.643  0.00  0.00    +0.000 OA
ATOM     25  H   UNL     1       1.253  11.617  17.684  0.00  0.00    +0.000 HD
ENDROOT
BRANCH   1  27
ATOM     26  C   UNL     1      -3.729  16.490  21.986  0.00  0.00    +0.000 C 
ATOM     27  O   UNL     1      -2.567  15.554  21.895  0.00  0.00    +0.000 OA
ENDBRANCH   1  27
TORSDOF 1
ENDMDL
MODEL 3
REMARK VINA RESULT:      -7.0      1.264      1.509
REMARK  Name = 
REMARK  2 active torsions:
REMARK  status: ('A' for Active; 'I' for Inactive)
REMARK    1  A    between atoms: C_1  and  O_2
REMARK    2  A    between atoms: O_2  and  C_3
REMARK                            x       y       z     vdW  Elec       q    Type
REMARK                         _______ _______ _______ _____ _____    ______ ____
ROOT
ATOM      1  C   UNL     1      -0.047  13.276  19.493  0.00  0.00    +0.000 C 
ATOM      2  C   UNL     1      -0.672  12.097  19.515  0.00  0.00    +0.000 C 
ATOM      3  C   UNL     1      -1.243  11.814  20.936  0.00  0.00    +0.000 C 
ATOM      4  C   UNL     1      -0.390  10.667  21.053  0.00  0.00    +0.000 C 
ATOM      5  C   UNL     1      -0.015   9.744  22.101  0.00  0.00    +0.000 C 
ATOM      6  C   UNL     1       0.857   8.936  21.154  0.00  0.00    +0.000 C 
ATOM      7  C   UNL     1       0.859   7.583  21.657  0.00  0.00    +0.000 C 
ATOM      8  C   UNL     1       1.483   6.839  20.556  0.00  0.00    +0.000 C 
ATOM      9  C   UNL     1       1.626   5.507  21.148  0.00  0.00    +0.000 C 
ATOM     10  C   UNL     1       2.344   4.682  20.197  0.00  0.00    +0.000 C 
ATOM     11  C   UNL     1       2.545   3.288  20.809  0.00  0.00    +0.000 C 
ATOM     12  C   UNL     1       3.480   2.869  19.767  0.00  0.00    +0.000 C 
ATOM     13  C   UNL     1       3.818   1.650  19.071  0.00  0.00    +0.000 C 
ATOM     14  C   UNL     1       4.214   2.379  17.659  0.00  0.00    +0.000 C 
ATOM     15  C   UNL     1       4.583   4.188  17.639  0.00  0.00    +0.000 C 
ATOM     16  C   UNL     1       3.704   5.770  17.080  0.00  0.00    +0.000 C 
ATOM     17  C   UNL     1       3.009   7.323  17.955  0.00  0.00    +0.000 C 
ATOM     18  N   UNL     1       2.221   8.944  17.506  0.00  0.00    +0.000 N 
ATOM     19  C   UNL     1       1.506  10.320  18.334  0.00  0.00    +0.000 C 
ATOM     20  C   UNL     1       1.959  11.632  18.410  0.00  0.00    +0.000 C 
ATOM     21  C   UNL     1       1.291  13.106  18.849  0.00  0.00    +0.000 C 
ATOM     22  O   UNL     1       1.978  14.116  18.687  0.00  0.00    +0.000 OA
ATOM     23  C   UNL     1      -0.117  10.854  18.400  0.00  0.00    +0.000 C 
ATOM     24  O   UNL     1      -0.880  10.551  17.483  0.00  0.00    +0.000 OA
ATOM     25  H   UNL     1       2.974   9.403  16.985  0.00  0.00    +0.000 HD
ENDROOT
BRANCH   1  27
ATOM     26  C   UNL     1       0.331  15.064  21.509  0.00  0.00    +0.000 C 
ATOM     27  O   UNL     1      -0.387  14.405  20.377  0.00  0.00    +0.000 OA
ENDBRANCH   1  27
TORSDOF 1
ENDMDL
MODEL 4
REMARK VINA RESULT:      -6.3      1.638      2.618
REMARK  Name = 
REMARK  2 active torsions:
REMARK  status: ('A' for Active; 'I' for Inactive)
REMARK    1  A    between atoms: C_1  and  O_2
REMARK    2  A    between atoms: O_2  and  C_3
REMARK                            x       y       z     vdW  Elec       q    Type
REMARK                         _______ _______ _______ _____ _____    ______ ____
ROOT
ATOM      1  C   UNL     1      -3.271  15.384  21.688  0.00  0.00    +0.000 C 
ATOM      2  C   UNL     1      -3.592  14.092  21.610  0.00  0.00    +0.000 C 
ATOM      3  C   UNL     1      -3.833  13.509  23.035  0.00  0.00    +0.000 C 
ATOM      4  C   UNL     1      -2.729  12.610  22.856  0.00  0.00    +0.000 C 
ATOM      5  C   UNL     1      -1.979  11.696  23.689  0.00  0.00    +0.000 C 
ATOM      6  C   UNL     1      -1.116  11.252  22.519  0.00  0.00    +0.000 C 
ATOM      7  C   UNL     1      -0.714   9.896  22.801  0.00  0.00    +0.000 C 
ATOM      8  C   UNL     1      -0.129   9.468  21.524  0.00  0.00    +0.000 C 
ATOM      9  C   UNL     1       0.418   8.156  21.878  0.00  0.00    +0.000 C 
ATOM     10  C   UNL     1       1.136   7.658  20.723  0.00  0.00    +0.000 C 
ATOM     11  C   UNL     1       1.757   6.299  21.078  0.00  0.00    +0.000 C 
ATOM     12  C   UNL     1       2.574   6.256  19.868  0.00  0.00    +0.000 C 
ATOM     13  C   UNL     1       3.064   5.252  18.952  0.00  0.00    +0.000 C 
ATOM     14  C   UNL     1       3.036   6.218  17.631  0.00  0.00    +0.000 C 
ATOM     15  C   UNL     1       2.965   8.051  17.841  0.00  0.00    +0.000 C 
ATOM     16  C   UNL     1       1.661   9.412  17.657  0.00  0.00    +0.000 C 
ATOM     17  C   UNL     1       0.781  10.625  18.848  0.00  0.00    +0.000 C 
ATOM     18  N   UNL     1      -0.427  12.034  18.766  0.00  0.00    +0.000 N 
ATOM     19  C   UNL     1      -1.292  13.076  19.886  0.00  0.00    +0.000 C 
ATOM     20  C   UNL     1      -1.151  14.442  20.103  0.00  0.00    +0.000 C 
ATOM     21  C   UNL     1      -2.059  15.637  20.851  0.00  0.00    +0.000 C 
ATOM     22  O   UNL     1      -1.663  16.800  20.756  0.00  0.00    +0.000 OA
ATOM     23  C   UNL     1      -2.959  13.169  20.252  0.00  0.00    +0.000 C 
ATOM     24  O   UNL     1      -3.775  12.791  19.411  0.00  0.00    +0.000 OA
ATOM     25  H   UNL     1       0.100  12.726  18.226  0.00  0.00    +0.000 HD
ENDROOT
BRANCH   1  27
ATOM     26  C   UNL     1      -2.988  16.949  23.896  0.00  0.00    +0.000 C 
ATOM     27  O   UNL     1      -3.711  16.279  22.773  0.00  0.00    +0.000 OA
ENDBRANCH   1  27
TORSDOF 1
ENDMDL
MODEL 5
REMARK VINA RESULT:      -6.2      2.135      4.162
REMARK  Name = 
REMARK  2 active torsions:
REMARK  status: ('A' for Active; 'I' for Inactive)
REMARK    1  A    between atoms: C_1  and  O_2
REMARK    2  A    between atoms: O_2  and  C_3
REMARK                            x       y       z     vdW  Elec       q    Type
REMARK                         _______ _______ _______ _____ _____    ______ ____
ROOT
ATOM      1  C   UNL     1      -2.939  15.143  22.042  0.00  0.00    +0.000 C 
ATOM      2  C   UNL     1      -1.640  14.979  21.788  0.00  0.00    +0.000 C 
ATOM      3  C   UNL     1      -1.253  15.697  20.461  0.00  0.00    +0.000 C 
ATOM      4  C   UNL     1      -0.894  14.436  19.880  0.00  0.00    +0.000 C 
ATOM      5  C   UNL     1      -0.538  13.953  18.564  0.00  0.00    +0.000 C 
ATOM      6  C   UNL     1      -0.318  12.540  19.081  0.00  0.00    +0.000 C 
ATOM      7  C   UNL     1       0.671  11.941  18.218  0.00  0.00    +0.000 C 
ATOM      8  C   UNL     1       1.013  10.709  18.940  0.00  0.00    +0.000 C 
ATOM      9  C   UNL     1       1.890  10.039  17.976  0.00  0.00    +0.000 C 
ATOM     10  C   UNL     1       2.217   8.736  18.518  0.00  0.00    +0.000 C 
ATOM     11  C   UNL     1       3.104   7.993  17.507  0.00  0.00    +0.000 C 
ATOM     12  C   UNL     1       2.994   6.719  18.215  0.00  0.00    +0.000 C 
ATOM     13  C   UNL     1       3.829   5.568  18.466  0.00  0.00    +0.000 C 
ATOM     14  C   UNL     1       3.200   5.236  19.941  0.00  0.00    +0.000 C 
ATOM     15  C   UNL     1       1.564   5.948  20.417  0.00  0.00    +0.000 C 
ATOM     16  C   UNL     1       0.939   7.336  21.544  0.00  0.00    +0.000 C 
ATOM     17  C   UNL     1       0.038   9.004  21.279  0.00  0.00    +0.000 C 
ATOM     18  N   UNL     1      -0.687  10.377  22.298  0.00  0.00    +0.000 N 
ATOM     19  C   UNL     1      -1.431  11.946  22.030  0.00  0.00    +0.000 C 
ATOM     20  C   UNL     1      -2.742  12.348  22.259  0.00  0.00    +0.000 C 
ATOM     21  C   UNL     1      -3.542  13.818  22.378  0.00  0.00    +0.000 C 
ATOM     22  O   UNL     1      -4.729  13.797  22.706  0.00  0.00    +0.000 OA
ATOM     23  C   UNL     1      -0.865  13.519  22.391  0.00  0.00    +0.000 C 
ATOM     24  O   UNL     1      -0.042  13.661  23.296  0.00  0.00    +0.000 OA
ATOM     25  H   UNL     1      -1.439   9.890  22.796  0.00  0.00    +0.000 HD
ENDROOT
BRANCH   1  27
ATOM     26  C   UNL     1      -4.275  17.500  22.294  0.00  0.00    +0.000 C 
ATOM     27  O   UNL     1      -3.727  16.303  21.588  0.00  0.00    +0.000 OA
ENDBRANCH   1  27
TORSDOF 1
ENDMDL
MODEL 6
REMARK VINA RESULT:      -6.2      6.379      7.281
REMARK  Name = 
REMARK  2 active torsions:
REMARK  status: ('A' for Active; 'I' for Inactive)
REMARK    1  A    between atoms: C_1  and  O_2
REMARK    2  A    between atoms: O_2  and  C_3
REMARK                            x       y       z     vdW  Elec       q    Type
REMARK                         _______ _______ _______ _____ _____    ______ ____
ROOT
ATOM      1  C   UNL     1       0.557  16.913  19.602  0.00  0.00    +0.000 C 
ATOM      2  C   UNL     1       1.119  15.916  20.288  0.00  0.00    +0.000 C 
ATOM      3  C   UNL     1       1.347  16.340  21.769  0.00  0.00    +0.000 C 
ATOM      4  C   UNL     1       2.764  16.194  21.594  0.00  0.00    +0.000 C 
ATOM      5  C   UNL     1       3.951  16.508  22.359  0.00  0.00    +0.000 C 
ATOM      6  C   UNL     1       4.859  15.905  21.300  0.00  0.00    +0.000 C 
ATOM      7  C   UNL     1       6.035  15.436  21.993  0.00  0.00    +0.000 C 
ATOM      8  C   UNL     1       6.714  14.643  20.960  0.00  0.00    +0.000 C 
ATOM      9  C   UNL     1       7.976  14.314  21.627  0.00  0.00    +0.000 C 
ATOM     10  C   UNL     1       8.807  13.618  20.666  0.00  0.00    +0.000 C 
ATOM     11  C   UNL     1      10.157  13.296  21.326  0.00  0.00    +0.000 C 
ATOM     12  C   UNL     1      10.777  12.892  20.065  0.00  0.00    +0.000 C 
ATOM     13  C   UNL     1      11.757  11.927  19.625  0.00  0.00    +0.000 C 
ATOM     14  C   UNL     1      11.080  11.676  18.155  0.00  0.00    +0.000 C 
ATOM     15  C   UNL     1       9.880  12.906  17.481  0.00  0.00    +0.000 C 
ATOM     16  C   UNL     1       8.004  13.015  17.240  0.00  0.00    +0.000 C 
ATOM     17  C   UNL     1       6.599  14.098  17.957  0.00  0.00    +0.000 C 
ATOM     18  N   UNL     1       4.772  14.346  17.732  0.00  0.00    +0.000 N 
ATOM     19  C   UNL     1       3.484  15.287  18.469  0.00  0.00    +0.000 C 
ATOM     20  C   UNL     1       2.742  16.332  17.932  0.00  0.00    +0.000 C 
ATOM     21  C   UNL     1       1.311  17.113  18.327  0.00  0.00    +0.000 C 
ATOM     22  O   UNL     1       0.883  17.957  17.538  0.00  0.00    +0.000 OA
ATOM     23  C   UNL     1       2.143  14.789  19.406  0.00  0.00    +0.000 C 
ATOM     24  O   UNL     1       1.718  13.641  19.273  0.00  0.00    +0.000 OA
ATOM     25  H   UNL     1       4.727  14.681  16.765  0.00  0.00    +0.000 HD
ENDROOT
BRANCH   1  27
ATOM     26  C   UNL     1      -1.727  18.346  19.965  0.00  0.00    +0.000 C 
ATOM     27  O   UNL     1      -0.309  17.942  20.204  0.00  0.00    +0.000 OA
ENDBRANCH   1  27
TORSDOF 1
ENDMDL
MODEL 7
REMARK VINA RESULT:      -6.1      3.333      5.037
REMARK  Name = 
REMARK  2 active torsions:
REMARK  status: ('A' for Active; 'I' for Inactive)
REMARK    1  A    between atoms: C_1  and  O_2
REMARK    2  A    between atoms: O_2  and  C_3
REMARK                            x       y       z     vdW  Elec       q    Type
REMARK                         _______ _______ _______ _____ _____    ______ ____
ROOT
ATOM      1  C   UNL     1      -6.201  15.524  22.108  0.00  0.00    +0.000 C 
ATOM      2  C   UNL     1      -6.078  14.220  22.365  0.00  0.00    +0.000 C 
ATOM      3  C   UNL     1      -5.783  13.993  23.877  0.00  0.00    +0.000 C 
ATOM      4  C   UNL     1      -4.511  13.418  23.546  0.00  0.00    +0.000 C 
ATOM      5  C   UNL     1      -3.331  13.000  24.270  0.00  0.00    +0.000 C 
ATOM      6  C   UNL     1      -2.655  12.517  22.997  0.00  0.00    +0.000 C 
ATOM      7  C   UNL     1      -1.768  11.448  23.389  0.00  0.00    +0.000 C 
ATOM      8  C   UNL     1      -1.375  10.875  22.095  0.00  0.00    +0.000 C 
ATOM      9  C   UNL     1      -0.355   9.906  22.503  0.00  0.00    +0.000 C 
ATOM     10  C   UNL     1       0.211   9.337  21.297  0.00  0.00    +0.000 C 
ATOM     11  C   UNL     1       1.316   8.345  21.693  0.00  0.00    +0.000 C 
ATOM     12  C   UNL     1       1.807   8.209  20.323  0.00  0.00    +0.000 C 
ATOM     13  C   UNL     1       2.387   7.173  19.501  0.00  0.00    +0.000 C 
ATOM     14  C   UNL     1       1.740   7.708  18.095  0.00  0.00    +0.000 C 
ATOM     15  C   UNL     1       1.107   9.438  17.982  0.00  0.00    +0.000 C 
ATOM     16  C   UNL     1      -0.585  10.289  17.949  0.00  0.00    +0.000 C 
ATOM     17  C   UNL     1      -1.531  11.484  19.107  0.00  0.00    +0.000 C 
ATOM     18  N   UNL     1      -3.128  12.433  19.132  0.00  0.00    +0.000 N 
ATOM     19  C   UNL     1      -4.018  13.456  20.250  0.00  0.00    +0.000 C 
ATOM     20  C   UNL     1      -4.300  14.814  20.164  0.00  0.00    +0.000 C 
ATOM     21  C   UNL     1      -5.364  15.868  20.918  0.00  0.00    +0.000 C 
ATOM     22  O   UNL     1      -5.414  17.026  20.502  0.00  0.00    +0.000 OA
ATOM     23  C   UNL     1      -5.493  13.182  21.070  0.00  0.00    +0.000 C 
ATOM     24  O   UNL     1      -6.300  12.385  20.591  0.00  0.00    +0.000 OA
ATOM     25  H   UNL     1      -2.999  13.075  18.344  0.00  0.00    +0.000 HD
ENDROOT
BRANCH   1  27
ATOM     26  C   UNL     1      -7.917  17.316  23.225  0.00  0.00    +0.000 C 
ATOM     27  O   UNL     1      -6.661  16.518  23.094  0.00  0.00    +0.000 OA
ENDBRANCH   1  27
TORSDOF 1
ENDMDL
MODEL 8
REMARK VINA RESULT:      -6.1      3.995      9.603
REMARK  Name = 
REMARK  2 active torsions:
REMARK  status: ('A' for Active; 'I' for Inactive)
REMARK    1  A    between atoms: C_1  and  O_2
REMARK    2  A    between atoms: O_2  and  C_3
REMARK                            x       y       z     vdW  Elec       q    Type
REMARK                         _______ _______ _______ _____ _____    ______ ____
ROOT
ATOM      1  C   UNL     1       3.266   2.124  19.564  0.00  0.00    +0.000 C 
ATOM      2  C   UNL     1       2.577   2.882  18.709  0.00  0.00    +0.000 C 
ATOM      3  C   UNL     1       3.439   3.196  17.450  0.00  0.00    +0.000 C 
ATOM      4  C   UNL     1       3.394   4.595  17.766  0.00  0.00    +0.000 C 
ATOM      5  C   UNL     1       4.038   5.798  17.287  0.00  0.00    +0.000 C 
ATOM      6  C   UNL     1       3.246   6.671  18.247  0.00  0.00    +0.000 C 
ATOM      7  C   UNL     1       3.124   7.962  17.615  0.00  0.00    +0.000 C 
ATOM      8  C   UNL     1       2.136   8.637  18.467  0.00  0.00    +0.000 C 
ATOM      9  C   UNL     1       2.149   9.992  17.911  0.00  0.00    +0.000 C 
ATOM     10  C   UNL     1       1.290  10.811  18.741  0.00  0.00    +0.000 C 
ATOM     11  C   UNL     1       1.316  12.251  18.207  0.00  0.00    +0.000 C 
ATOM     12  C   UNL     1       0.625  12.792  19.375  0.00  0.00    +0.000 C 
ATOM     13  C   UNL     1      -0.322  13.846  19.655  0.00  0.00    +0.000 C 
ATOM     14  C   UNL     1      -1.061  13.067  20.892  0.00  0.00    +0.000 C 
ATOM     15  C   UNL     1      -0.213  11.649  21.715  0.00  0.00    +0.000 C 
ATOM     16  C   UNL     1      -0.372   9.762  21.723  0.00  0.00    +0.000 C 
ATOM     17  C   UNL     1       0.725   8.300  21.154  0.00  0.00    +0.000 C 
ATOM     18  N   UNL     1       0.708   6.443  21.191  0.00  0.00    +0.000 N 
ATOM     19  C   UNL     1       1.687   5.118  20.581  0.00  0.00    +0.000 C 
ATOM     20  C   UNL     1       2.447   4.190  21.283  0.00  0.00    +0.000 C 
ATOM     21  C   UNL     1       3.158   2.712  20.933  0.00  0.00    +0.000 C 
ATOM     22  O   UNL     1       3.685   2.097  21.862  0.00  0.00    +0.000 OA
ATOM     23  C   UNL     1       1.352   3.958  19.370  0.00  0.00    +0.000 C 
ATOM     24  O   UNL     1       0.179   3.683  19.119  0.00  0.00    +0.000 OA
ATOM     25  H   UNL     1       0.737   6.257  22.199  0.00  0.00    +0.000 HD
ENDROOT
BRANCH   1  27
ATOM     26  C   UNL     1       5.223   0.269  19.932  0.00  0.00    +0.000 C 
ATOM     27  O   UNL     1       4.333   1.189  19.162  0.00  0.00    +0.000 OA
ENDBRANCH   1  27
TORSDOF 1
ENDMDL
MODEL 9
REMARK VINA RESULT:      -6.1      2.423      4.654
REMARK  Name = 
REMARK  2 active torsions:
REMARK  status: ('A' for Active; 'I' for Inactive)
REMARK    1  A    between atoms: C_1  and  O_2
REMARK    2  A    between atoms: O_2  and  C_3
REMARK                            x       y       z     vdW  Elec       q    Type
REMARK                         _______ _______ _______ _____ _____    ______ ____
ROOT
ATOM      1  C   UNL     1      -3.573  14.948  23.123  0.00  0.00    +0.000 C 
ATOM      2  C   UNL     1      -2.313  14.927  22.685  0.00  0.00    +0.000 C 
ATOM      3  C   UNL     1      -2.192  15.718  21.349  0.00  0.00    +0.000 C 
ATOM      4  C   UNL     1      -1.796  14.518  20.671  0.00  0.00    +0.000 C 
ATOM      5  C   UNL     1      -1.585  14.112  19.299  0.00  0.00    +0.000 C 
ATOM      6  C   UNL     1      -1.155  12.716  19.720  0.00  0.00    +0.000 C 
ATOM      7  C   UNL     1      -0.244  12.247  18.704  0.00  0.00    +0.000 C 
ATOM      8  C   UNL     1       0.317  11.037  19.318  0.00  0.00    +0.000 C 
ATOM      9  C   UNL     1       1.108  10.489  18.215  0.00  0.00    +0.000 C 
ATOM     10  C   UNL     1       1.637   9.212  18.650  0.00  0.00    +0.000 C 
ATOM     11  C   UNL     1       2.439   8.593  17.496  0.00  0.00    +0.000 C 
ATOM     12  C   UNL     1       2.557   7.295  18.157  0.00  0.00    +0.000 C 
ATOM     13  C   UNL     1       3.529   6.230  18.240  0.00  0.00    +0.000 C 
ATOM     14  C   UNL     1       3.151   5.793  19.772  0.00  0.00    +0.000 C 
ATOM     15  C   UNL     1       1.538   6.319  20.500  0.00  0.00    +0.000 C 
ATOM     16  C   UNL     1       0.945   7.602  21.761  0.00  0.00    +0.000 C 
ATOM     17  C   UNL     1      -0.144   9.175  21.695  0.00  0.00    +0.000 C 
ATOM     18  N   UNL     1      -0.849  10.436  22.862  0.00  0.00    +0.000 N 
ATOM     19  C   UNL     1      -1.774  11.926  22.767  0.00  0.00    +0.000 C 
ATOM     20  C   UNL     1      -3.072  12.184  23.192  0.00  0.00    +0.000 C 
ATOM     21  C   UNL     1      -3.988  13.558  23.483  0.00  0.00    +0.000 C 
ATOM     22  O   UNL     1      -5.109  13.406  23.971  0.00  0.00    +0.000 OA
ATOM     23  C   UNL     1      -1.320  13.538  23.112  0.00  0.00    +0.000 C 
ATOM     24  O   UNL     1      -0.396  13.740  23.900  0.00  0.00    +0.000 OA
ATOM     25  H   UNL     1      -1.470   9.859  23.438  0.00  0.00    +0.000 HD
ENDROOT
BRANCH   1  27
ATOM     26  C   UNL     1      -5.778  16.495  23.507  0.00  0.00    +0.000 C 
ATOM     27  O   UNL     1      -4.528  16.033  22.833  0.00  0.00    +0.000 OA
ENDBRANCH   1  27
TORSDOF 1
ENDMDL
