MODEL 1
REMARK VINA RESULT:      -6.7      0.000      0.000
REMARK  Name = 
REMARK  6 active torsions:
REMARK  status: ('A' for Active; 'I' for Inactive)
REMARK    1  A    between atoms: C_1  and  S_2
REMARK    2  A    between atoms: S_2  and  C_3
REMARK    3  A    between atoms: C_10  and  O_11
REMARK    4  A    between atoms: C_16  and  S_17
REMARK    5  A    between atoms: S_17  and  C_18
REMARK    6  A    between atoms: C_25  and  O_26
REMARK                            x       y       z     vdW  Elec       q    Type
REMARK                         _______ _______ _______ _____ _____    ______ ____
ROOT
ATOM      1  C   UNL     1      -0.604  11.515  20.760  0.00  0.00    +0.000 C 
ATOM      2  C   UNL     1      -0.326  10.049  21.044  0.00  0.00    +0.000 C 
ATOM      3  C   UNL     1       0.515   9.766  19.864  0.00  0.00    +0.000 C 
ATOM      4  C   UNL     1       1.374   8.555  19.814  0.00  0.00    +0.000 C 
ATOM      5  O   UNL     1       1.430   7.700  20.686  0.00  0.00    +0.000 OA
ATOM      6  C   UNL     1       2.063   8.420  18.512  0.00  0.00    +0.000 C 
ATOM      7  C   UNL     1       2.122   9.517  17.727  0.00  0.00    +0.000 C 
ATOM      8  C   UNL     1       1.699  10.944  18.153  0.00  0.00    +0.000 C 
ATOM      9  C   UNL     1       1.443  10.999  19.695  0.00  0.00    +0.000 C 
ATOM     10  N   UNL     1       0.657  12.100  20.309  0.00  0.00    +0.000 N 
ATOM     11  C   UNL     1       1.121  13.294  21.034  0.00  0.00    +0.000 C 
ATOM     12  O   UNL     1       2.313  13.598  21.148  0.00  0.00    +0.000 OA
ATOM     13  C   UNL     1      -0.172  14.359  21.507  0.00  0.00    +0.000 C 
ATOM     14  C   UNL     1      -0.465  15.503  22.587  0.00  0.00    +0.000 C 
ATOM     15  C   UNL     1      -2.035  15.331  22.858  0.00  0.00    +0.000 C 
ATOM     16  C   UNL     1      -2.850  15.813  24.052  0.00  0.00    +0.000 C 
ATOM     17  O   UNL     1      -2.617  16.851  24.648  0.00  0.00    +0.000 OA
ATOM     18  C   UNL     1      -4.095  15.024  24.433  0.00  0.00    +0.000 C 
ATOM     19  C   UNL     1      -4.303  13.758  23.971  0.00  0.00    +0.000 C 
ATOM     20  C   UNL     1      -3.326  13.085  23.098  0.00  0.00    +0.000 C 
ATOM     21  C   UNL     1      -2.003  13.854  23.030  0.00  0.00    +0.000 C 
ATOM     22  N   UNL     1      -1.262  13.436  21.888  0.00  0.00    +0.000 N 
ATOM     23  C   UNL     1      -0.858  12.140  22.074  0.00  0.00    +0.000 C 
ATOM     24  O   UNL     1      -0.574  11.675  23.173  0.00  0.00    +0.000 OA
ENDROOT
BRANCH   1  26
ATOM     25  C   UNL     1      -1.984  10.297  18.549  0.00  0.00    +0.000 C 
ATOM     26  S   UNL     1      -1.866  11.863  19.436  0.00  0.00    +0.000 S 
ENDBRANCH   1  26
BRANCH   8  27
ATOM     27  O   UNL     1       2.705  11.860  17.762  0.00  0.00    +0.000 OA
ATOM     28  H   UNL     1       3.555  11.392  17.710  0.00  0.00    +0.000 HD
ENDBRANCH   8  27
BRANCH  13  29
ATOM     29  S   UNL     1      -0.413  15.296  19.891  0.00  0.00    +0.000 S 
ATOM     30  C   UNL     1       0.410  16.892  20.359  0.00  0.00    +0.000 C 
ENDBRANCH  13  29
BRANCH  20  31
ATOM     31  O   UNL     1      -3.171  11.757  23.598  0.00  0.00    +0.000 OA
ATOM     32  H   UNL     1      -3.615  11.122  22.998  0.00  0.00    +0.000 HD
ENDBRANCH  20  31
TORSDOF 4
ENDMDL
MODEL 2
REMARK VINA RESULT:      -6.7      3.356      5.038
REMARK  Name = 
REMARK  6 active torsions:
REMARK  status: ('A' for Active; 'I' for Inactive)
REMARK    1  A    between atoms: C_1  and  S_2
REMARK    2  A    between atoms: S_2  and  C_3
REMARK    3  A    between atoms: C_10  and  O_11
REMARK    4  A    between atoms: C_16  and  S_17
REMARK    5  A    between atoms: S_17  and  C_18
REMARK    6  A    between atoms: C_25  and  O_26
REMARK                            x       y       z     vdW  Elec       q    Type
REMARK                         _______ _______ _______ _____ _____    ______ ____
ROOT
ATOM      1  C   UNL     1      -4.444  13.670  21.332  0.00  0.00    +0.000 C 
ATOM      2  C   UNL     1      -5.604  12.737  21.638  0.00  0.00    +0.000 C 
ATOM      3  C   UNL     1      -5.850  12.256  20.264  0.00  0.00    +0.000 C 
ATOM      4  C   UNL     1      -6.655  11.032  20.019  0.00  0.00    +0.000 C 
ATOM      5  O   UNL     1      -7.197  10.366  20.889  0.00  0.00    +0.000 OA
ATOM      6  C   UNL     1      -6.851  10.779  18.575  0.00  0.00    +0.000 C 
ATOM      7  C   UNL     1      -6.028  11.421  17.718  0.00  0.00    +0.000 C 
ATOM      8  C   UNL     1      -4.782  12.246  18.124  0.00  0.00    +0.000 C 
ATOM      9  C   UNL     1      -4.450  12.022  19.636  0.00  0.00    +0.000 C 
ATOM     10  N   UNL     1      -3.581  12.967  20.385  0.00  0.00    +0.000 N 
ATOM     11  C   UNL     1      -2.163  12.844  20.758  0.00  0.00    +0.000 C 
ATOM     12  O   UNL     1      -1.441  11.912  20.385  0.00  0.00    +0.000 OA
ATOM     13  C   UNL     1      -1.539  14.252  21.570  0.00  0.00    +0.000 C 
ATOM     14  C   UNL     1      -0.346  14.650  22.559  0.00  0.00    +0.000 C 
ATOM     15  C   UNL     1      -0.988  15.843  23.414  0.00  0.00    +0.000 C 
ATOM     16  C   UNL     1      -0.549  16.381  24.771  0.00  0.00    +0.000 C 
ATOM     17  O   UNL     1       0.616  16.431  25.127  0.00  0.00    +0.000 OA
ATOM     18  C   UNL     1      -1.607  17.007  25.668  0.00  0.00    +0.000 C 
ATOM     19  C   UNL     1      -2.937  16.801  25.449  0.00  0.00    +0.000 C 
ATOM     20  C   UNL     1      -3.414  15.948  24.347  0.00  0.00    +0.000 C 
ATOM     21  C   UNL     1      -2.270  15.152  23.710  0.00  0.00    +0.000 C 
ATOM     22  N   UNL     1      -2.665  14.689  22.423  0.00  0.00    +0.000 N 
ATOM     23  C   UNL     1      -3.649  13.748  22.574  0.00  0.00    +0.000 C 
ATOM     24  O   UNL     1      -3.704  12.979  23.529  0.00  0.00    +0.000 OA
ENDROOT
BRANCH   1  26
ATOM     25  C   UNL     1      -6.108  15.989  21.689  0.00  0.00    +0.000 C 
ATOM     26  S   UNL     1      -4.893  15.298  20.549  0.00  0.00    +0.000 S 
ENDBRANCH   1  26
BRANCH   8  27
ATOM     27  O   UNL     1      -3.696  11.881  17.294  0.00  0.00    +0.000 OA
ATOM     28  H   UNL     1      -3.816  10.963  17.003  0.00  0.00    +0.000 HD
ENDBRANCH   8  27
BRANCH  13  29
ATOM     29  S   UNL     1      -1.168  15.336  20.075  0.00  0.00    +0.000 S 
ATOM     30  C   UNL     1       0.674  15.122  20.016  0.00  0.00    +0.000 C 
ENDBRANCH  13  29
BRANCH  20  31
ATOM     31  O   UNL     1      -4.439  15.113  24.884  0.00  0.00    +0.000 OA
ATOM     32  H   UNL     1      -4.970  14.727  24.156  0.00  0.00    +0.000 HD
ENDBRANCH  20  31
TORSDOF 4
ENDMDL
MODEL 3
REMARK VINA RESULT:      -6.4      2.381      7.214
REMARK  Name = 
REMARK  6 active torsions:
REMARK  status: ('A' for Active; 'I' for Inactive)
REMARK    1  A    between atoms: C_1  and  S_2
REMARK    2  A    between atoms: S_2  and  C_3
REMARK    3  A    between atoms: C_10  and  O_11
REMARK    4  A    between atoms: C_16  and  S_17
REMARK    5  A    between atoms: S_17  and  C_18
REMARK    6  A    between atoms: C_25  and  O_26
REMARK                            x       y       z     vdW  Elec       q    Type
REMARK                         _______ _______ _______ _____ _____    ______ ____
ROOT
ATOM      1  C   UNL     1      -2.972  13.797  21.286  0.00  0.00    +0.000 C 
ATOM      2  C   UNL     1      -3.428  15.157  20.783  0.00  0.00    +0.000 C 
ATOM      3  C   UNL     1      -3.964  15.679  22.056  0.00  0.00    +0.000 C 
ATOM      4  C   UNL     1      -4.221  17.132  22.235  0.00  0.00    +0.000 C 
ATOM      5  O   UNL     1      -4.058  17.982  21.372  0.00  0.00    +0.000 OA
ATOM      6  C   UNL     1      -4.835  17.426  23.547  0.00  0.00    +0.000 C 
ATOM      7  C   UNL     1      -4.751  16.471  24.498  0.00  0.00    +0.000 C 
ATOM      8  C   UNL     1      -3.905  15.178  24.393  0.00  0.00    +0.000 C 
ATOM      9  C   UNL     1      -2.954  15.248  23.153  0.00  0.00    +0.000 C 
ATOM     10  N   UNL     1      -2.336  14.024  22.582  0.00  0.00    +0.000 N 
ATOM     11  C   UNL     1      -0.971  13.499  22.742  0.00  0.00    +0.000 C 
ATOM     12  O   UNL     1      -0.136  14.001  23.503  0.00  0.00    +0.000 OA
ATOM     13  C   UNL     1      -0.721  11.972  21.945  0.00  0.00    +0.000 C 
ATOM     14  C   UNL     1       0.483  11.092  21.364  0.00  0.00    +0.000 C 
ATOM     15  C   UNL     1      -0.208  10.327  20.136  0.00  0.00    +0.000 C 
ATOM     16  C   UNL     1       0.458   9.667  18.934  0.00  0.00    +0.000 C 
ATOM     17  O   UNL     1       1.536   9.103  18.991  0.00  0.00    +0.000 OA
ATOM     18  C   UNL     1      -0.327   9.597  17.632  0.00  0.00    +0.000 C 
ATOM     19  C   UNL     1      -1.426  10.378  17.421  0.00  0.00    +0.000 C 
ATOM     20  C   UNL     1      -1.894  11.340  18.434  0.00  0.00    +0.000 C 
ATOM     21  C   UNL     1      -0.868  11.527  19.556  0.00  0.00    +0.000 C 
ATOM     22  N   UNL     1      -1.501  12.101  20.695  0.00  0.00    +0.000 N 
ATOM     23  C   UNL     1      -1.868  13.386  20.395  0.00  0.00    +0.000 C 
ATOM     24  O   UNL     1      -1.229  14.110  19.639  0.00  0.00    +0.000 OA
ENDROOT
BRANCH   1  26
ATOM     25  C   UNL     1      -5.150  12.468  19.957  0.00  0.00    +0.000 C 
ATOM     26  S   UNL     1      -4.315  12.536  21.555  0.00  0.00    +0.000 S 
ENDBRANCH   1  26
BRANCH   8  27
ATOM     27  O   UNL     1      -3.178  15.004  25.595  0.00  0.00    +0.000 OA
ATOM     28  H   UNL     1      -3.571  14.273  26.098  0.00  0.00    +0.000 HD
ENDBRANCH   8  27
BRANCH  13  29
ATOM     29  S   UNL     1      -1.438  10.818  23.249  0.00  0.00    +0.000 S 
ATOM     30  C   UNL     1      -0.038   9.604  23.357  0.00  0.00    +0.000 C 
ENDBRANCH  13  29
BRANCH  20  31
ATOM     31  O   UNL     1      -2.190  12.555  17.745  0.00  0.00    +0.000 OA
ATOM     32  H   UNL     1      -3.149  12.601  17.549  0.00  0.00    +0.000 HD
ENDBRANCH  20  31
TORSDOF 4
ENDMDL
MODEL 4
REMARK VINA RESULT:      -6.4      2.549      5.148
REMARK  Name = 
REMARK  6 active torsions:
REMARK  status: ('A' for Active; 'I' for Inactive)
REMARK    1  A    between atoms: C_1  and  S_2
REMARK    2  A    between atoms: S_2  and  C_3
REMARK    3  A    between atoms: C_10  and  O_11
REMARK    4  A    between atoms: C_16  and  S_17
REMARK    5  A    between atoms: S_17  and  C_18
REMARK    6  A    between atoms: C_25  and  O_26
REMARK                            x       y       z     vdW  Elec       q    Type
REMARK                         _______ _______ _______ _____ _____    ______ ____
ROOT
ATOM      1  C   UNL     1       0.450  15.398  20.596  0.00  0.00    +0.000 C 
ATOM      2  C   UNL     1       0.534  16.757  19.921  0.00  0.00    +0.000 C 
ATOM      3  C   UNL     1       1.655  16.463  19.006  0.00  0.00    +0.000 C 
ATOM      4  C   UNL     1       1.933  17.339  17.838  0.00  0.00    +0.000 C 
ATOM      5  O   UNL     1       1.315  18.357  17.565  0.00  0.00    +0.000 OA
ATOM      6  C   UNL     1       3.147  16.915  17.107  0.00  0.00    +0.000 C 
ATOM      7  C   UNL     1       3.606  15.667  17.342  0.00  0.00    +0.000 C 
ATOM      8  C   UNL     1       2.865  14.582  18.162  0.00  0.00    +0.000 C 
ATOM      9  C   UNL     1       1.398  15.032  18.461  0.00  0.00    +0.000 C 
ATOM     10  N   UNL     1       0.600  14.398  19.541  0.00  0.00    +0.000 N 
ATOM     11  C   UNL     1      -0.456  13.377  19.452  0.00  0.00    +0.000 C 
ATOM     12  O   UNL     1      -0.768  12.812  18.398  0.00  0.00    +0.000 OA
ATOM     13  C   UNL     1      -1.058  12.869  21.005  0.00  0.00    +0.000 C 
ATOM     14  C   UNL     1      -2.365  12.195  21.636  0.00  0.00    +0.000 C 
ATOM     15  C   UNL     1      -2.419  12.846  23.099  0.00  0.00    +0.000 C 
ATOM     16  C   UNL     1      -3.608  12.953  24.047  0.00  0.00    +0.000 C 
ATOM     17  O   UNL     1      -4.476  12.101  24.132  0.00  0.00    +0.000 OA
ATOM     18  C   UNL     1      -3.639  14.117  25.027  0.00  0.00    +0.000 C 
ATOM     19  C   UNL     1      -2.842  15.211  24.857  0.00  0.00    +0.000 C 
ATOM     20  C   UNL     1      -1.927  15.328  23.708  0.00  0.00    +0.000 C 
ATOM     21  C   UNL     1      -2.199  14.248  22.655  0.00  0.00    +0.000 C 
ATOM     22  N   UNL     1      -1.070  14.117  21.798  0.00  0.00    +0.000 N 
ATOM     23  C   UNL     1      -0.949  15.257  21.049  0.00  0.00    +0.000 C 
ATOM     24  O   UNL     1      -1.911  15.920  20.672  0.00  0.00    +0.000 OA
ENDROOT
BRANCH   1  26
ATOM     25  C   UNL     1       1.760  16.524  22.897  0.00  0.00    +0.000 C 
ATOM     26  S   UNL     1       1.758  15.039  21.872  0.00  0.00    +0.000 S 
ENDBRANCH   1  26
BRANCH   8  27
ATOM     27  O   UNL     1       2.897  13.361  17.446  0.00  0.00    +0.000 OA
ATOM     28  H   UNL     1       3.820  13.076  17.348  0.00  0.00    +0.000 HD
ENDBRANCH   8  27
BRANCH  13  29
ATOM     29  S   UNL     1       0.271  11.616  21.461  0.00  0.00    +0.000 S 
ATOM     30  C   UNL     1      -0.506  10.097  20.731  0.00  0.00    +0.000 C 
ENDBRANCH  13  29
BRANCH  20  31
ATOM     31  O   UNL     1      -2.074  16.652  23.196  0.00  0.00    +0.000 OA
ATOM     32  H   UNL     1      -2.371  17.254  23.909  0.00  0.00    +0.000 HD
ENDBRANCH  20  31
TORSDOF 4
ENDMDL
MODEL 5
REMARK VINA RESULT:      -6.3      3.988      5.386
REMARK  Name = 
REMARK  6 active torsions:
REMARK  status: ('A' for Active; 'I' for Inactive)
REMARK    1  A    between atoms: C_1  and  S_2
REMARK    2  A    between atoms: S_2  and  C_3
REMARK    3  A    between atoms: C_10  and  O_11
REMARK    4  A    between atoms: C_16  and  S_17
REMARK    5  A    between atoms: S_17  and  C_18
REMARK    6  A    between atoms: C_25  and  O_26
REMARK                            x       y       z     vdW  Elec       q    Type
REMARK                         _______ _______ _______ _____ _____    ______ ____
ROOT
ATOM      1  C   UNL     1      -5.244  14.016  21.333  0.00  0.00    +0.000 C 
ATOM      2  C   UNL     1      -6.304  12.959  21.595  0.00  0.00    +0.000 C 
ATOM      3  C   UNL     1      -6.256  12.288  20.281  0.00  0.00    +0.000 C 
ATOM      4  C   UNL     1      -6.841  10.934  20.097  0.00  0.00    +0.000 C 
ATOM      5  O   UNL     1      -7.425  10.300  20.964  0.00  0.00    +0.000 OA
ATOM      6  C   UNL     1      -6.763  10.486  18.689  0.00  0.00    +0.000 C 
ATOM      7  C   UNL     1      -5.904  11.141  17.879  0.00  0.00    +0.000 C 
ATOM      8  C   UNL     1      -4.862  12.190  18.341  0.00  0.00    +0.000 C 
ATOM      9  C   UNL     1      -4.754  12.198  19.902  0.00  0.00    +0.000 C 
ATOM     10  N   UNL     1      -4.153  13.346  20.628  0.00  0.00    +0.000 N 
ATOM     11  C   UNL     1      -2.811  13.487  21.216  0.00  0.00    +0.000 C 
ATOM     12  O   UNL     1      -1.921  12.639  21.086  0.00  0.00    +0.000 OA
ATOM     13  C   UNL     1      -2.520  15.059  21.904  0.00  0.00    +0.000 C 
ATOM     14  C   UNL     1      -1.568  15.748  22.990  0.00  0.00    +0.000 C 
ATOM     15  C   UNL     1      -2.494  16.922  23.567  0.00  0.00    +0.000 C 
ATOM     16  C   UNL     1      -2.358  17.677  24.885  0.00  0.00    +0.000 C 
ATOM     17  O   UNL     1      -1.284  17.946  25.395  0.00  0.00    +0.000 OA
ATOM     18  C   UNL     1      -3.622  18.235  25.523  0.00  0.00    +0.000 C 
ATOM     19  C   UNL     1      -4.859  17.803  25.145  0.00  0.00    +0.000 C 
ATOM     20  C   UNL     1      -5.033  16.763  24.116  0.00  0.00    +0.000 C 
ATOM     21  C   UNL     1      -3.705  16.082  23.769  0.00  0.00    +0.000 C 
ATOM     22  N   UNL     1      -3.819  15.416  22.516  0.00  0.00    +0.000 N 
ATOM     23  C   UNL     1      -4.681  14.360  22.654  0.00  0.00    +0.000 C 
ATOM     24  O   UNL     1      -4.788  13.710  23.688  0.00  0.00    +0.000 OA
ENDROOT
BRANCH   1  26
ATOM     25  C   UNL     1      -7.282  16.030  21.073  0.00  0.00    +0.000 C 
ATOM     26  S   UNL     1      -5.772  15.452  20.272  0.00  0.00    +0.000 S 
ENDBRANCH   1  26
BRANCH   8  27
ATOM     27  O   UNL     1      -3.616  11.899  17.737  0.00  0.00    +0.000 OA
ATOM     28  H   UNL     1      -3.754  11.743  16.789  0.00  0.00    +0.000 HD
ENDBRANCH   8  27
BRANCH  13  29
ATOM     29  S   UNL     1      -2.058  16.004  20.342  0.00  0.00    +0.000 S 
ATOM     30  C   UNL     1      -0.232  16.157  20.630  0.00  0.00    +0.000 C 
ENDBRANCH  13  29
BRANCH  20  31
ATOM     31  O   UNL     1      -6.012  15.850  24.610  0.00  0.00    +0.000 OA
ATOM     32  H   UNL     1      -5.662  15.381  25.397  0.00  0.00    +0.000 HD
ENDBRANCH  20  31
TORSDOF 4
ENDMDL
MODEL 6
REMARK VINA RESULT:      -6.2      1.055      1.097
REMARK  Name = 
REMARK  6 active torsions:
REMARK  status: ('A' for Active; 'I' for Inactive)
REMARK    1  A    between atoms: C_1  and  S_2
REMARK    2  A    between atoms: S_2  and  C_3
REMARK    3  A    between atoms: C_10  and  O_11
REMARK    4  A    between atoms: C_16  and  S_17
REMARK    5  A    between atoms: S_17  and  C_18
REMARK    6  A    between atoms: C_25  and  O_26
REMARK                            x       y       z     vdW  Elec       q    Type
REMARK                         _______ _______ _______ _____ _____    ______ ____
ROOT
ATOM      1  C   UNL     1      -0.818  12.406  20.996  0.00  0.00    +0.000 C 
ATOM      2  C   UNL     1      -0.743  10.904  21.211  0.00  0.00    +0.000 C 
ATOM      3  C   UNL     1       0.149  10.579  20.080  0.00  0.00    +0.000 C 
ATOM      4  C   UNL     1       0.857   9.273  20.020  0.00  0.00    +0.000 C 
ATOM      5  O   UNL     1       0.739   8.376  20.841  0.00  0.00    +0.000 OA
ATOM      6  C   UNL     1       1.626   9.120  18.766  0.00  0.00    +0.000 C 
ATOM      7  C   UNL     1       1.879  10.239  18.055  0.00  0.00    +0.000 C 
ATOM      8  C   UNL     1       1.600  11.685  18.534  0.00  0.00    +0.000 C 
ATOM      9  C   UNL     1       1.229  11.693  20.054  0.00  0.00    +0.000 C 
ATOM     10  N   UNL     1       0.536  12.851  20.675  0.00  0.00    +0.000 N 
ATOM     11  C   UNL     1       1.081  13.938  21.501  0.00  0.00    +0.000 C 
ATOM     12  O   UNL     1       2.289  14.085  21.720  0.00  0.00    +0.000 OA
ATOM     13  C   UNL     1      -0.107  15.132  21.943  0.00  0.00    +0.000 C 
ATOM     14  C   UNL     1      -0.344  16.247  23.065  0.00  0.00    +0.000 C 
ATOM     15  C   UNL     1      -1.940  16.259  23.210  0.00  0.00    +0.000 C 
ATOM     16  C   UNL     1      -2.784  16.779  24.369  0.00  0.00    +0.000 C 
ATOM     17  O   UNL     1      -2.475  17.748  25.041  0.00  0.00    +0.000 OA
ATOM     18  C   UNL     1      -4.141  16.134  24.609  0.00  0.00    +0.000 C 
ATOM     19  C   UNL     1      -4.464  14.929  24.058  0.00  0.00    +0.000 C 
ATOM     20  C   UNL     1      -3.509  14.184  23.220  0.00  0.00    +0.000 C 
ATOM     21  C   UNL     1      -2.101  14.783  23.294  0.00  0.00    +0.000 C 
ATOM     22  N   UNL     1      -1.327  14.334  22.187  0.00  0.00    +0.000 N 
ATOM     23  C   UNL     1      -1.099  12.991  22.324  0.00  0.00    +0.000 C 
ATOM     24  O   UNL     1      -0.962  12.438  23.410  0.00  0.00    +0.000 OA
ENDROOT
BRANCH   1  26
ATOM     25  C   UNL     1      -3.559  12.425  20.120  0.00  0.00    +0.000 C 
ATOM     26  S   UNL     1      -1.919  12.976  19.607  0.00  0.00    +0.000 S 
ENDBRANCH   1  26
BRANCH   8  27
ATOM     27  O   UNL     1       2.737  12.485  18.274  0.00  0.00    +0.000 OA
ATOM     28  H   UNL     1       2.456  13.408  18.168  0.00  0.00    +0.000 HD
ENDBRANCH   8  27
BRANCH  13  29
ATOM     29  S   UNL     1      -0.102  16.172  20.372  0.00  0.00    +0.000 S 
ATOM     30  C   UNL     1       0.868  17.626  20.994  0.00  0.00    +0.000 C 
ENDBRANCH  13  29
BRANCH  20  31
ATOM     31  O   UNL     1      -3.555  12.823  23.648  0.00  0.00    +0.000 OA
ATOM     32  H   UNL     1      -2.791  12.332  23.280  0.00  0.00    +0.000 HD
ENDBRANCH  20  31
TORSDOF 4
ENDMDL
MODEL 7
REMARK VINA RESULT:      -5.9      3.560      5.898
REMARK  Name = 
REMARK  6 active torsions:
REMARK  status: ('A' for Active; 'I' for Inactive)
REMARK    1  A    between atoms: C_1  and  S_2
REMARK    2  A    between atoms: S_2  and  C_3
REMARK    3  A    between atoms: C_10  and  O_11
REMARK    4  A    between atoms: C_16  and  S_17
REMARK    5  A    between atoms: S_17  and  C_18
REMARK    6  A    between atoms: C_25  and  O_26
REMARK                            x       y       z     vdW  Elec       q    Type
REMARK                         _______ _______ _______ _____ _____    ______ ____
ROOT
ATOM      1  C   UNL     1      -2.022  16.350  20.784  0.00  0.00    +0.000 C 
ATOM      2  C   UNL     1      -2.155  17.409  19.703  0.00  0.00    +0.000 C 
ATOM      3  C   UNL     1      -0.744  17.438  19.268  0.00  0.00    +0.000 C 
ATOM      4  C   UNL     1      -0.360  18.050  17.970  0.00  0.00    +0.000 C 
ATOM      5  O   UNL     1      -1.134  18.597  17.198  0.00  0.00    +0.000 OA
ATOM      6  C   UNL     1       1.106  18.050  17.771  0.00  0.00    +0.000 C 
ATOM      7  C   UNL     1       1.835  17.225  18.553  0.00  0.00    +0.000 C 
ATOM      8  C   UNL     1       1.255  16.146  19.500  0.00  0.00    +0.000 C 
ATOM      9  C   UNL     1      -0.276  15.958  19.239  0.00  0.00    +0.000 C 
ATOM     10  N   UNL     1      -1.157  15.305  20.241  0.00  0.00    +0.000 N 
ATOM     11  C   UNL     1      -1.688  13.934  20.272  0.00  0.00    +0.000 C 
ATOM     12  O   UNL     1      -1.367  13.062  19.455  0.00  0.00    +0.000 OA
ATOM     13  C   UNL     1      -2.621  13.586  21.700  0.00  0.00    +0.000 C 
ATOM     14  C   UNL     1      -3.758  12.571  22.187  0.00  0.00    +0.000 C 
ATOM     15  C   UNL     1      -4.577  13.450  23.247  0.00  0.00    +0.000 C 
ATOM     16  C   UNL     1      -5.996  13.236  23.762  0.00  0.00    +0.000 C 
ATOM     17  O   UNL     1      -6.487  12.134  23.934  0.00  0.00    +0.000 OA
ATOM     18  C   UNL     1      -6.786  14.458  24.207  0.00  0.00    +0.000 C 
ATOM     19  C   UNL     1      -6.405  15.719  23.854  0.00  0.00    +0.000 C 
ATOM     20  C   UNL     1      -5.222  15.959  23.008  0.00  0.00    +0.000 C 
ATOM     21  C   UNL     1      -4.694  14.660  22.391  0.00  0.00    +0.000 C 
ATOM     22  N   UNL     1      -3.353  14.847  21.952  0.00  0.00    +0.000 N 
ATOM     23  C   UNL     1      -3.352  15.715  20.892  0.00  0.00    +0.000 C 
ATOM     24  O   UNL     1      -4.263  15.778  20.073  0.00  0.00    +0.000 OA
ENDROOT
BRANCH   1  26
ATOM     25  C   UNL     1      -2.278  18.316  22.869  0.00  0.00    +0.000 C 
ATOM     26  S   UNL     1      -1.255  16.911  22.384  0.00  0.00    +0.000 S 
ENDBRANCH   1  26
BRANCH   8  27
ATOM     27  O   UNL     1       1.965  14.937  19.313  0.00  0.00    +0.000 OA
ATOM     28  H   UNL     1       1.697  14.303  19.998  0.00  0.00    +0.000 HD
ENDBRANCH   8  27
BRANCH  13  29
ATOM     29  S   UNL     1      -1.223  13.192  22.898  0.00  0.00    +0.000 S 
ATOM     30  C   UNL     1      -1.420  11.348  22.971  0.00  0.00    +0.000 C 
ENDBRANCH  13  29
BRANCH  20  31
ATOM     31  O   UNL     1      -5.603  16.924  22.028  0.00  0.00    +0.000 OA
ATOM     32  H   UNL     1      -6.274  17.531  22.402  0.00  0.00    +0.000 HD
ENDBRANCH  20  31
TORSDOF 4
ENDMDL
MODEL 8
REMARK VINA RESULT:      -5.9      5.339      8.084
REMARK  Name = 
REMARK  6 active torsions:
REMARK  status: ('A' for Active; 'I' for Inactive)
REMARK    1  A    between atoms: C_1  and  S_2
REMARK    2  A    between atoms: S_2  and  C_3
REMARK    3  A    between atoms: C_10  and  O_11
REMARK    4  A    between atoms: C_16  and  S_17
REMARK    5  A    between atoms: S_17  and  C_18
REMARK    6  A    between atoms: C_25  and  O_26
REMARK                            x       y       z     vdW  Elec       q    Type
REMARK                         _______ _______ _______ _____ _____    ______ ____
ROOT
ATOM      1  C   UNL     1       3.281  16.066  20.650  0.00  0.00    +0.000 C 
ATOM      2  C   UNL     1       1.862  15.570  20.875  0.00  0.00    +0.000 C 
ATOM      3  C   UNL     1       1.202  16.340  19.802  0.00  0.00    +0.000 C 
ATOM      4  C   UNL     1      -0.155  15.969  19.323  0.00  0.00    +0.000 C 
ATOM      5  O   UNL     1      -0.834  15.062  19.781  0.00  0.00    +0.000 OA
ATOM      6  C   UNL     1      -0.662  16.920  18.309  0.00  0.00    +0.000 C 
ATOM      7  C   UNL     1       0.241  17.727  17.713  0.00  0.00    +0.000 C 
ATOM      8  C   UNL     1       1.778  17.611  17.860  0.00  0.00    +0.000 C 
ATOM      9  C   UNL     1       2.157  16.275  18.580  0.00  0.00    +0.000 C 
ATOM     10  N   UNL     1       3.492  16.085  19.204  0.00  0.00    +0.000 N 
ATOM     11  C   UNL     1       4.666  15.353  18.704  0.00  0.00    +0.000 C 
ATOM     12  O   UNL     1       4.723  14.847  17.578  0.00  0.00    +0.000 OA
ATOM     13  C   UNL     1       6.052  15.472  19.752  0.00  0.00    +0.000 C 
ATOM     14  C   UNL     1       7.403  14.677  20.068  0.00  0.00    +0.000 C 
ATOM     15  C   UNL     1       7.623  14.973  21.628  0.00  0.00    +0.000 C 
ATOM     16  C   UNL     1       8.472  14.199  22.630  0.00  0.00    +0.000 C 
ATOM     17  O   UNL     1       9.523  13.655  22.340  0.00  0.00    +0.000 OA
ATOM     18  C   UNL     1       8.049  14.221  24.092  0.00  0.00    +0.000 C 
ATOM     19  C   UNL     1       6.796  14.611  24.464  0.00  0.00    +0.000 C 
ATOM     20  C   UNL     1       5.786  15.011  23.470  0.00  0.00    +0.000 C 
ATOM     21  C   UNL     1       6.228  14.669  22.043  0.00  0.00    +0.000 C 
ATOM     22  N   UNL     1       5.466  15.426  21.109  0.00  0.00    +0.000 N 
ATOM     23  C   UNL     1       4.167  14.992  21.143  0.00  0.00    +0.000 C 
ATOM     24  O   UNL     1       3.853  13.827  21.365  0.00  0.00    +0.000 OA
ENDROOT
BRANCH   1  26
ATOM     25  C   UNL     1       3.178  17.704  23.012  0.00  0.00    +0.000 C 
ATOM     26  S   UNL     1       3.654  17.780  21.274  0.00  0.00    +0.000 S 
ENDBRANCH   1  26
BRANCH   8  27
ATOM     27  O   UNL     1       2.372  17.695  16.578  0.00  0.00    +0.000 OA
ATOM     28  H   UNL     1       1.885  18.345  16.046  0.00  0.00    +0.000 HD
ENDBRANCH   8  27
BRANCH  13  29
ATOM     29  S   UNL     1       6.718  17.145  19.199  0.00  0.00    +0.000 S 
ATOM     30  C   UNL     1       8.220  16.563  18.277  0.00  0.00    +0.000 C 
ENDBRANCH  13  29
BRANCH  20  31
ATOM     31  O   UNL     1       4.564  14.372  23.840  0.00  0.00    +0.000 OA
ATOM     32  H   UNL     1       4.699  13.844  24.655  0.00  0.00    +0.000 HD
ENDBRANCH  20  31
TORSDOF 4
ENDMDL
MODEL 9
REMARK VINA RESULT:      -5.9      2.853      4.593
REMARK  Name = 
REMARK  6 active torsions:
REMARK  status: ('A' for Active; 'I' for Inactive)
REMARK    1  A    between atoms: C_1  and  S_2
REMARK    2  A    between atoms: S_2  and  C_3
REMARK    3  A    between atoms: C_10  and  O_11
REMARK    4  A    between atoms: C_16  and  S_17
REMARK    5  A    between atoms: S_17  and  C_18
REMARK    6  A    between atoms: C_25  and  O_26
REMARK                            x       y       z     vdW  Elec       q    Type
REMARK                         _______ _______ _______ _____ _____    ______ ____
ROOT
ATOM      1  C   UNL     1      -1.151  13.864  20.054  0.00  0.00    +0.000 C 
ATOM      2  C   UNL     1      -0.310  13.341  18.901  0.00  0.00    +0.000 C 
ATOM      3  C   UNL     1       0.981  13.934  19.301  0.00  0.00    +0.000 C 
ATOM      4  C   UNL     1       2.257  13.445  18.716  0.00  0.00    +0.000 C 
ATOM      5  O   UNL     1       2.347  12.576  17.861  0.00  0.00    +0.000 OA
ATOM      6  C   UNL     1       3.417  14.232  19.188  0.00  0.00    +0.000 C 
ATOM      7  C   UNL     1       3.242  14.993  20.289  0.00  0.00    +0.000 C 
ATOM      8  C   UNL     1       1.994  14.964  21.205  0.00  0.00    +0.000 C 
ATOM      9  C   UNL     1       1.077  13.752  20.839  0.00  0.00    +0.000 C 
ATOM     10  N   UNL     1      -0.346  13.704  21.263  0.00  0.00    +0.000 N 
ATOM     11  C   UNL     1      -0.971  12.965  22.371  0.00  0.00    +0.000 C 
ATOM     12  O   UNL     1      -0.327  12.319  23.206  0.00  0.00    +0.000 OA
ATOM     13  C   UNL     1      -2.675  13.281  22.537  0.00  0.00    +0.000 C 
ATOM     14  C   UNL     1      -3.980  12.594  23.159  0.00  0.00    +0.000 C 
ATOM     15  C   UNL     1      -5.140  13.100  22.176  0.00  0.00    +0.000 C 
ATOM     16  C   UNL     1      -6.525  12.501  21.955  0.00  0.00    +0.000 C 
ATOM     17  O   UNL     1      -7.175  11.971  22.840  0.00  0.00    +0.000 OA
ATOM     18  C   UNL     1      -7.178  12.695  20.594  0.00  0.00    +0.000 C 
ATOM     19  C   UNL     1      -6.452  13.075  19.504  0.00  0.00    +0.000 C 
ATOM     20  C   UNL     1      -4.998  13.297  19.586  0.00  0.00    +0.000 C 
ATOM     21  C   UNL     1      -4.420  12.792  20.912  0.00  0.00    +0.000 C 
ATOM     22  N   UNL     1      -3.147  13.387  21.140  0.00  0.00    +0.000 N 
ATOM     23  C   UNL     1      -2.262  12.904  20.213  0.00  0.00    +0.000 C 
ATOM     24  O   UNL     1      -2.316  11.766  19.759  0.00  0.00    +0.000 OA
ENDROOT
BRANCH   1  26
ATOM     25  C   UNL     1      -0.564  16.313  18.661  0.00  0.00    +0.000 C 
ATOM     26  S   UNL     1      -1.634  15.660  19.959  0.00  0.00    +0.000 S 
ENDBRANCH   1  26
BRANCH   8  27
ATOM     27  O   UNL     1       2.415  14.907  22.556  0.00  0.00    +0.000 OA
ATOM     28  H   UNL     1       2.102  14.077  22.949  0.00  0.00    +0.000 HD
ENDBRANCH   8  27
BRANCH  13  29
ATOM     29  S   UNL     1      -2.601  14.895  23.506  0.00  0.00    +0.000 S 
ATOM     30  C   UNL     1      -3.223  14.276  25.141  0.00  0.00    +0.000 C 
ENDBRANCH  13  29
BRANCH  20  31
ATOM     31  O   UNL     1      -4.417  12.659  18.449  0.00  0.00    +0.000 OA
ATOM     32  H   UNL     1      -4.838  12.992  17.629  0.00  0.00    +0.000 HD
ENDBRANCH  20  31
TORSDOF 4
ENDMDL
