MODEL 1
REMARK VINA RESULT:      -8.1      0.000      0.000
REMARK  Name = 
REMARK  7 active torsions:
REMARK  status: ('A' for Active; 'I' for Inactive)
REMARK    1  A    between atoms: C_1  and  C_2
REMARK    2  A    between atoms: C_4  and  C_5
REMARK    3  A    between atoms: N_7  and  C_8
REMARK    4  A    between atoms: C_8  and  C_9
REMARK    5  A    between atoms: C_9  and  C_10
REMARK    6  A    between atoms: C_10  and  N_11
REMARK    7  A    between atoms: C_12  and  C_14
REMARK                            x       y       z     vdW  Elec       q    Type
REMARK                         _______ _______ _______ _____ _____    ______ ____
ROOT
ATOM      1  N   UNL     1       6.488   6.503  17.667  0.00  0.00    +0.000 N 
ATOM      2  C   UNL     1       6.507   5.135  17.716  0.00  0.00    +0.000 C 
ATOM      3  O   UNL     1       7.530   4.463  17.574  0.00  0.00    +0.000 OA
ATOM      4  H   UNL     1       5.658   7.026  17.928  0.00  0.00    +0.000 HD
ENDROOT
BRANCH   2   5
ATOM      5  C   UNL     1       5.223   4.449  17.976  0.00  0.00    +0.000 A 
ATOM      6  C   UNL     1       4.364   4.265  16.888  0.00  0.00    +0.000 A 
ATOM      7  C   UNL     1       3.108   3.693  17.074  0.00  0.00    +0.000 A 
ATOM      8  C   UNL     1       2.688   3.341  18.359  0.00  0.00    +0.000 A 
ATOM      9  C   UNL     1       3.547   3.527  19.456  0.00  0.00    +0.000 A 
ATOM     10  C   UNL     1       4.827   4.061  19.263  0.00  0.00    +0.000 A 
ATOM     11  N   UNL     1       3.165   3.173  20.761  0.00  0.00    +0.000 N 
ATOM     12  C   UNL     1       1.885   2.888  21.167  0.00  0.00    +0.000 C 
ATOM     13  O   UNL     1       1.683   2.505  22.321  0.00  0.00    +0.000 OA
ATOM     14  C   UNL     1       0.750   3.217  20.221  0.00  0.00    +0.000 C 
ATOM     15  S   UNL     1       1.072   2.620  18.550  0.00  0.00    +0.000 S 
ATOM     16  H   UNL     1       3.863   3.104  21.490  0.00  0.00    +0.000 HD
ENDBRANCH   2   5
BRANCH   1  17
ATOM     17  C   UNL     1       7.699   7.249  17.398  0.00  0.00    +0.000 C 
BRANCH  17  18
ATOM     18  C   UNL     1       7.596   8.705  17.853  0.00  0.00    +0.000 C 
BRANCH  18  19
ATOM     19  C   UNL     1       8.874   9.204  18.547  0.00  0.00    +0.000 C 
BRANCH  19  26
ATOM     20  C   UNL     1       8.419  13.512  17.736  0.00  0.00    +0.000 C 
ATOM     21  C   UNL     1       9.766  12.888  18.124  0.00  0.00    +0.000 C 
ATOM     22  C   UNL     1      10.130  13.185  19.584  0.00  0.00    +0.000 C 
ATOM     23  C   UNL     1       9.202  12.433  20.539  0.00  0.00    +0.000 C 
ATOM     24  C   UNL     1       9.602  12.677  21.993  0.00  0.00    +0.000 C 
ATOM     25  C   UNL     1       9.212  10.937  20.214  0.00  0.00    +0.000 C 
ATOM     26  N   UNL     1       8.863  10.658  18.808  0.00  0.00    +0.000 NA
ATOM     27  C   UNL     1       9.773  11.366  17.888  0.00  0.00    +0.000 C 
ENDBRANCH  19  26
ENDBRANCH  18  19
ENDBRANCH  17  18
ENDBRANCH   1  17
TORSDOF 5
ENDMDL
MODEL 2
REMARK VINA RESULT:      -8.1      6.806      8.798
REMARK  Name = 
REMARK  7 active torsions:
REMARK  status: ('A' for Active; 'I' for Inactive)
REMARK    1  A    between atoms: C_1  and  C_2
REMARK    2  A    between atoms: C_4  and  C_5
REMARK    3  A    between atoms: N_7  and  C_8
REMARK    4  A    between atoms: C_8  and  C_9
REMARK    5  A    between atoms: C_9  and  C_10
REMARK    6  A    between atoms: C_10  and  N_11
REMARK    7  A    between atoms: C_12  and  C_14
REMARK                            x       y       z     vdW  Elec       q    Type
REMARK                         _______ _______ _______ _____ _____    ______ ____
ROOT
ATOM      1  N   UNL     1       1.193   9.304  19.654  0.00  0.00    +0.000 N 
ATOM      2  C   UNL     1       1.878   8.743  18.610  0.00  0.00    +0.000 C 
ATOM      3  O   UNL     1       2.057   9.309  17.530  0.00  0.00    +0.000 OA
ATOM      4  H   UNL     1       1.187   8.871  20.571  0.00  0.00    +0.000 HD
ENDROOT
BRANCH   2   5
ATOM      5  C   UNL     1       2.443   7.393  18.820  0.00  0.00    +0.000 A 
ATOM      6  C   UNL     1       3.298   6.895  17.832  0.00  0.00    +0.000 A 
ATOM      7  C   UNL     1       3.807   5.603  17.930  0.00  0.00    +0.000 A 
ATOM      8  C   UNL     1       3.429   4.786  18.998  0.00  0.00    +0.000 A 
ATOM      9  C   UNL     1       2.569   5.281  19.994  0.00  0.00    +0.000 A 
ATOM     10  C   UNL     1       2.091   6.596  19.919  0.00  0.00    +0.000 A 
ATOM     11  N   UNL     1       2.178   4.494  21.090  0.00  0.00    +0.000 N 
ATOM     12  C   UNL     1       2.331   3.134  21.189  0.00  0.00    +0.000 C 
ATOM     13  O   UNL     1       2.028   2.562  22.238  0.00  0.00    +0.000 OA
ATOM     14  C   UNL     1       2.715   2.369  19.941  0.00  0.00    +0.000 C 
ATOM     15  S   UNL     1       4.100   3.139  19.079  0.00  0.00    +0.000 S 
ATOM     16  H   UNL     1       1.750   4.930  21.897  0.00  0.00    +0.000 HD
ENDBRANCH   2   5
BRANCH   1  17
ATOM     17  C   UNL     1       0.592  10.615  19.522  0.00  0.00    +0.000 C 
BRANCH  17  18
ATOM     18  C   UNL     1      -0.752  10.712  20.245  0.00  0.00    +0.000 C 
BRANCH  18  19
ATOM     19  C   UNL     1      -1.688  11.762  19.624  0.00  0.00    +0.000 C 
BRANCH  19  26
ATOM     20  C   UNL     1      -2.818   9.564  15.976  0.00  0.00    +0.000 C 
ATOM     21  C   UNL     1      -2.997  11.082  16.108  0.00  0.00    +0.000 C 
ATOM     22  C   UNL     1      -4.462  11.461  16.352  0.00  0.00    +0.000 C 
ATOM     23  C   UNL     1      -4.914  11.017  17.744  0.00  0.00    +0.000 C 
ATOM     24  C   UNL     1      -6.354  11.450  18.014  0.00  0.00    +0.000 C 
ATOM     25  C   UNL     1      -3.968  11.577  18.808  0.00  0.00    +0.000 C 
ATOM     26  N   UNL     1      -2.559  11.210  18.567  0.00  0.00    +0.000 NA
ATOM     27  C   UNL     1      -2.118  11.660  17.233  0.00  0.00    +0.000 C 
ENDBRANCH  19  26
ENDBRANCH  18  19
ENDBRANCH  17  18
ENDBRANCH   1  17
TORSDOF 5
ENDMDL
MODEL 3
REMARK VINA RESULT:      -8.0      4.857      7.174
REMARK  Name = 
REMARK  7 active torsions:
REMARK  status: ('A' for Active; 'I' for Inactive)
REMARK    1  A    between atoms: C_1  and  C_2
REMARK    2  A    between atoms: C_4  and  C_5
REMARK    3  A    between atoms: N_7  and  C_8
REMARK    4  A    between atoms: C_8  and  C_9
REMARK    5  A    between atoms: C_9  and  C_10
REMARK    6  A    between atoms: C_10  and  N_11
REMARK    7  A    between atoms: C_12  and  C_14
REMARK                            x       y       z     vdW  Elec       q    Type
REMARK                         _______ _______ _______ _____ _____    ______ ____
ROOT
ATOM      1  N   UNL     1       2.151   4.258  19.323  0.00  0.00    +0.000 N 
ATOM      2  C   UNL     1       2.211   5.191  20.323  0.00  0.00    +0.000 C 
ATOM      3  O   UNL     1       2.533   4.926  21.482  0.00  0.00    +0.000 OA
ATOM      4  H   UNL     1       2.021   4.533  18.355  0.00  0.00    +0.000 HD
ENDROOT
BRANCH   2   5
ATOM      5  C   UNL     1       1.889   6.588  19.963  0.00  0.00    +0.000 A 
ATOM      6  C   UNL     1       2.295   7.035  18.701  0.00  0.00    +0.000 A 
ATOM      7  C   UNL     1       2.090   8.360  18.326  0.00  0.00    +0.000 A 
ATOM      8  C   UNL     1       1.515   9.257  19.229  0.00  0.00    +0.000 A 
ATOM      9  C   UNL     1       1.107   8.814  20.499  0.00  0.00    +0.000 A 
ATOM     10  C   UNL     1       1.273   7.471  20.861  0.00  0.00    +0.000 A 
ATOM     11  N   UNL     1       0.512   9.684  21.428  0.00  0.00    +0.000 N 
ATOM     12  C   UNL     1       0.510  11.054  21.350  0.00  0.00    +0.000 C 
ATOM     13  O   UNL     1      -0.120  11.711  22.181  0.00  0.00    +0.000 OA
ATOM     14  C   UNL     1       1.422  11.708  20.334  0.00  0.00    +0.000 C 
ATOM     15  S   UNL     1       1.278  10.942  18.707  0.00  0.00    +0.000 S 
ATOM     16  H   UNL     1       0.029   9.308  22.234  0.00  0.00    +0.000 HD
ENDBRANCH   2   5
BRANCH   1  17
ATOM     17  C   UNL     1       2.433   2.864  19.597  0.00  0.00    +0.000 C 
BRANCH  17  18
ATOM     18  C   UNL     1       3.786   2.425  19.036  0.00  0.00    +0.000 C 
BRANCH  18  19
ATOM     19  C   UNL     1       3.988   2.846  17.571  0.00  0.00    +0.000 C 
BRANCH  19  26
ATOM     20  C   UNL     1       4.884   6.846  15.953  0.00  0.00    +0.000 C 
ATOM     21  C   UNL     1       5.889   5.690  15.886  0.00  0.00    +0.000 C 
ATOM     22  C   UNL     1       7.004   5.844  16.927  0.00  0.00    +0.000 C 
ATOM     23  C   UNL     1       6.458   5.641  18.341  0.00  0.00    +0.000 C 
ATOM     24  C   UNL     1       7.577   5.732  19.376  0.00  0.00    +0.000 C 
ATOM     25  C   UNL     1       5.734   4.296  18.437  0.00  0.00    +0.000 C 
ATOM     26  N   UNL     1       4.664   4.153  17.431  0.00  0.00    +0.000 NA
ATOM     27  C   UNL     1       5.197   4.326  16.067  0.00  0.00    +0.000 C 
ENDBRANCH  19  26
ENDBRANCH  18  19
ENDBRANCH  17  18
ENDBRANCH   1  17
TORSDOF 5
ENDMDL
MODEL 4
REMARK VINA RESULT:      -7.9      4.612      7.346
REMARK  Name = 
REMARK  7 active torsions:
REMARK  status: ('A' for Active; 'I' for Inactive)
REMARK    1  A    between atoms: C_1  and  C_2
REMARK    2  A    between atoms: C_4  and  C_5
REMARK    3  A    between atoms: N_7  and  C_8
REMARK    4  A    between atoms: C_8  and  C_9
REMARK    5  A    between atoms: C_9  and  C_10
REMARK    6  A    between atoms: C_10  and  N_11
REMARK    7  A    between atoms: C_12  and  C_14
REMARK                            x       y       z     vdW  Elec       q    Type
REMARK                         _______ _______ _______ _____ _____    ______ ____
ROOT
ATOM      1  N   UNL     1       2.262   4.494  19.007  0.00  0.00    +0.000 N 
ATOM      2  C   UNL     1       2.163   5.337  20.081  0.00  0.00    +0.000 C 
ATOM      3  O   UNL     1       2.365   4.984  21.244  0.00  0.00    +0.000 OA
ATOM      4  H   UNL     1       2.229   4.848  18.056  0.00  0.00    +0.000 HD
ENDROOT
BRANCH   2   5
ATOM      5  C   UNL     1       1.816   6.747  19.803  0.00  0.00    +0.000 A 
ATOM      6  C   UNL     1       2.172   7.260  18.552  0.00  0.00    +0.000 A 
ATOM      7  C   UNL     1       1.942   8.601  18.252  0.00  0.00    +0.000 A 
ATOM      8  C   UNL     1       1.391   9.445  19.218  0.00  0.00    +0.000 A 
ATOM      9  C   UNL     1       1.033   8.935  20.478  0.00  0.00    +0.000 A 
ATOM     10  C   UNL     1       1.224   7.578  20.766  0.00  0.00    +0.000 A 
ATOM     11  N   UNL     1       0.465   9.751  21.471  0.00  0.00    +0.000 N 
ATOM     12  C   UNL     1       0.448  11.123  21.461  0.00  0.00    +0.000 C 
ATOM     13  O   UNL     1      -0.158  11.731  22.346  0.00  0.00    +0.000 OA
ATOM     14  C   UNL     1       1.317  11.837  20.448  0.00  0.00    +0.000 C 
ATOM     15  S   UNL     1       1.121  11.152  18.791  0.00  0.00    +0.000 S 
ATOM     16  H   UNL     1       0.015   9.330  22.273  0.00  0.00    +0.000 HD
ENDBRANCH   2   5
BRANCH   1  17
ATOM     17  C   UNL     1       2.578   3.094  19.195  0.00  0.00    +0.000 C 
BRANCH  17  18
ATOM     18  C   UNL     1       3.973   2.741  18.676  0.00  0.00    +0.000 C 
BRANCH  18  19
ATOM     19  C   UNL     1       5.060   3.700  19.188  0.00  0.00    +0.000 C 
BRANCH  19  26
ATOM     20  C   UNL     1       7.392   6.946  17.332  0.00  0.00    +0.000 C 
ATOM     21  C   UNL     1       5.872   6.829  17.165  0.00  0.00    +0.000 C 
ATOM     22  C   UNL     1       5.492   6.290  15.781  0.00  0.00    +0.000 C 
ATOM     23  C   UNL     1       5.889   4.819  15.643  0.00  0.00    +0.000 C 
ATOM     24  C   UNL     1       5.455   4.261  14.289  0.00  0.00    +0.000 C 
ATOM     25  C   UNL     1       5.286   4.002  16.789  0.00  0.00    +0.000 C 
ATOM     26  N   UNL     1       5.654   4.527  18.118  0.00  0.00    +0.000 NA
ATOM     27  C   UNL     1       5.249   5.939  18.257  0.00  0.00    +0.000 C 
ENDBRANCH  19  26
ENDBRANCH  18  19
ENDBRANCH  17  18
ENDBRANCH   1  17
TORSDOF 5
ENDMDL
MODEL 5
REMARK VINA RESULT:      -7.8      7.698     10.274
REMARK  Name = 
REMARK  7 active torsions:
REMARK  status: ('A' for Active; 'I' for Inactive)
REMARK    1  A    between atoms: C_1  and  C_2
REMARK    2  A    between atoms: C_4  and  C_5
REMARK    3  A    between atoms: N_7  and  C_8
REMARK    4  A    between atoms: C_8  and  C_9
REMARK    5  A    between atoms: C_9  and  C_10
REMARK    6  A    between atoms: C_10  and  N_11
REMARK    7  A    between atoms: C_12  and  C_14
REMARK                            x       y       z     vdW  Elec       q    Type
REMARK                         _______ _______ _______ _____ _____    ______ ____
ROOT
ATOM      1  N   UNL     1       0.820   9.590  18.006  0.00  0.00    +0.000 N 
ATOM      2  C   UNL     1       0.263  10.783  18.381  0.00  0.00    +0.000 C 
ATOM      3  O   UNL     1       0.923  11.773  18.700  0.00  0.00    +0.000 OA
ATOM      4  H   UNL     1       0.253   8.845  17.615  0.00  0.00    +0.000 HD
ENDROOT
BRANCH   2   5
ATOM      5  C   UNL     1      -1.213  10.871  18.375  0.00  0.00    +0.000 A 
ATOM      6  C   UNL     1      -1.898  10.073  17.452  0.00  0.00    +0.000 A 
ATOM      7  C   UNL     1      -3.284  10.161  17.342  0.00  0.00    +0.000 A 
ATOM      8  C   UNL     1      -3.988  11.077  18.125  0.00  0.00    +0.000 A 
ATOM      9  C   UNL     1      -3.303  11.883  19.053  0.00  0.00    +0.000 A 
ATOM     10  C   UNL     1      -1.916  11.765  19.196  0.00  0.00    +0.000 A 
ATOM     11  N   UNL     1      -3.979  12.807  19.868  0.00  0.00    +0.000 N 
ATOM     12  C   UNL     1      -5.270  13.236  19.685  0.00  0.00    +0.000 C 
ATOM     13  O   UNL     1      -5.786  13.985  20.517  0.00  0.00    +0.000 OA
ATOM     14  C   UNL     1      -5.953  12.898  18.377  0.00  0.00    +0.000 C 
ATOM     15  S   UNL     1      -5.756  11.158  17.944  0.00  0.00    +0.000 S 
ATOM     16  H   UNL     1      -3.512  13.207  20.670  0.00  0.00    +0.000 HD
ENDBRANCH   2   5
BRANCH   1  17
ATOM     17  C   UNL     1       2.258   9.417  18.004  0.00  0.00    +0.000 C 
BRANCH  17  18
ATOM     18  C   UNL     1       2.663   7.943  17.942  0.00  0.00    +0.000 C 
BRANCH  18  19
ATOM     19  C   UNL     1       2.428   7.204  19.270  0.00  0.00    +0.000 C 
BRANCH  19  26
ATOM     20  C   UNL     1       3.465   3.303  17.502  0.00  0.00    +0.000 C 
ATOM     21  C   UNL     1       2.013   3.747  17.716  0.00  0.00    +0.000 C 
ATOM     22  C   UNL     1       1.378   3.048  18.923  0.00  0.00    +0.000 C 
ATOM     23  C   UNL     1       2.003   3.543  20.228  0.00  0.00    +0.000 C 
ATOM     24  C   UNL     1       1.329   2.896  21.437  0.00  0.00    +0.000 C 
ATOM     25  C   UNL     1       1.915   5.069  20.308  0.00  0.00    +0.000 C 
ATOM     26  N   UNL     1       2.526   5.736  19.141  0.00  0.00    +0.000 NA
ATOM     27  C   UNL     1       1.906   5.274  17.886  0.00  0.00    +0.000 C 
ENDBRANCH  19  26
ENDBRANCH  18  19
ENDBRANCH  17  18
ENDBRANCH   1  17
TORSDOF 5
ENDMDL
MODEL 6
REMARK VINA RESULT:      -7.8      4.323      9.922
REMARK  Name = 
REMARK  7 active torsions:
REMARK  status: ('A' for Active; 'I' for Inactive)
REMARK    1  A    between atoms: C_1  and  C_2
REMARK    2  A    between atoms: C_4  and  C_5
REMARK    3  A    between atoms: N_7  and  C_8
REMARK    4  A    between atoms: C_8  and  C_9
REMARK    5  A    between atoms: C_9  and  C_10
REMARK    6  A    between atoms: C_10  and  N_11
REMARK    7  A    between atoms: C_12  and  C_14
REMARK                            x       y       z     vdW  Elec       q    Type
REMARK                         _______ _______ _______ _____ _____    ______ ____
ROOT
ATOM      1  N   UNL     1       8.539   7.766  18.771  0.00  0.00    +0.000 N 
ATOM      2  C   UNL     1       8.236   8.927  18.113  0.00  0.00    +0.000 C 
ATOM      3  O   UNL     1       7.462   8.986  17.156  0.00  0.00    +0.000 OA
ATOM      4  H   UNL     1       9.065   7.775  19.638  0.00  0.00    +0.000 HD
ENDROOT
BRANCH   2   5
ATOM      5  C   UNL     1       8.867  10.169  18.609  0.00  0.00    +0.000 A 
ATOM      6  C   UNL     1       9.337  10.166  19.926  0.00  0.00    +0.000 A 
ATOM      7  C   UNL     1       9.875  11.324  20.482  0.00  0.00    +0.000 A 
ATOM      8  C   UNL     1       9.907  12.504  19.735  0.00  0.00    +0.000 A 
ATOM      9  C   UNL     1       9.434  12.512  18.411  0.00  0.00    +0.000 A 
ATOM     10  C   UNL     1       8.933  11.338  17.837  0.00  0.00    +0.000 A 
ATOM     11  N   UNL     1       9.463  13.676  17.624  0.00  0.00    +0.000 N 
ATOM     12  C   UNL     1       9.669  14.950  18.092  0.00  0.00    +0.000 C 
ATOM     13  O   UNL     1       9.759  15.885  17.294  0.00  0.00    +0.000 OA
ATOM     14  C   UNL     1       9.614  15.175  19.588  0.00  0.00    +0.000 C 
ATOM     15  S   UNL     1      10.599  13.961  20.489  0.00  0.00    +0.000 S 
ATOM     16  H   UNL     1       9.331  13.612  16.623  0.00  0.00    +0.000 HD
ENDBRANCH   2   5
BRANCH   1  17
ATOM     17  C   UNL     1       7.978   6.504  18.335  0.00  0.00    +0.000 C 
BRANCH  17  18
ATOM     18  C   UNL     1       7.228   5.785  19.458  0.00  0.00    +0.000 C 
BRANCH  18  19
ATOM     19  C   UNL     1       6.203   4.766  18.932  0.00  0.00    +0.000 C 
BRANCH  19  26
ATOM     20  C   UNL     1       2.214   4.681  20.804  0.00  0.00    +0.000 C 
ATOM     21  C   UNL     1       2.428   4.386  19.314  0.00  0.00    +0.000 C 
ATOM     22  C   UNL     1       2.007   5.570  18.435  0.00  0.00    +0.000 C 
ATOM     23  C   UNL     1       2.966   6.747  18.614  0.00  0.00    +0.000 C 
ATOM     24  C   UNL     1       2.587   7.906  17.693  0.00  0.00    +0.000 C 
ATOM     25  C   UNL     1       4.407   6.297  18.358  0.00  0.00    +0.000 C 
ATOM     26  N   UNL     1       4.805   5.156  19.206  0.00  0.00    +0.000 NA
ATOM     27  C   UNL     1       3.892   4.014  19.014  0.00  0.00    +0.000 C 
ENDBRANCH  19  26
ENDBRANCH  18  19
ENDBRANCH  17  18
ENDBRANCH   1  17
TORSDOF 5
ENDMDL
MODEL 7
REMARK VINA RESULT:      -7.7      4.074      9.879
REMARK  Name = 
REMARK  7 active torsions:
REMARK  status: ('A' for Active; 'I' for Inactive)
REMARK    1  A    between atoms: C_1  and  C_2
REMARK    2  A    between atoms: C_4  and  C_5
REMARK    3  A    between atoms: N_7  and  C_8
REMARK    4  A    between atoms: C_8  and  C_9
REMARK    5  A    between atoms: C_9  and  C_10
REMARK    6  A    between atoms: C_10  and  N_11
REMARK    7  A    between atoms: C_12  and  C_14
REMARK                            x       y       z     vdW  Elec       q    Type
REMARK                         _______ _______ _______ _____ _____    ______ ____
ROOT
ATOM      1  N   UNL     1       8.353   7.495  18.778  0.00  0.00    +0.000 N 
ATOM      2  C   UNL     1       8.147   8.579  17.967  0.00  0.00    +0.000 C 
ATOM      3  O   UNL     1       7.549   8.520  16.892  0.00  0.00    +0.000 OA
ATOM      4  H   UNL     1       8.721   7.605  19.717  0.00  0.00    +0.000 HD
ENDROOT
BRANCH   2   5
ATOM      5  C   UNL     1       8.661   9.883  18.438  0.00  0.00    +0.000 A 
ATOM      6  C   UNL     1       9.356   9.896  19.652  0.00  0.00    +0.000 A 
ATOM      7  C   UNL     1       9.804  11.100  20.191  0.00  0.00    +0.000 A 
ATOM      8  C   UNL     1       9.520  12.302  19.539  0.00  0.00    +0.000 A 
ATOM      9  C   UNL     1       8.819  12.294  18.320  0.00  0.00    +0.000 A 
ATOM     10  C   UNL     1       8.407  11.080  17.755  0.00  0.00    +0.000 A 
ATOM     11  N   UNL     1       8.527  13.482  17.628  0.00  0.00    +0.000 N 
ATOM     12  C   UNL     1       8.618  14.749  18.148  0.00  0.00    +0.000 C 
ATOM     13  O   UNL     1       8.418  15.722  17.417  0.00  0.00    +0.000 OA
ATOM     14  C   UNL     1       8.800  14.893  19.643  0.00  0.00    +0.000 C 
ATOM     15  S   UNL     1      10.105  13.816  20.269  0.00  0.00    +0.000 S 
ATOM     16  H   UNL     1       8.227  13.443  16.663  0.00  0.00    +0.000 HD
ENDBRANCH   2   5
BRANCH   1  17
ATOM     17  C   UNL     1       7.898   6.179  18.380  0.00  0.00    +0.000 C 
BRANCH  17  18
ATOM     18  C   UNL     1       6.498   5.865  18.910  0.00  0.00    +0.000 C 
BRANCH  18  19
ATOM     19  C   UNL     1       6.136   4.376  18.789  0.00  0.00    +0.000 C 
BRANCH  19  26
ATOM     20  C   UNL     1       2.305   2.386  17.903  0.00  0.00    +0.000 C 
ATOM     21  C   UNL     1       2.627   3.803  17.413  0.00  0.00    +0.000 C 
ATOM     22  C   UNL     1       1.899   4.869  18.240  0.00  0.00    +0.000 C 
ATOM     23  C   UNL     1       2.471   4.941  19.657  0.00  0.00    +0.000 C 
ATOM     24  C   UNL     1       1.791   6.045  20.465  0.00  0.00    +0.000 C 
ATOM     25  C   UNL     1       3.985   5.159  19.602  0.00  0.00    +0.000 C 
ATOM     26  N   UNL     1       4.679   4.130  18.803  0.00  0.00    +0.000 NA
ATOM     27  C   UNL     1       4.141   4.079  17.430  0.00  0.00    +0.000 C 
ENDBRANCH  19  26
ENDBRANCH  18  19
ENDBRANCH  17  18
ENDBRANCH   1  17
TORSDOF 5
ENDMDL
MODEL 8
REMARK VINA RESULT:      -7.7      4.152     10.098
REMARK  Name = 
REMARK  7 active torsions:
REMARK  status: ('A' for Active; 'I' for Inactive)
REMARK    1  A    between atoms: C_1  and  C_2
REMARK    2  A    between atoms: C_4  and  C_5
REMARK    3  A    between atoms: N_7  and  C_8
REMARK    4  A    between atoms: C_8  and  C_9
REMARK    5  A    between atoms: C_9  and  C_10
REMARK    6  A    between atoms: C_10  and  N_11
REMARK    7  A    between atoms: C_12  and  C_14
REMARK                            x       y       z     vdW  Elec       q    Type
REMARK                         _______ _______ _______ _____ _____    ______ ____
ROOT
ATOM      1  N   UNL     1       8.448   7.484  18.751  0.00  0.00    +0.000 N 
ATOM      2  C   UNL     1       8.195   8.662  18.102  0.00  0.00    +0.000 C 
ATOM      3  O   UNL     1       7.439   8.758  17.134  0.00  0.00    +0.000 OA
ATOM      4  H   UNL     1       8.962   7.466  19.625  0.00  0.00    +0.000 HD
ENDROOT
BRANCH   2   5
ATOM      5  C   UNL     1       8.861   9.876  18.621  0.00  0.00    +0.000 A 
ATOM      6  C   UNL     1       9.017   9.977  20.008  0.00  0.00    +0.000 A 
ATOM      7  C   UNL     1       9.569  11.125  20.570  0.00  0.00    +0.000 A 
ATOM      8  C   UNL     1       9.928  12.197  19.750  0.00  0.00    +0.000 A 
ATOM      9  C   UNL     1       9.771  12.102  18.356  0.00  0.00    +0.000 A 
ATOM     10  C   UNL     1       9.257  10.930  17.786  0.00  0.00    +0.000 A 
ATOM     11  N   UNL     1      10.134  13.154  17.499  0.00  0.00    +0.000 N 
ATOM     12  C   UNL     1      10.400  14.443  17.887  0.00  0.00    +0.000 C 
ATOM     13  O   UNL     1      10.793  15.261  17.054  0.00  0.00    +0.000 OA
ATOM     14  C   UNL     1      10.040  14.848  19.301  0.00  0.00    +0.000 C 
ATOM     15  S   UNL     1      10.623  13.647  20.514  0.00  0.00    +0.000 S 
ATOM     16  H   UNL     1      10.223  12.987  16.505  0.00  0.00    +0.000 HD
ENDBRANCH   2   5
BRANCH   1  17
ATOM     17  C   UNL     1       7.851   6.246  18.292  0.00  0.00    +0.000 C 
BRANCH  17  18
ATOM     18  C   UNL     1       6.772   5.735  19.248  0.00  0.00    +0.000 C 
BRANCH  18  19
ATOM     19  C   UNL     1       6.002   4.529  18.685  0.00  0.00    +0.000 C 
BRANCH  19  26
ATOM     20  C   UNL     1       2.276   6.830  18.193  0.00  0.00    +0.000 C 
ATOM     21  C   UNL     1       2.561   5.987  19.443  0.00  0.00    +0.000 C 
ATOM     22  C   UNL     1       1.769   4.674  19.436  0.00  0.00    +0.000 C 
ATOM     23  C   UNL     1       2.293   3.730  18.352  0.00  0.00    +0.000 C 
ATOM     24  C   UNL     1       1.549   2.397  18.383  0.00  0.00    +0.000 C 
ATOM     25  C   UNL     1       3.800   3.518  18.523  0.00  0.00    +0.000 C 
ATOM     26  N   UNL     1       4.555   4.786  18.531  0.00  0.00    +0.000 NA
ATOM     27  C   UNL     1       4.064   5.685  19.591  0.00  0.00    +0.000 C 
ENDBRANCH  19  26
ENDBRANCH  18  19
ENDBRANCH  17  18
ENDBRANCH   1  17
TORSDOF 5
ENDMDL
MODEL 9
REMARK VINA RESULT:      -7.7      1.962      2.362
REMARK  Name = 
REMARK  7 active torsions:
REMARK  status: ('A' for Active; 'I' for Inactive)
REMARK    1  A    between atoms: C_1  and  C_2
REMARK    2  A    between atoms: C_4  and  C_5
REMARK    3  A    between atoms: N_7  and  C_8
REMARK    4  A    between atoms: C_8  and  C_9
REMARK    5  A    between atoms: C_9  and  C_10
REMARK    6  A    between atoms: C_10  and  N_11
REMARK    7  A    between atoms: C_12  and  C_14
REMARK                            x       y       z     vdW  Elec       q    Type
REMARK                         _______ _______ _______ _____ _____    ______ ____
ROOT
ATOM      1  N   UNL     1       7.152   8.055  17.790  0.00  0.00    +0.000 N 
ATOM      2  C   UNL     1       6.935   6.940  17.025  0.00  0.00    +0.000 C 
ATOM      3  O   UNL     1       7.729   6.533  16.176  0.00  0.00    +0.000 OA
ATOM      4  H   UNL     1       6.547   8.279  18.574  0.00  0.00    +0.000 HD
ENDROOT
BRANCH   2   5
ATOM      5  C   UNL     1       5.684   6.189  17.265  0.00  0.00    +0.000 A 
ATOM      6  C   UNL     1       4.504   6.931  17.385  0.00  0.00    +0.000 A 
ATOM      7  C   UNL     1       3.302   6.294  17.684  0.00  0.00    +0.000 A 
ATOM      8  C   UNL     1       3.282   4.916  17.906  0.00  0.00    +0.000 A 
ATOM      9  C   UNL     1       4.466   4.166  17.788  0.00  0.00    +0.000 A 
ATOM     10  C   UNL     1       5.666   4.799  17.444  0.00  0.00    +0.000 A 
ATOM     11  N   UNL     1       4.481   2.775  17.991  0.00  0.00    +0.000 N 
ATOM     12  C   UNL     1       3.479   2.044  18.577  0.00  0.00    +0.000 C 
ATOM     13  O   UNL     1       3.568   0.815  18.622  0.00  0.00    +0.000 OA
ATOM     14  C   UNL     1       2.376   2.795  19.292  0.00  0.00    +0.000 C 
ATOM     15  S   UNL     1       1.724   4.147  18.292  0.00  0.00    +0.000 S 
ATOM     16  H   UNL     1       5.278   2.231  17.687  0.00  0.00    +0.000 HD
ENDBRANCH   2   5
BRANCH   1  17
ATOM     17  C   UNL     1       8.343   8.857  17.605  0.00  0.00    +0.000 C 
BRANCH  17  18
ATOM     18  C   UNL     1       8.238  10.218  18.293  0.00  0.00    +0.000 C 
BRANCH  18  19
ATOM     19  C   UNL     1       9.446  10.525  19.193  0.00  0.00    +0.000 C 
BRANCH  19  26
ATOM     20  C   UNL     1      11.461  13.685  16.874  0.00  0.00    +0.000 C 
ATOM     21  C   UNL     1      12.115  13.016  18.089  0.00  0.00    +0.000 C 
ATOM     22  C   UNL     1      12.080  13.923  19.325  0.00  0.00    +0.000 C 
ATOM     23  C   UNL     1      10.650  14.079  19.844  0.00  0.00    +0.000 C 
ATOM     24  C   UNL     1      10.619  14.931  21.111  0.00  0.00    +0.000 C 
ATOM     25  C   UNL     1      10.028  12.703  20.096  0.00  0.00    +0.000 C 
ATOM     26  N   UNL     1      10.067  11.834  18.903  0.00  0.00    +0.000 NA
ATOM     27  C   UNL     1      11.450  11.666  18.419  0.00  0.00    +0.000 C 
ENDBRANCH  19  26
ENDBRANCH  18  19
ENDBRANCH  17  18
ENDBRANCH   1  17
TORSDOF 5
ENDMDL
