MODEL 1
REMARK VINA RESULT:      -6.9      0.000      0.000
REMARK  Name = 
REMARK  6 active torsions:
REMARK  status: ('A' for Active; 'I' for Inactive)
REMARK    1  A    between atoms: C_1  and  C_2
REMARK    2  A    between atoms: C_4  and  C_5
REMARK    3  A    between atoms: C_12  and  C_14
REMARK    4  A    between atoms: C_14  and  C_15
REMARK    5  A    between atoms: N_18  and  C_19
REMARK    6  A    between atoms: N_22  and  C_23
REMARK                            x       y       z     vdW  Elec       q    Type
REMARK                         _______ _______ _______ _____ _____    ______ ____
ROOT
ATOM      1  C   UNL     1       3.800   2.231  19.073  0.00  0.00    +0.000 C 
ATOM      2  C   UNL     1       4.030   3.478  18.278  0.00  0.00    +0.000 A 
ATOM      3  C   UNL     1       4.628   3.446  17.041  0.00  0.00    +0.000 A 
ATOM      4  C   UNL     1       4.745   4.657  16.392  0.00  0.00    +0.000 A 
ATOM      5  C   UNL     1       5.353   4.747  15.028  0.00  0.00    +0.000 C 
ATOM      6  N   UNL     1       4.297   5.813  16.927  0.00  0.00    +0.000 NA
ATOM      7  C   UNL     1       3.710   5.767  18.133  0.00  0.00    +0.000 A 
ATOM      8  N   UNL     1       3.200   6.943  18.692  0.00  0.00    +0.000 N 
ATOM      9  C   UNL     1       2.114   6.682  19.654  0.00  0.00    +0.000 C 
ATOM     10  C   UNL     1       1.740   7.979  20.377  0.00  0.00    +0.000 C 
ATOM     11  N   UNL     1       1.389   9.038  19.427  0.00  0.00    +0.000 N 
ATOM     12  C   UNL     1       0.239   9.770  19.657  0.00  0.00    +0.000 C 
ATOM     13  O   UNL     1      -0.593   9.423  20.497  0.00  0.00    +0.000 OA
ATOM     14  C   UNL     1       2.424   9.294  18.413  0.00  0.00    +0.000 C 
ATOM     15  C   UNL     1       2.899   7.998  17.711  0.00  0.00    +0.000 C 
ATOM     16  N   UNL     1       3.585   4.623  18.826  0.00  0.00    +0.000 NA
ENDROOT
BRANCH  12  17
ATOM     17  C   UNL     1      -0.032  10.982  18.791  0.00  0.00    +0.000 C 
BRANCH  17  18
ATOM     18  C   UNL     1       0.272  12.251  19.572  0.00  0.00    +0.000 C 
ATOM     19  C   UNL     1       1.371  13.104  18.929  0.00  0.00    +0.000 C 
ATOM     20  O   UNL     1       2.428  12.691  18.471  0.00  0.00    +0.000 OA
ATOM     21  N   UNL     1       0.987  14.416  18.991  0.00  0.00    +0.000 N 
ATOM     22  C   UNL     1       1.804  15.539  18.615  0.00  0.00    +0.000 C 
ATOM     23  C   UNL     1      -0.316  14.518  19.368  0.00  0.00    +0.000 C 
ATOM     24  O   UNL     1      -0.967  15.551  19.455  0.00  0.00    +0.000 OA
ATOM     25  N   UNL     1      -0.801  13.236  19.602  0.00  0.00    +0.000 N 
ATOM     26  C   UNL     1      -2.106  12.960  20.154  0.00  0.00    +0.000 C 
ENDBRANCH  17  18
ENDBRANCH  12  17
TORSDOF 2
ENDMDL
MODEL 2
REMARK VINA RESULT:      -6.8      1.502      1.933
REMARK  Name = 
REMARK  6 active torsions:
REMARK  status: ('A' for Active; 'I' for Inactive)
REMARK    1  A    between atoms: C_1  and  C_2
REMARK    2  A    between atoms: C_4  and  C_5
REMARK    3  A    between atoms: C_12  and  C_14
REMARK    4  A    between atoms: C_14  and  C_15
REMARK    5  A    between atoms: N_18  and  C_19
REMARK    6  A    between atoms: N_22  and  C_23
REMARK                            x       y       z     vdW  Elec       q    Type
REMARK                         _______ _______ _______ _____ _____    ______ ____
ROOT
ATOM      1  C   UNL     1       1.513   2.626  21.537  0.00  0.00    +0.000 C 
ATOM      2  C   UNL     1       2.028   3.538  20.467  0.00  0.00    +0.000 A 
ATOM      3  C   UNL     1       2.537   3.053  19.287  0.00  0.00    +0.000 A 
ATOM      4  C   UNL     1       2.939   3.997  18.366  0.00  0.00    +0.000 A 
ATOM      5  C   UNL     1       3.485   3.592  17.032  0.00  0.00    +0.000 C 
ATOM      6  N   UNL     1       2.839   5.324  18.596  0.00  0.00    +0.000 NA
ATOM      7  C   UNL     1       2.318   5.726  19.765  0.00  0.00    +0.000 A 
ATOM      8  N   UNL     1       2.164   7.094  20.013  0.00  0.00    +0.000 N 
ATOM      9  C   UNL     1       1.094   7.371  20.988  0.00  0.00    +0.000 C 
ATOM     10  C   UNL     1       1.112   8.854  21.367  0.00  0.00    +0.000 C 
ATOM     11  N   UNL     1       1.009   9.710  20.181  0.00  0.00    +0.000 N 
ATOM     12  C   UNL     1       0.106  10.756  20.205  0.00  0.00    +0.000 C 
ATOM     13  O   UNL     1      -0.748  10.856  21.088  0.00  0.00    +0.000 OA
ATOM     14  C   UNL     1       2.026   9.429  19.156  0.00  0.00    +0.000 C 
ATOM     15  C   UNL     1       2.107   7.924  18.800  0.00  0.00    +0.000 C 
ATOM     16  N   UNL     1       1.927   4.857  20.713  0.00  0.00    +0.000 NA
ENDROOT
BRANCH  12  17
ATOM     17  C   UNL     1       0.125  11.753  19.066  0.00  0.00    +0.000 C 
BRANCH  17  18
ATOM     18  C   UNL     1       0.895  12.996  19.482  0.00  0.00    +0.000 C 
ATOM     19  C   UNL     1       2.073  13.313  18.555  0.00  0.00    +0.000 C 
ATOM     20  O   UNL     1       2.884  12.507  18.119  0.00  0.00    +0.000 OA
ATOM     21  N   UNL     1       2.090  14.663  18.328  0.00  0.00    +0.000 N 
ATOM     22  C   UNL     1       3.121  15.373  17.618  0.00  0.00    +0.000 C 
ATOM     23  C   UNL     1       0.946  15.241  18.785  0.00  0.00    +0.000 C 
ATOM     24  O   UNL     1       0.636  16.420  18.674  0.00  0.00    +0.000 OA
ATOM     25  N   UNL     1       0.163  14.251  19.367  0.00  0.00    +0.000 N 
ATOM     26  C   UNL     1      -1.061  14.515  20.084  0.00  0.00    +0.000 C 
ENDBRANCH  17  18
ENDBRANCH  12  17
TORSDOF 2
ENDMDL
MODEL 3
REMARK VINA RESULT:      -6.8      2.374      3.126
REMARK  Name = 
REMARK  6 active torsions:
REMARK  status: ('A' for Active; 'I' for Inactive)
REMARK    1  A    between atoms: C_1  and  C_2
REMARK    2  A    between atoms: C_4  and  C_5
REMARK    3  A    between atoms: C_12  and  C_14
REMARK    4  A    between atoms: C_14  and  C_15
REMARK    5  A    between atoms: N_18  and  C_19
REMARK    6  A    between atoms: N_22  and  C_23
REMARK                            x       y       z     vdW  Elec       q    Type
REMARK                         _______ _______ _______ _____ _____    ______ ____
ROOT
ATOM      1  C   UNL     1       4.408   2.740  19.808  0.00  0.00    +0.000 C 
ATOM      2  C   UNL     1       4.342   3.849  18.805  0.00  0.00    +0.000 A 
ATOM      3  C   UNL     1       4.764   3.677  17.508  0.00  0.00    +0.000 A 
ATOM      4  C   UNL     1       4.613   4.763  16.672  0.00  0.00    +0.000 A 
ATOM      5  C   UNL     1       5.010   4.689  15.231  0.00  0.00    +0.000 C 
ATOM      6  N   UNL     1       4.076   5.930  17.088  0.00  0.00    +0.000 NA
ATOM      7  C   UNL     1       3.671   6.022  18.364  0.00  0.00    +0.000 A 
ATOM      8  N   UNL     1       3.074   7.205  18.810  0.00  0.00    +0.000 N 
ATOM      9  C   UNL     1       2.178   6.983  19.959  0.00  0.00    +0.000 C 
ATOM     10  C   UNL     1       1.719   8.329  20.525  0.00  0.00    +0.000 C 
ATOM     11  N   UNL     1       1.090   9.157  19.492  0.00  0.00    +0.000 N 
ATOM     12  C   UNL     1      -0.113   9.770  19.786  0.00  0.00    +0.000 C 
ATOM     13  O   UNL     1      -0.763   9.474  20.789  0.00  0.00    +0.000 OA
ATOM     14  C   UNL     1       1.929   9.358  18.300  0.00  0.00    +0.000 C 
ATOM     15  C   UNL     1       2.491   8.029  17.739  0.00  0.00    +0.000 C 
ATOM     16  N   UNL     1       3.811   5.008  19.235  0.00  0.00    +0.000 NA
ENDROOT
BRANCH  12  17
ATOM     17  C   UNL     1      -0.674  10.771  18.798  0.00  0.00    +0.000 C 
BRANCH  17  18
ATOM     18  C   UNL     1      -2.180  10.592  18.683  0.00  0.00    +0.000 C 
ATOM     19  C   UNL     1      -2.973  11.697  19.389  0.00  0.00    +0.000 C 
ATOM     20  O   UNL     1      -2.741  12.153  20.501  0.00  0.00    +0.000 OA
ATOM     21  N   UNL     1      -4.015  12.061  18.580  0.00  0.00    +0.000 N 
ATOM     22  C   UNL     1      -5.068  12.973  18.941  0.00  0.00    +0.000 C 
ATOM     23  C   UNL     1      -3.874  11.517  17.341  0.00  0.00    +0.000 C 
ATOM     24  O   UNL     1      -4.607  11.705  16.378  0.00  0.00    +0.000 OA
ATOM     25  N   UNL     1      -2.724  10.736  17.339  0.00  0.00    +0.000 N 
ATOM     26  C   UNL     1      -2.329   9.892  16.237  0.00  0.00    +0.000 C 
ENDBRANCH  17  18
ENDBRANCH  12  17
TORSDOF 2
ENDMDL
MODEL 4
REMARK VINA RESULT:      -6.7      1.516      2.240
REMARK  Name = 
REMARK  6 active torsions:
REMARK  status: ('A' for Active; 'I' for Inactive)
REMARK    1  A    between atoms: C_1  and  C_2
REMARK    2  A    between atoms: C_4  and  C_5
REMARK    3  A    between atoms: C_12  and  C_14
REMARK    4  A    between atoms: C_14  and  C_15
REMARK    5  A    between atoms: N_18  and  C_19
REMARK    6  A    between atoms: N_22  and  C_23
REMARK                            x       y       z     vdW  Elec       q    Type
REMARK                         _______ _______ _______ _____ _____    ______ ____
ROOT
ATOM      1  C   UNL     1       3.832   2.683  19.982  0.00  0.00    +0.000 C 
ATOM      2  C   UNL     1       3.961   3.793  18.987  0.00  0.00    +0.000 A 
ATOM      3  C   UNL     1       4.500   3.587  17.739  0.00  0.00    +0.000 A 
ATOM      4  C   UNL     1       4.525   4.681  16.901  0.00  0.00    +0.000 A 
ATOM      5  C   UNL     1       5.062   4.574  15.508  0.00  0.00    +0.000 C 
ATOM      6  N   UNL     1       4.046   5.888  17.269  0.00  0.00    +0.000 NA
ATOM      7  C   UNL     1       3.520   6.014  18.497  0.00  0.00    +0.000 A 
ATOM      8  N   UNL     1       2.980   7.242  18.889  0.00  0.00    +0.000 N 
ATOM      9  C   UNL     1       1.955   7.096  19.938  0.00  0.00    +0.000 C 
ATOM     10  C   UNL     1       1.552   8.475  20.465  0.00  0.00    +0.000 C 
ATOM     11  N   UNL     1       1.104   9.351  19.379  0.00  0.00    +0.000 N 
ATOM     12  C   UNL     1      -0.069  10.062  19.553  0.00  0.00    +0.000 C 
ATOM     13  O   UNL     1      -0.841   9.821  20.482  0.00  0.00    +0.000 OA
ATOM     14  C   UNL     1       2.075   9.483  18.282  0.00  0.00    +0.000 C 
ATOM     15  C   UNL     1       2.580   8.111  17.771  0.00  0.00    +0.000 C 
ATOM     16  N   UNL     1       3.486   4.992  19.370  0.00  0.00    +0.000 NA
ENDROOT
BRANCH  12  17
ATOM     17  C   UNL     1      -0.441  11.106  18.521  0.00  0.00    +0.000 C 
BRANCH  17  18
ATOM     18  C   UNL     1      -0.529  12.473  19.180  0.00  0.00    +0.000 C 
ATOM     19  C   UNL     1      -1.762  12.630  20.078  0.00  0.00    +0.000 C 
ATOM     20  O   UNL     1      -2.901  12.279  19.804  0.00  0.00    +0.000 OA
ATOM     21  N   UNL     1      -1.378  13.269  21.226  0.00  0.00    +0.000 N 
ATOM     22  C   UNL     1      -2.268  13.721  22.262  0.00  0.00    +0.000 C 
ATOM     23  C   UNL     1      -0.021  13.338  21.307  0.00  0.00    +0.000 C 
ATOM     24  O   UNL     1       0.627  13.794  22.240  0.00  0.00    +0.000 OA
ATOM     25  N   UNL     1       0.511  12.762  20.159  0.00  0.00    +0.000 N 
ATOM     26  C   UNL     1       1.916  12.780  19.830  0.00  0.00    +0.000 C 
ENDBRANCH  17  18
ENDBRANCH  12  17
TORSDOF 2
ENDMDL
MODEL 5
REMARK VINA RESULT:      -6.7      2.848      9.347
REMARK  Name = 
REMARK  6 active torsions:
REMARK  status: ('A' for Active; 'I' for Inactive)
REMARK    1  A    between atoms: C_1  and  C_2
REMARK    2  A    between atoms: C_4  and  C_5
REMARK    3  A    between atoms: C_12  and  C_14
REMARK    4  A    between atoms: C_14  and  C_15
REMARK    5  A    between atoms: N_18  and  C_19
REMARK    6  A    between atoms: N_22  and  C_23
REMARK                            x       y       z     vdW  Elec       q    Type
REMARK                         _______ _______ _______ _____ _____    ______ ____
ROOT
ATOM      1  C   UNL     1      -5.362  13.709  19.780  0.00  0.00    +0.000 C 
ATOM      2  C   UNL     1      -4.397  13.185  20.797  0.00  0.00    +0.000 A 
ATOM      3  C   UNL     1      -4.716  13.124  22.132  0.00  0.00    +0.000 A 
ATOM      4  C   UNL     1      -3.757  12.583  22.961  0.00  0.00    +0.000 A 
ATOM      5  C   UNL     1      -3.999  12.437  24.431  0.00  0.00    +0.000 C 
ATOM      6  N   UNL     1      -2.571  12.130  22.501  0.00  0.00    +0.000 NA
ATOM      7  C   UNL     1      -2.333  12.207  21.182  0.00  0.00    +0.000 A 
ATOM      8  N   UNL     1      -1.130  11.708  20.673  0.00  0.00    +0.000 N 
ATOM      9  C   UNL     1      -1.241  11.313  19.257  0.00  0.00    +0.000 C 
ATOM     10  C   UNL     1       0.145  10.970  18.705  0.00  0.00    +0.000 C 
ATOM     11  N   UNL     1       0.801   9.938  19.513  0.00  0.00    +0.000 N 
ATOM     12  C   UNL     1       1.393   8.873  18.861  0.00  0.00    +0.000 C 
ATOM     13  O   UNL     1       1.200   8.659  17.663  0.00  0.00    +0.000 OA
ATOM     14  C   UNL     1       0.885  10.268  20.945  0.00  0.00    +0.000 C 
ATOM     15  C   UNL     1      -0.480  10.706  21.531  0.00  0.00    +0.000 C 
ATOM     16  N   UNL     1      -3.217  12.743  20.324  0.00  0.00    +0.000 NA
ENDROOT
BRANCH  12  17
ATOM     17  C   UNL     1       2.230   7.905  19.669  0.00  0.00    +0.000 C 
BRANCH  17  18
ATOM     18  C   UNL     1       2.385   6.598  18.908  0.00  0.00    +0.000 C 
ATOM     19  C   UNL     1       3.716   6.493  18.155  0.00  0.00    +0.000 C 
ATOM     20  O   UNL     1       4.234   7.374  17.482  0.00  0.00    +0.000 OA
ATOM     21  N   UNL     1       4.209   5.228  18.330  0.00  0.00    +0.000 N 
ATOM     22  C   UNL     1       5.371   4.692  17.673  0.00  0.00    +0.000 C 
ATOM     23  C   UNL     1       3.505   4.566  19.288  0.00  0.00    +0.000 C 
ATOM     24  O   UNL     1       3.741   3.443  19.714  0.00  0.00    +0.000 OA
ATOM     25  N   UNL     1       2.489   5.403  19.736  0.00  0.00    +0.000 N 
ATOM     26  C   UNL     1       1.455   4.989  20.653  0.00  0.00    +0.000 C 
ENDBRANCH  17  18
ENDBRANCH  12  17
TORSDOF 2
ENDMDL
MODEL 6
REMARK VINA RESULT:      -6.7      3.841      8.249
REMARK  Name = 
REMARK  6 active torsions:
REMARK  status: ('A' for Active; 'I' for Inactive)
REMARK    1  A    between atoms: C_1  and  C_2
REMARK    2  A    between atoms: C_4  and  C_5
REMARK    3  A    between atoms: C_12  and  C_14
REMARK    4  A    between atoms: C_14  and  C_15
REMARK    5  A    between atoms: N_18  and  C_19
REMARK    6  A    between atoms: N_22  and  C_23
REMARK                            x       y       z     vdW  Elec       q    Type
REMARK                         _______ _______ _______ _____ _____    ______ ____
ROOT
ATOM      1  C   UNL     1      -0.183   9.663  23.458  0.00  0.00    +0.000 C 
ATOM      2  C   UNL     1       0.295   9.625  22.040  0.00  0.00    +0.000 A 
ATOM      3  C   UNL     1       0.500  10.775  21.315  0.00  0.00    +0.000 A 
ATOM      4  C   UNL     1       0.980  10.608  20.034  0.00  0.00    +0.000 A 
ATOM      5  C   UNL     1       1.269  11.786  19.157  0.00  0.00    +0.000 C 
ATOM      6  N   UNL     1       1.246   9.391  19.512  0.00  0.00    +0.000 NA
ATOM      7  C   UNL     1       1.037   8.312  20.282  0.00  0.00    +0.000 A 
ATOM      8  N   UNL     1       1.342   7.043  19.781  0.00  0.00    +0.000 N 
ATOM      9  C   UNL     1       1.637   6.073  20.851  0.00  0.00    +0.000 C 
ATOM     10  C   UNL     1       1.761   4.668  20.256  0.00  0.00    +0.000 C 
ATOM     11  N   UNL     1       2.764   4.627  19.187  0.00  0.00    +0.000 N 
ATOM     12  C   UNL     1       3.694   3.605  19.200  0.00  0.00    +0.000 C 
ATOM     13  O   UNL     1       3.835   2.870  20.179  0.00  0.00    +0.000 OA
ATOM     14  C   UNL     1       2.539   5.619  18.124  0.00  0.00    +0.000 C 
ATOM     15  C   UNL     1       2.321   7.047  18.682  0.00  0.00    +0.000 C 
ATOM     16  N   UNL     1       0.549   8.406  21.531  0.00  0.00    +0.000 NA
ENDROOT
BRANCH  12  17
ATOM     17  C   UNL     1       4.611   3.447  18.006  0.00  0.00    +0.000 C 
BRANCH  17  18
ATOM     18  C   UNL     1       5.047   4.816  17.507  0.00  0.00    +0.000 C 
ATOM     19  C   UNL     1       6.032   5.514  18.452  0.00  0.00    +0.000 C 
ATOM     20  O   UNL     1       5.938   5.579  19.670  0.00  0.00    +0.000 OA
ATOM     21  N   UNL     1       7.015   6.092  17.695  0.00  0.00    +0.000 N 
ATOM     22  C   UNL     1       8.053   6.953  18.199  0.00  0.00    +0.000 C 
ATOM     23  C   UNL     1       6.942   5.665  16.406  0.00  0.00    +0.000 C 
ATOM     24  O   UNL     1       7.718   5.952  15.502  0.00  0.00    +0.000 OA
ATOM     25  N   UNL     1       5.853   4.809  16.293  0.00  0.00    +0.000 N 
ATOM     26  C   UNL     1       5.381   4.272  15.039  0.00  0.00    +0.000 C 
ENDBRANCH  17  18
ENDBRANCH  12  17
TORSDOF 2
ENDMDL
MODEL 7
REMARK VINA RESULT:      -6.7      2.827      9.091
REMARK  Name = 
REMARK  6 active torsions:
REMARK  status: ('A' for Active; 'I' for Inactive)
REMARK    1  A    between atoms: C_1  and  C_2
REMARK    2  A    between atoms: C_4  and  C_5
REMARK    3  A    between atoms: C_12  and  C_14
REMARK    4  A    between atoms: C_14  and  C_15
REMARK    5  A    between atoms: N_18  and  C_19
REMARK    6  A    between atoms: N_22  and  C_23
REMARK                            x       y       z     vdW  Elec       q    Type
REMARK                         _______ _______ _______ _____ _____    ______ ____
ROOT
ATOM      1  C   UNL     1       0.762  15.743  21.474  0.00  0.00    +0.000 C 
ATOM      2  C   UNL     1       1.316  15.072  20.256  0.00  0.00    +0.000 A 
ATOM      3  C   UNL     1       2.102  15.747  19.354  0.00  0.00    +0.000 A 
ATOM      4  C   UNL     1       2.584  15.006  18.296  0.00  0.00    +0.000 A 
ATOM      5  C   UNL     1       3.474  15.623  17.262  0.00  0.00    +0.000 C 
ATOM      6  N   UNL     1       2.313  13.692  18.147  0.00  0.00    +0.000 NA
ATOM      7  C   UNL     1       1.551  13.093  19.075  0.00  0.00    +0.000 A 
ATOM      8  N   UNL     1       1.288  11.724  18.968  0.00  0.00    +0.000 N 
ATOM      9  C   UNL     1       0.988  11.106  20.272  0.00  0.00    +0.000 C 
ATOM     10  C   UNL     1       0.513   9.666  20.065  0.00  0.00    +0.000 C 
ATOM     11  N   UNL     1       1.492   8.886  19.301  0.00  0.00    +0.000 N 
ATOM     12  C   UNL     1       1.839   7.632  19.768  0.00  0.00    +0.000 C 
ATOM     13  O   UNL     1       1.522   7.250  20.895  0.00  0.00    +0.000 OA
ATOM     14  C   UNL     1       1.862   9.495  18.014  0.00  0.00    +0.000 C 
ATOM     15  C   UNL     1       2.268  10.983  18.159  0.00  0.00    +0.000 C 
ATOM     16  N   UNL     1       1.032  13.764  20.118  0.00  0.00    +0.000 NA
ENDROOT
BRANCH  12  17
ATOM     17  C   UNL     1       2.700   6.748  18.892  0.00  0.00    +0.000 C 
BRANCH  17  18
ATOM     18  C   UNL     1       3.138   5.519  19.674  0.00  0.00    +0.000 C 
ATOM     19  C   UNL     1       2.227   4.307  19.448  0.00  0.00    +0.000 C 
ATOM     20  O   UNL     1       1.004   4.318  19.434  0.00  0.00    +0.000 OA
ATOM     21  N   UNL     1       3.017   3.198  19.306  0.00  0.00    +0.000 N 
ATOM     22  C   UNL     1       2.538   1.844  19.211  0.00  0.00    +0.000 C 
ATOM     23  C   UNL     1       4.323   3.553  19.167  0.00  0.00    +0.000 C 
ATOM     24  O   UNL     1       5.262   2.794  18.961  0.00  0.00    +0.000 OA
ATOM     25  N   UNL     1       4.408   4.937  19.260  0.00  0.00    +0.000 N 
ATOM     26  C   UNL     1       5.655   5.663  19.299  0.00  0.00    +0.000 C 
ENDBRANCH  17  18
ENDBRANCH  12  17
TORSDOF 2
ENDMDL
MODEL 8
REMARK VINA RESULT:      -6.6      1.646      3.383
REMARK  Name = 
REMARK  6 active torsions:
REMARK  status: ('A' for Active; 'I' for Inactive)
REMARK    1  A    between atoms: C_1  and  C_2
REMARK    2  A    between atoms: C_4  and  C_5
REMARK    3  A    between atoms: C_12  and  C_14
REMARK    4  A    between atoms: C_14  and  C_15
REMARK    5  A    between atoms: N_18  and  C_19
REMARK    6  A    between atoms: N_22  and  C_23
REMARK                            x       y       z     vdW  Elec       q    Type
REMARK                         _______ _______ _______ _____ _____    ______ ____
ROOT
ATOM      1  C   UNL     1       5.173   4.514  15.943  0.00  0.00    +0.000 C 
ATOM      2  C   UNL     1       4.390   4.637  17.213  0.00  0.00    +0.000 A 
ATOM      3  C   UNL     1       4.486   3.701  18.215  0.00  0.00    +0.000 A 
ATOM      4  C   UNL     1       3.746   3.951  19.351  0.00  0.00    +0.000 A 
ATOM      5  C   UNL     1       3.789   3.020  20.522  0.00  0.00    +0.000 C 
ATOM      6  N   UNL     1       2.973   5.050  19.487  0.00  0.00    +0.000 NA
ATOM      7  C   UNL     1       2.939   5.930  18.473  0.00  0.00    +0.000 A 
ATOM      8  N   UNL     1       2.180   7.096  18.604  0.00  0.00    +0.000 N 
ATOM      9  C   UNL     1       2.679   8.190  17.750  0.00  0.00    +0.000 C 
ATOM     10  C   UNL     1       1.696   9.362  17.782  0.00  0.00    +0.000 C 
ATOM     11  N   UNL     1       1.444   9.810  19.155  0.00  0.00    +0.000 N 
ATOM     12  C   UNL     1       1.497  11.165  19.422  0.00  0.00    +0.000 C 
ATOM     13  O   UNL     1       1.953  11.968  18.607  0.00  0.00    +0.000 OA
ATOM     14  C   UNL     1       0.996   8.737  20.057  0.00  0.00    +0.000 C 
ATOM     15  C   UNL     1       1.912   7.491  19.996  0.00  0.00    +0.000 C 
ATOM     16  N   UNL     1       3.620   5.734  17.331  0.00  0.00    +0.000 NA
ENDROOT
BRANCH  12  17
ATOM     17  C   UNL     1       1.057  11.650  20.787  0.00  0.00    +0.000 C 
BRANCH  17  18
ATOM     18  C   UNL     1      -0.446  11.886  20.790  0.00  0.00    +0.000 C 
ATOM     19  C   UNL     1      -1.130  11.390  22.068  0.00  0.00    +0.000 C 
ATOM     20  O   UNL     1      -0.924  10.322  22.628  0.00  0.00    +0.000 OA
ATOM     21  N   UNL     1      -2.045  12.331  22.457  0.00  0.00    +0.000 N 
ATOM     22  C   UNL     1      -2.985  12.178  23.536  0.00  0.00    +0.000 C 
ATOM     23  C   UNL     1      -1.884  13.480  21.747  0.00  0.00    +0.000 C 
ATOM     24  O   UNL     1      -2.507  14.522  21.904  0.00  0.00    +0.000 OA
ATOM     25  N   UNL     1      -0.858  13.283  20.830  0.00  0.00    +0.000 N 
ATOM     26  C   UNL     1      -0.499  14.238  19.809  0.00  0.00    +0.000 C 
ENDBRANCH  17  18
ENDBRANCH  12  17
TORSDOF 2
ENDMDL
MODEL 9
REMARK VINA RESULT:      -6.5      2.808      5.373
REMARK  Name = 
REMARK  6 active torsions:
REMARK  status: ('A' for Active; 'I' for Inactive)
REMARK    1  A    between atoms: C_1  and  C_2
REMARK    2  A    between atoms: C_4  and  C_5
REMARK    3  A    between atoms: C_12  and  C_14
REMARK    4  A    between atoms: C_14  and  C_15
REMARK    5  A    between atoms: N_18  and  C_19
REMARK    6  A    between atoms: N_22  and  C_23
REMARK                            x       y       z     vdW  Elec       q    Type
REMARK                         _______ _______ _______ _____ _____    ______ ____
ROOT
ATOM      1  C   UNL     1       5.793   2.155  11.591  0.00  0.00    +0.000 C 
ATOM      2  C   UNL     1       6.357   3.288  12.390  0.00  0.00    +0.000 A 
ATOM      3  C   UNL     1       7.270   4.165  11.855  0.00  0.00    +0.000 A 
ATOM      4  C   UNL     1       7.681   5.190  12.679  0.00  0.00    +0.000 A 
ATOM      5  C   UNL     1       8.652   6.224  12.201  0.00  0.00    +0.000 C 
ATOM      6  N   UNL     1       7.217   5.340  13.938  0.00  0.00    +0.000 NA
ATOM      7  C   UNL     1       6.315   4.455  14.390  0.00  0.00    +0.000 A 
ATOM      8  N   UNL     1       5.787   4.610  15.675  0.00  0.00    +0.000 N 
ATOM      9  C   UNL     1       4.455   3.994  15.813  0.00  0.00    +0.000 C 
ATOM     10  C   UNL     1       4.023   4.017  17.282  0.00  0.00    +0.000 C 
ATOM     11  N   UNL     1       4.056   5.378  17.826  0.00  0.00    +0.000 N 
ATOM     12  C   UNL     1       2.966   5.821  18.550  0.00  0.00    +0.000 C 
ATOM     13  O   UNL     1       1.902   5.199  18.566  0.00  0.00    +0.000 OA
ATOM     14  C   UNL     1       5.353   6.052  17.660  0.00  0.00    +0.000 C 
ATOM     15  C   UNL     1       5.876   5.980  16.204  0.00  0.00    +0.000 C 
ATOM     16  N   UNL     1       5.890   3.421  13.645  0.00  0.00    +0.000 NA
ENDROOT
BRANCH  12  17
ATOM     17  C   UNL     1       3.067   7.148  19.271  0.00  0.00    +0.000 C 
BRANCH  17  18
ATOM     18  C   UNL     1       1.690   7.787  19.370  0.00  0.00    +0.000 C 
ATOM     19  C   UNL     1       1.158   7.849  20.806  0.00  0.00    +0.000 C 
ATOM     20  O   UNL     1       1.206   6.946  21.632  0.00  0.00    +0.000 OA
ATOM     21  N   UNL     1       0.581   9.075  20.997  0.00  0.00    +0.000 N 
ATOM     22  C   UNL     1      -0.152   9.474  22.170  0.00  0.00    +0.000 C 
ATOM     23  C   UNL     1       0.873   9.910  19.964  0.00  0.00    +0.000 C 
ATOM     24  O   UNL     1       0.555  11.089  19.872  0.00  0.00    +0.000 OA
ATOM     25  N   UNL     1       1.635   9.205  19.039  0.00  0.00    +0.000 N 
ATOM     26  C   UNL     1       2.013   9.726  17.747  0.00  0.00    +0.000 C 
ENDBRANCH  17  18
ENDBRANCH  12  17
TORSDOF 2
ENDMDL
