MODEL 1
REMARK VINA RESULT:      -8.5      0.000      0.000
REMARK  Name = 
REMARK  9 active torsions:
REMARK  status: ('A' for Active; 'I' for Inactive)
REMARK    1  A    between atoms: C_1  and  C_2
REMARK    2  A    between atoms: C_2  and  C_3
REMARK    3  A    between atoms: C_2  and  C_4
REMARK    4  A    between atoms: C_4  and  N_5
REMARK    5  A    between atoms: N_5  and  S_6
REMARK    6  A    between atoms: S_6  and  C_9
REMARK    7  A    between atoms: C_14  and  C_15
REMARK    8  A    between atoms: C_18  and  C_19
REMARK    9  A    between atoms: C_22  and  N_23
REMARK                            x       y       z     vdW  Elec       q    Type
REMARK                         _______ _______ _______ _____ _____    ______ ____
ROOT
ATOM      1  C   UNL     1       2.388   6.323  18.682  0.00  0.00    +0.000 A 
ATOM      2  C   UNL     1       2.356   7.253  17.641  0.00  0.00    +0.000 A 
ATOM      3  C   UNL     1       1.874   8.559  17.820  0.00  0.00    +0.000 A 
ATOM      4  C   UNL     1       1.512   9.041  19.083  0.00  0.00    +0.000 A 
ATOM      5  C   UNL     1       1.709   8.174  20.154  0.00  0.00    +0.000 A 
ATOM      6  F   UNL     1       1.471   8.577  21.413  0.00  0.00    +0.000 F 
ATOM      7  C   UNL     1       2.104   6.844  19.962  0.00  0.00    +0.000 A 
ENDROOT
BRANCH   1  13
ATOM      8  C   UNL     1       4.027   4.303  18.355  0.00  0.00    +0.000 A 
ATOM      9  C   UNL     1       4.165   2.907  18.151  0.00  0.00    +0.000 A 
ATOM     10  C   UNL     1       3.062   2.068  18.056  0.00  0.00    +0.000 A 
ATOM     11  C   UNL     1       1.795   2.603  18.184  0.00  0.00    +0.000 A 
ATOM     12  C   UNL     1       1.644   3.972  18.419  0.00  0.00    +0.000 A 
ATOM     13  C   UNL     1       2.738   4.881  18.501  0.00  0.00    +0.000 A 
BRANCH   8  14
ATOM     14  S   UNL     1       5.601   5.182  18.408  0.00  0.00    +0.000 S 
ATOM     15  O   UNL     1       6.090   5.116  19.777  0.00  0.00    +0.000 OA
ATOM     16  O   UNL     1       5.422   6.467  17.788  0.00  0.00    +0.000 OA
BRANCH  14  17
ATOM     17  N   UNL     1       6.663   4.246  17.471  0.00  0.00    +0.000 NA
ATOM     18  H   UNL     1       7.368   3.789  18.047  0.00  0.00    +0.000 HD
BRANCH  17  19
ATOM     19  C   UNL     1       7.212   4.914  16.267  0.00  0.00    +0.000 C 
BRANCH  19  21
ATOM     20  C   UNL     1       5.158   4.389  14.855  0.00  0.00    +0.000 C 
ATOM     21  C   UNL     1       6.678   4.299  14.962  0.00  0.00    +0.000 C 
ATOM     22  C   UNL     1       7.348   4.887  13.718  0.00  0.00    +0.000 C 
ENDBRANCH  19  21
ENDBRANCH  17  19
ENDBRANCH  14  17
ENDBRANCH   8  14
ENDBRANCH   1  13
BRANCH   4  23
ATOM     23  C   UNL     1       0.877  10.353  19.231  0.00  0.00    +0.000 A 
ATOM     24  C   UNL     1      -0.422  10.562  19.691  0.00  0.00    +0.000 A 
ATOM     25  N   UNL     1      -1.024  11.781  19.713  0.00  0.00    +0.000 NA
ATOM     26  C   UNL     1      -0.290  12.806  19.249  0.00  0.00    +0.000 A 
ATOM     27  C   UNL     1       1.014  12.612  18.803  0.00  0.00    +0.000 A 
ATOM     28  N   UNL     1       1.626  11.405  18.799  0.00  0.00    +0.000 NA
BRANCH  26  29
ATOM     29  N   UNL     1      -0.914  14.048  19.177  0.00  0.00    +0.000 N 
ATOM     30  H   UNL     1      -1.890  13.909  19.434  0.00  0.00    +0.000 HD
ATOM     31  H   UNL     1      -0.460  14.743  19.757  0.00  0.00    +0.000 HD
ENDBRANCH  26  29
ENDBRANCH   4  23
TORSDOF 7
ENDMDL
MODEL 2
REMARK VINA RESULT:      -8.2      0.887      1.013
REMARK  Name = 
REMARK  9 active torsions:
REMARK  status: ('A' for Active; 'I' for Inactive)
REMARK    1  A    between atoms: C_1  and  C_2
REMARK    2  A    between atoms: C_2  and  C_3
REMARK    3  A    between atoms: C_2  and  C_4
REMARK    4  A    between atoms: C_4  and  N_5
REMARK    5  A    between atoms: N_5  and  S_6
REMARK    6  A    between atoms: S_6  and  C_9
REMARK    7  A    between atoms: C_14  and  C_15
REMARK    8  A    between atoms: C_18  and  C_19
REMARK    9  A    between atoms: C_22  and  N_23
REMARK                            x       y       z     vdW  Elec       q    Type
REMARK                         _______ _______ _______ _____ _____    ______ ____
ROOT
ATOM      1  C   UNL     1       2.272   6.357  18.931  0.00  0.00    +0.000 A 
ATOM      2  C   UNL     1       2.267   7.394  17.996  0.00  0.00    +0.000 A 
ATOM      3  C   UNL     1       1.774   8.672  18.299  0.00  0.00    +0.000 A 
ATOM      4  C   UNL     1       1.370   9.014  19.595  0.00  0.00    +0.000 A 
ATOM      5  C   UNL     1       1.537   8.036  20.572  0.00  0.00    +0.000 A 
ATOM      6  F   UNL     1       1.259   8.301  21.858  0.00  0.00    +0.000 F 
ATOM      7  C   UNL     1       1.945   6.735  20.250  0.00  0.00    +0.000 A 
ENDROOT
BRANCH   1  13
ATOM      8  C   UNL     1       3.918   4.415  18.303  0.00  0.00    +0.000 A 
ATOM      9  C   UNL     1       4.066   3.043  17.977  0.00  0.00    +0.000 A 
ATOM     10  C   UNL     1       2.977   2.183  17.912  0.00  0.00    +0.000 A 
ATOM     11  C   UNL     1       1.716   2.672  18.191  0.00  0.00    +0.000 A 
ATOM     12  C   UNL     1       1.557   4.014  18.547  0.00  0.00    +0.000 A 
ATOM     13  C   UNL     1       2.634   4.944  18.606  0.00  0.00    +0.000 A 
BRANCH   8  14
ATOM     14  S   UNL     1       5.472   5.331  18.288  0.00  0.00    +0.000 S 
ATOM     15  O   UNL     1       5.948   5.400  19.661  0.00  0.00    +0.000 OA
ATOM     16  O   UNL     1       5.270   6.550  17.553  0.00  0.00    +0.000 OA
BRANCH  14  17
ATOM     17  N   UNL     1       6.563   4.339  17.448  0.00  0.00    +0.000 NA
ATOM     18  H   UNL     1       7.199   3.859  18.084  0.00  0.00    +0.000 HD
BRANCH  17  19
ATOM     19  C   UNL     1       7.235   4.967  16.286  0.00  0.00    +0.000 C 
BRANCH  19  21
ATOM     20  C   UNL     1       5.272   4.330  14.794  0.00  0.00    +0.000 C 
ATOM     21  C   UNL     1       6.790   4.350  14.949  0.00  0.00    +0.000 C 
ATOM     22  C   UNL     1       7.454   5.019  13.744  0.00  0.00    +0.000 C 
ENDBRANCH  19  21
ENDBRANCH  17  19
ENDBRANCH  14  17
ENDBRANCH   8  14
ENDBRANCH   1  13
BRANCH   4  23
ATOM     23  C   UNL     1       0.724  10.301  19.864  0.00  0.00    +0.000 A 
ATOM     24  C   UNL     1       1.246  11.297  20.688  0.00  0.00    +0.000 A 
ATOM     25  N   UNL     1       0.573  12.434  21.009  0.00  0.00    +0.000 NA
ATOM     26  C   UNL     1      -0.659  12.555  20.487  0.00  0.00    +0.000 A 
ATOM     27  C   UNL     1      -1.183  11.575  19.649  0.00  0.00    +0.000 A 
ATOM     28  N   UNL     1      -0.511  10.451  19.309  0.00  0.00    +0.000 NA
BRANCH  26  29
ATOM     29  N   UNL     1      -1.402  13.666  20.873  0.00  0.00    +0.000 N 
ATOM     30  H   UNL     1      -1.243  14.392  20.174  0.00  0.00    +0.000 HD
ATOM     31  H   UNL     1      -2.386  13.454  20.986  0.00  0.00    +0.000 HD
ENDBRANCH  26  29
ENDBRANCH   4  23
TORSDOF 7
ENDMDL
MODEL 3
REMARK VINA RESULT:      -8.0      1.319      1.649
REMARK  Name = 
REMARK  9 active torsions:
REMARK  status: ('A' for Active; 'I' for Inactive)
REMARK    1  A    between atoms: C_1  and  C_2
REMARK    2  A    between atoms: C_2  and  C_3
REMARK    3  A    between atoms: C_2  and  C_4
REMARK    4  A    between atoms: C_4  and  N_5
REMARK    5  A    between atoms: N_5  and  S_6
REMARK    6  A    between atoms: S_6  and  C_9
REMARK    7  A    between atoms: C_14  and  C_15
REMARK    8  A    between atoms: C_18  and  C_19
REMARK    9  A    between atoms: C_22  and  N_23
REMARK                            x       y       z     vdW  Elec       q    Type
REMARK                         _______ _______ _______ _____ _____    ______ ____
ROOT
ATOM      1  C   UNL     1       2.038   6.492  19.515  0.00  0.00    +0.000 A 
ATOM      2  C   UNL     1       2.224   7.098  18.271  0.00  0.00    +0.000 A 
ATOM      3  C   UNL     1       1.893   8.441  18.037  0.00  0.00    +0.000 A 
ATOM      4  C   UNL     1       1.472   9.284  19.072  0.00  0.00    +0.000 A 
ATOM      5  C   UNL     1       1.454   8.731  20.350  0.00  0.00    +0.000 A 
ATOM      6  F   UNL     1       1.147   9.486  21.417  0.00  0.00    +0.000 F 
ATOM      7  C   UNL     1       1.697   7.369  20.566  0.00  0.00    +0.000 A 
ENDROOT
BRANCH   1  13
ATOM      8  C   UNL     1       3.369   4.233  19.508  0.00  0.00    +0.000 A 
ATOM      9  C   UNL     1       3.347   2.841  19.776  0.00  0.00    +0.000 A 
ATOM     10  C   UNL     1       2.211   2.206  20.262  0.00  0.00    +0.000 A 
ATOM     11  C   UNL     1       1.077   2.953  20.512  0.00  0.00    +0.000 A 
ATOM     12  C   UNL     1       1.093   4.332  20.286  0.00  0.00    +0.000 A 
ATOM     13  C   UNL     1       2.221   5.030  19.765  0.00  0.00    +0.000 A 
BRANCH   8  14
ATOM     14  S   UNL     1       4.945   4.815  18.850  0.00  0.00    +0.000 S 
ATOM     15  O   UNL     1       5.899   3.724  18.980  0.00  0.00    +0.000 OA
ATOM     16  O   UNL     1       5.244   6.085  19.454  0.00  0.00    +0.000 OA
BRANCH  14  17
ATOM     17  N   UNL     1       4.679   5.028  17.187  0.00  0.00    +0.000 NA
ATOM     18  H   UNL     1       3.774   5.459  17.004  0.00  0.00    +0.000 HD
BRANCH  17  19
ATOM     19  C   UNL     1       4.965   3.848  16.337  0.00  0.00    +0.000 C 
BRANCH  19  21
ATOM     20  C   UNL     1       5.892   3.992  13.969  0.00  0.00    +0.000 C 
ATOM     21  C   UNL     1       6.213   4.047  15.460  0.00  0.00    +0.000 C 
ATOM     22  C   UNL     1       6.976   5.327  15.808  0.00  0.00    +0.000 C 
ENDBRANCH  19  21
ENDBRANCH  17  19
ENDBRANCH  14  17
ENDBRANCH   8  14
ENDBRANCH   1  13
BRANCH   4  23
ATOM     23  C   UNL     1       0.994  10.640  18.788  0.00  0.00    +0.000 A 
ATOM     24  C   UNL     1       1.814  11.755  18.623  0.00  0.00    +0.000 A 
ATOM     25  N   UNL     1       1.339  13.020  18.472  0.00  0.00    +0.000 NA
ATOM     26  C   UNL     1       0.002  13.152  18.498  0.00  0.00    +0.000 A 
ATOM     27  C   UNL     1      -0.827  12.043  18.645  0.00  0.00    +0.000 A 
ATOM     28  N   UNL     1      -0.360  10.780  18.775  0.00  0.00    +0.000 NA
BRANCH  26  29
ATOM     29  N   UNL     1      -0.507  14.446  18.436  0.00  0.00    +0.000 N 
ATOM     30  H   UNL     1       0.258  15.081  18.663  0.00  0.00    +0.000 HD
ATOM     31  H   UNL     1      -0.924  14.655  17.538  0.00  0.00    +0.000 HD
ENDBRANCH  26  29
ENDBRANCH   4  23
TORSDOF 7
ENDMDL
MODEL 4
REMARK VINA RESULT:      -8.0      0.762      1.007
REMARK  Name = 
REMARK  9 active torsions:
REMARK  status: ('A' for Active; 'I' for Inactive)
REMARK    1  A    between atoms: C_1  and  C_2
REMARK    2  A    between atoms: C_2  and  C_3
REMARK    3  A    between atoms: C_2  and  C_4
REMARK    4  A    between atoms: C_4  and  N_5
REMARK    5  A    between atoms: N_5  and  S_6
REMARK    6  A    between atoms: S_6  and  C_9
REMARK    7  A    between atoms: C_14  and  C_15
REMARK    8  A    between atoms: C_18  and  C_19
REMARK    9  A    between atoms: C_22  and  N_23
REMARK                            x       y       z     vdW  Elec       q    Type
REMARK                         _______ _______ _______ _____ _____    ______ ____
ROOT
ATOM      1  C   UNL     1       2.298   6.236  18.846  0.00  0.00    +0.000 A 
ATOM      2  C   UNL     1       2.355   7.124  17.770  0.00  0.00    +0.000 A 
ATOM      3  C   UNL     1       1.921   8.454  17.874  0.00  0.00    +0.000 A 
ATOM      4  C   UNL     1       1.520   9.001  19.098  0.00  0.00    +0.000 A 
ATOM      5  C   UNL     1       1.627   8.171  20.210  0.00  0.00    +0.000 A 
ATOM      6  F   UNL     1       1.347   8.634  21.439  0.00  0.00    +0.000 F 
ATOM      7  C   UNL     1       1.974   6.819  20.090  0.00  0.00    +0.000 A 
ENDROOT
BRANCH   1  13
ATOM      8  C   UNL     1       3.860   4.144  18.611  0.00  0.00    +0.000 A 
ATOM      9  C   UNL     1       3.946   2.735  18.480  0.00  0.00    +0.000 A 
ATOM     10  C   UNL     1       2.812   1.932  18.440  0.00  0.00    +0.000 A 
ATOM     11  C   UNL     1       1.567   2.519  18.551  0.00  0.00    +0.000 A 
ATOM     12  C   UNL     1       1.467   3.903  18.715  0.00  0.00    +0.000 A 
ATOM     13  C   UNL     1       2.593   4.775  18.738  0.00  0.00    +0.000 A 
BRANCH   8  14
ATOM     14  S   UNL     1       5.465   4.967  18.603  0.00  0.00    +0.000 S 
ATOM     15  O   UNL     1       6.483   3.933  18.498  0.00  0.00    +0.000 OA
ATOM     16  O   UNL     1       5.508   5.884  19.710  0.00  0.00    +0.000 OA
BRANCH  14  17
ATOM     17  N   UNL     1       5.509   5.838  17.146  0.00  0.00    +0.000 NA
ATOM     18  H   UNL     1       5.147   6.783  17.263  0.00  0.00    +0.000 HD
BRANCH  17  19
ATOM     19  C   UNL     1       4.970   5.130  15.961  0.00  0.00    +0.000 C 
BRANCH  19  21
ATOM     20  C   UNL     1       7.423   4.939  15.305  0.00  0.00    +0.000 C 
ATOM     21  C   UNL     1       5.985   5.062  14.808  0.00  0.00    +0.000 C 
ATOM     22  C   UNL     1       5.658   3.957  13.802  0.00  0.00    +0.000 C 
ENDBRANCH  19  21
ENDBRANCH  17  19
ENDBRANCH  14  17
ENDBRANCH   8  14
ENDBRANCH   1  13
BRANCH   4  23
ATOM     23  C   UNL     1       0.935  10.343  19.164  0.00  0.00    +0.000 A 
ATOM     24  C   UNL     1      -0.374  10.623  19.553  0.00  0.00    +0.000 A 
ATOM     25  N   UNL     1      -0.924  11.865  19.498  0.00  0.00    +0.000 NA
ATOM     26  C   UNL     1      -0.127  12.840  19.029  0.00  0.00    +0.000 A 
ATOM     27  C   UNL     1       1.187  12.575  18.654  0.00  0.00    +0.000 A 
ATOM     28  N   UNL     1       1.747  11.345  18.726  0.00  0.00    +0.000 NA
BRANCH  26  29
ATOM     29  N   UNL     1      -0.694  14.102  18.878  0.00  0.00    +0.000 N 
ATOM     30  H   UNL     1      -0.051  14.655  18.312  0.00  0.00    +0.000 HD
ATOM     31  H   UNL     1      -1.622  14.063  18.476  0.00  0.00    +0.000 HD
ENDBRANCH  26  29
ENDBRANCH   4  23
TORSDOF 7
ENDMDL
MODEL 5
REMARK VINA RESULT:      -8.0      2.525      4.459
REMARK  Name = 
REMARK  9 active torsions:
REMARK  status: ('A' for Active; 'I' for Inactive)
REMARK    1  A    between atoms: C_1  and  C_2
REMARK    2  A    between atoms: C_2  and  C_3
REMARK    3  A    between atoms: C_2  and  C_4
REMARK    4  A    between atoms: C_4  and  N_5
REMARK    5  A    between atoms: N_5  and  S_6
REMARK    6  A    between atoms: S_6  and  C_9
REMARK    7  A    between atoms: C_14  and  C_15
REMARK    8  A    between atoms: C_18  and  C_19
REMARK    9  A    between atoms: C_22  and  N_23
REMARK                            x       y       z     vdW  Elec       q    Type
REMARK                         _______ _______ _______ _____ _____    ______ ____
ROOT
ATOM      1  C   UNL     1       3.530   6.571  18.181  0.00  0.00    +0.000 A 
ATOM      2  C   UNL     1       3.059   6.139  19.422  0.00  0.00    +0.000 A 
ATOM      3  C   UNL     1       2.245   6.944  20.233  0.00  0.00    +0.000 A 
ATOM      4  C   UNL     1       1.758   8.178  19.790  0.00  0.00    +0.000 A 
ATOM      5  C   UNL     1       2.081   8.536  18.483  0.00  0.00    +0.000 A 
ATOM      6  F   UNL     1       1.589   9.662  17.941  0.00  0.00    +0.000 F 
ATOM      7  C   UNL     1       2.966   7.775  17.709  0.00  0.00    +0.000 A 
ENDROOT
BRANCH   1  13
ATOM      8  C   UNL     1       4.525   4.437  17.028  0.00  0.00    +0.000 A 
ATOM      9  C   UNL     1       5.585   3.884  16.264  0.00  0.00    +0.000 A 
ATOM     10  C   UNL     1       6.664   4.652  15.845  0.00  0.00    +0.000 A 
ATOM     11  C   UNL     1       6.698   5.996  16.162  0.00  0.00    +0.000 A 
ATOM     12  C   UNL     1       5.644   6.563  16.885  0.00  0.00    +0.000 A 
ATOM     13  C   UNL     1       4.527   5.818  17.360  0.00  0.00    +0.000 A 
BRANCH   8  14
ATOM     14  S   UNL     1       3.261   3.233  17.481  0.00  0.00    +0.000 S 
ATOM     15  O   UNL     1       3.681   1.943  16.957  0.00  0.00    +0.000 OA
ATOM     16  O   UNL     1       1.978   3.761  17.099  0.00  0.00    +0.000 OA
BRANCH  14  17
ATOM     17  N   UNL     1       3.344   3.119  19.173  0.00  0.00    +0.000 NA
ATOM     18  H   UNL     1       4.308   3.087  19.500  0.00  0.00    +0.000 HD
BRANCH  17  19
ATOM     19  C   UNL     1       2.466   2.095  19.788  0.00  0.00    +0.000 C 
BRANCH  19  21
ATOM     20  C   UNL     1       2.193   3.366  21.978  0.00  0.00    +0.000 C 
ATOM     21  C   UNL     1       1.482   2.701  20.802  0.00  0.00    +0.000 C 
ATOM     22  C   UNL     1       0.487   3.664  20.152  0.00  0.00    +0.000 C 
ENDBRANCH  19  21
ENDBRANCH  17  19
ENDBRANCH  14  17
ENDBRANCH   8  14
ENDBRANCH   1  13
BRANCH   4  23
ATOM     23  C   UNL     1       1.031   9.069  20.699  0.00  0.00    +0.000 A 
ATOM     24  C   UNL     1       1.274   9.182  22.067  0.00  0.00    +0.000 A 
ATOM     25  N   UNL     1       0.511   9.932  22.905  0.00  0.00    +0.000 NA
ATOM     26  C   UNL     1      -0.526  10.573  22.339  0.00  0.00    +0.000 A 
ATOM     27  C   UNL     1      -0.767  10.482  20.972  0.00  0.00    +0.000 A 
ATOM     28  N   UNL     1       0.001   9.754  20.129  0.00  0.00    +0.000 NA
BRANCH  26  29
ATOM     29  N   UNL     1      -1.375  11.275  23.190  0.00  0.00    +0.000 N 
ATOM     30  H   UNL     1      -2.286  10.820  23.147  0.00  0.00    +0.000 HD
ATOM     31  H   UNL     1      -1.017  11.328  24.136  0.00  0.00    +0.000 HD
ENDBRANCH  26  29
ENDBRANCH   4  23
TORSDOF 7
ENDMDL
MODEL 6
REMARK VINA RESULT:      -7.9      2.769      4.293
REMARK  Name = 
REMARK  9 active torsions:
REMARK  status: ('A' for Active; 'I' for Inactive)
REMARK    1  A    between atoms: C_1  and  C_2
REMARK    2  A    between atoms: C_2  and  C_3
REMARK    3  A    between atoms: C_2  and  C_4
REMARK    4  A    between atoms: C_4  and  N_5
REMARK    5  A    between atoms: N_5  and  S_6
REMARK    6  A    between atoms: S_6  and  C_9
REMARK    7  A    between atoms: C_14  and  C_15
REMARK    8  A    between atoms: C_18  and  C_19
REMARK    9  A    between atoms: C_22  and  N_23
REMARK                            x       y       z     vdW  Elec       q    Type
REMARK                         _______ _______ _______ _____ _____    ______ ____
ROOT
ATOM      1  C   UNL     1       2.740   6.966  18.610  0.00  0.00    +0.000 A 
ATOM      2  C   UNL     1       2.332   6.852  19.940  0.00  0.00    +0.000 A 
ATOM      3  C   UNL     1       1.608   7.863  20.589  0.00  0.00    +0.000 A 
ATOM      4  C   UNL     1       1.147   8.992  19.902  0.00  0.00    +0.000 A 
ATOM      5  C   UNL     1       1.400   9.027  18.533  0.00  0.00    +0.000 A 
ATOM      6  F   UNL     1       0.923  10.028  17.776  0.00  0.00    +0.000 F 
ATOM      7  C   UNL     1       2.199   8.063  17.907  0.00  0.00    +0.000 A 
ENDROOT
BRANCH   1  13
ATOM      8  C   UNL     1       3.351   4.674  17.491  0.00  0.00    +0.000 A 
ATOM      9  C   UNL     1       4.359   3.875  16.897  0.00  0.00    +0.000 A 
ATOM     10  C   UNL     1       5.664   4.330  16.750  0.00  0.00    +0.000 A 
ATOM     11  C   UNL     1       5.985   5.603  17.177  0.00  0.00    +0.000 A 
ATOM     12  C   UNL     1       4.994   6.416  17.734  0.00  0.00    +0.000 A 
ATOM     13  C   UNL     1       3.648   5.993  17.930  0.00  0.00    +0.000 A 
BRANCH   8  14
ATOM     14  S   UNL     1       1.750   3.851  17.601  0.00  0.00    +0.000 S 
ATOM     15  O   UNL     1       1.955   2.454  17.248  0.00  0.00    +0.000 OA
ATOM     16  O   UNL     1       0.791   4.628  16.863  0.00  0.00    +0.000 OA
BRANCH  14  17
ATOM     17  N   UNL     1       1.350   3.877  19.251  0.00  0.00    +0.000 NA
ATOM     18  H   UNL     1       1.812   4.644  19.737  0.00  0.00    +0.000 HD
BRANCH  17  19
ATOM     19  C   UNL     1       1.444   2.576  19.953  0.00  0.00    +0.000 C 
BRANCH  19  21
ATOM     20  C   UNL     1       3.946   2.443  20.409  0.00  0.00    +0.000 C 
ATOM     21  C   UNL     1       2.552   2.566  21.020  0.00  0.00    +0.000 C 
ATOM     22  C   UNL     1       2.473   3.770  21.961  0.00  0.00    +0.000 C 
ENDBRANCH  19  21
ENDBRANCH  17  19
ENDBRANCH  14  17
ENDBRANCH   8  14
ENDBRANCH   1  13
BRANCH   4  23
ATOM     23  C   UNL     1       0.520  10.103  20.621  0.00  0.00    +0.000 A 
ATOM     24  C   UNL     1       0.781  11.452  20.387  0.00  0.00    +0.000 A 
ATOM     25  N   UNL     1       0.269  12.459  21.144  0.00  0.00    +0.000 NA
ATOM     26  C   UNL     1      -0.519  12.083  22.166  0.00  0.00    +0.000 A 
ATOM     27  C   UNL     1      -0.801  10.740  22.399  0.00  0.00    +0.000 A 
ATOM     28  N   UNL     1      -0.311   9.735  21.636  0.00  0.00    +0.000 NA
BRANCH  26  29
ATOM     29  N   UNL     1      -0.982  13.087  23.009  0.00  0.00    +0.000 N 
ATOM     30  H   UNL     1      -0.331  13.148  23.792  0.00  0.00    +0.000 HD
ATOM     31  H   UNL     1      -1.090  13.974  22.533  0.00  0.00    +0.000 HD
ENDBRANCH  26  29
ENDBRANCH   4  23
TORSDOF 7
ENDMDL
MODEL 7
REMARK VINA RESULT:      -7.8      1.445      1.913
REMARK  Name = 
REMARK  9 active torsions:
REMARK  status: ('A' for Active; 'I' for Inactive)
REMARK    1  A    between atoms: C_1  and  C_2
REMARK    2  A    between atoms: C_2  and  C_3
REMARK    3  A    between atoms: C_2  and  C_4
REMARK    4  A    between atoms: C_4  and  N_5
REMARK    5  A    between atoms: N_5  and  S_6
REMARK    6  A    between atoms: S_6  and  C_9
REMARK    7  A    between atoms: C_14  and  C_15
REMARK    8  A    between atoms: C_18  and  C_19
REMARK    9  A    between atoms: C_22  and  N_23
REMARK                            x       y       z     vdW  Elec       q    Type
REMARK                         _______ _______ _______ _____ _____    ______ ____
ROOT
ATOM      1  C   UNL     1       1.925   6.463  19.548  0.00  0.00    +0.000 A 
ATOM      2  C   UNL     1       2.090   7.056  18.295  0.00  0.00    +0.000 A 
ATOM      3  C   UNL     1       1.783   8.404  18.060  0.00  0.00    +0.000 A 
ATOM      4  C   UNL     1       1.410   9.264  19.099  0.00  0.00    +0.000 A 
ATOM      5  C   UNL     1       1.414   8.721  20.381  0.00  0.00    +0.000 A 
ATOM      6  F   UNL     1       1.153   9.490  21.451  0.00  0.00    +0.000 F 
ATOM      7  C   UNL     1       1.632   7.355  20.602  0.00  0.00    +0.000 A 
ENDROOT
BRANCH   1  13
ATOM      8  C   UNL     1       3.234   4.192  19.605  0.00  0.00    +0.000 A 
ATOM      9  C   UNL     1       3.185   2.800  19.868  0.00  0.00    +0.000 A 
ATOM     10  C   UNL     1       2.020   2.175  20.295  0.00  0.00    +0.000 A 
ATOM     11  C   UNL     1       0.882   2.932  20.488  0.00  0.00    +0.000 A 
ATOM     12  C   UNL     1       0.922   4.311  20.266  0.00  0.00    +0.000 A 
ATOM     13  C   UNL     1       2.082   4.999  19.805  0.00  0.00    +0.000 A 
BRANCH   8  14
ATOM     14  S   UNL     1       4.846   4.760  19.029  0.00  0.00    +0.000 S 
ATOM     15  O   UNL     1       5.787   3.668  19.225  0.00  0.00    +0.000 OA
ATOM     16  O   UNL     1       5.117   6.037  19.633  0.00  0.00    +0.000 OA
BRANCH  14  17
ATOM     17  N   UNL     1       4.674   4.954  17.351  0.00  0.00    +0.000 NA
ATOM     18  H   UNL     1       4.997   4.132  16.843  0.00  0.00    +0.000 HD
BRANCH  17  19
ATOM     19  C   UNL     1       5.175   6.236  16.800  0.00  0.00    +0.000 C 
BRANCH  19  21
ATOM     20  C   UNL     1       7.569   6.871  17.390  0.00  0.00    +0.000 C 
ATOM     21  C   UNL     1       6.656   6.160  16.395  0.00  0.00    +0.000 C 
ATOM     22  C   UNL     1       7.126   4.724  16.154  0.00  0.00    +0.000 C 
ENDBRANCH  19  21
ENDBRANCH  17  19
ENDBRANCH  14  17
ENDBRANCH   8  14
ENDBRANCH   1  13
BRANCH   4  23
ATOM     23  C   UNL     1       0.955  10.628  18.818  0.00  0.00    +0.000 A 
ATOM     24  C   UNL     1       1.793  11.730  18.656  0.00  0.00    +0.000 A 
ATOM     25  N   UNL     1       1.340  13.003  18.507  0.00  0.00    +0.000 NA
ATOM     26  C   UNL     1       0.006  13.157  18.533  0.00  0.00    +0.000 A 
ATOM     27  C   UNL     1      -0.842  12.063  18.678  0.00  0.00    +0.000 A 
ATOM     28  N   UNL     1      -0.397  10.791  18.805  0.00  0.00    +0.000 NA
BRANCH  26  29
ATOM     29  N   UNL     1      -0.481  14.460  18.474  0.00  0.00    +0.000 N 
ATOM     30  H   UNL     1       0.184  15.052  18.969  0.00  0.00    +0.000 HD
ATOM     31  H   UNL     1      -0.637  14.772  17.523  0.00  0.00    +0.000 HD
ENDBRANCH  26  29
ENDBRANCH   4  23
TORSDOF 7
ENDMDL
MODEL 8
REMARK VINA RESULT:      -7.8      1.253      1.401
REMARK  Name = 
REMARK  9 active torsions:
REMARK  status: ('A' for Active; 'I' for Inactive)
REMARK    1  A    between atoms: C_1  and  C_2
REMARK    2  A    between atoms: C_2  and  C_3
REMARK    3  A    between atoms: C_2  and  C_4
REMARK    4  A    between atoms: C_4  and  N_5
REMARK    5  A    between atoms: N_5  and  S_6
REMARK    6  A    between atoms: S_6  and  C_9
REMARK    7  A    between atoms: C_14  and  C_15
REMARK    8  A    between atoms: C_18  and  C_19
REMARK    9  A    between atoms: C_22  and  N_23
REMARK                            x       y       z     vdW  Elec       q    Type
REMARK                         _______ _______ _______ _____ _____    ______ ____
ROOT
ATOM      1  C   UNL     1       1.967   6.744  19.785  0.00  0.00    +0.000 A 
ATOM      2  C   UNL     1       2.147   7.458  18.599  0.00  0.00    +0.000 A 
ATOM      3  C   UNL     1       1.735   8.792  18.460  0.00  0.00    +0.000 A 
ATOM      4  C   UNL     1       1.230   9.521  19.542  0.00  0.00    +0.000 A 
ATOM      5  C   UNL     1       1.212   8.868  20.772  0.00  0.00    +0.000 A 
ATOM      6  F   UNL     1       0.826   9.514  21.884  0.00  0.00    +0.000 F 
ATOM      7  C   UNL     1       1.539   7.511  20.889  0.00  0.00    +0.000 A 
ENDROOT
BRANCH   1  13
ATOM      8  C   UNL     1       3.368   4.551  19.466  0.00  0.00    +0.000 A 
ATOM      9  C   UNL     1       3.437   3.148  19.658  0.00  0.00    +0.000 A 
ATOM     10  C   UNL     1       2.408   2.440  20.265  0.00  0.00    +0.000 A 
ATOM     11  C   UNL     1       1.294   3.122  20.714  0.00  0.00    +0.000 A 
ATOM     12  C   UNL     1       1.226   4.510  20.563  0.00  0.00    +0.000 A 
ATOM     13  C   UNL     1       2.240   5.282  19.927  0.00  0.00    +0.000 A 
BRANCH   8  14
ATOM     14  S   UNL     1       4.808   5.235  18.623  0.00  0.00    +0.000 S 
ATOM     15  O   UNL     1       5.772   5.610  19.646  0.00  0.00    +0.000 OA
ATOM     16  O   UNL     1       4.355   6.228  17.687  0.00  0.00    +0.000 OA
BRANCH  14  17
ATOM     17  N   UNL     1       5.487   3.930  17.776  0.00  0.00    +0.000 NA
ATOM     18  H   UNL     1       6.493   3.866  17.929  0.00  0.00    +0.000 HD
BRANCH  17  19
ATOM     19  C   UNL     1       5.087   3.812  16.354  0.00  0.00    +0.000 C 
BRANCH  19  21
ATOM     20  C   UNL     1       5.849   4.019  13.933  0.00  0.00    +0.000 C 
ATOM     21  C   UNL     1       6.281   3.951  15.396  0.00  0.00    +0.000 C 
ATOM     22  C   UNL     1       7.186   5.131  15.753  0.00  0.00    +0.000 C 
ENDBRANCH  19  21
ENDBRANCH  17  19
ENDBRANCH  14  17
ENDBRANCH   8  14
ENDBRANCH   1  13
BRANCH   4  23
ATOM     23  C   UNL     1       0.671  10.862  19.349  0.00  0.00    +0.000 A 
ATOM     24  C   UNL     1      -0.543  11.136  18.722  0.00  0.00    +0.000 A 
ATOM     25  N   UNL     1      -0.984  12.395  18.457  0.00  0.00    +0.000 NA
ATOM     26  C   UNL     1      -0.166  13.394  18.831  0.00  0.00    +0.000 A 
ATOM     27  C   UNL     1       1.040  13.132  19.473  0.00  0.00    +0.000 A 
ATOM     28  N   UNL     1       1.475  11.883  19.758  0.00  0.00    +0.000 NA
BRANCH  26  29
ATOM     29  N   UNL     1      -0.552  14.686  18.490  0.00  0.00    +0.000 N 
ATOM     30  H   UNL     1      -0.700  14.701  17.482  0.00  0.00    +0.000 HD
ATOM     31  H   UNL     1      -1.371  14.993  19.001  0.00  0.00    +0.000 HD
ENDBRANCH  26  29
ENDBRANCH   4  23
TORSDOF 7
ENDMDL
MODEL 9
REMARK VINA RESULT:      -7.7      1.703      2.167
REMARK  Name = 
REMARK  9 active torsions:
REMARK  status: ('A' for Active; 'I' for Inactive)
REMARK    1  A    between atoms: C_1  and  C_2
REMARK    2  A    between atoms: C_2  and  C_3
REMARK    3  A    between atoms: C_2  and  C_4
REMARK    4  A    between atoms: C_4  and  N_5
REMARK    5  A    between atoms: N_5  and  S_6
REMARK    6  A    between atoms: S_6  and  C_9
REMARK    7  A    between atoms: C_14  and  C_15
REMARK    8  A    between atoms: C_18  and  C_19
REMARK    9  A    between atoms: C_22  and  N_23
REMARK                            x       y       z     vdW  Elec       q    Type
REMARK                         _______ _______ _______ _____ _____    ______ ____
ROOT
ATOM      1  C   UNL     1       2.376   6.166  18.619  0.00  0.00    +0.000 A 
ATOM      2  C   UNL     1       2.320   7.037  17.529  0.00  0.00    +0.000 A 
ATOM      3  C   UNL     1       1.896   8.368  17.657  0.00  0.00    +0.000 A 
ATOM      4  C   UNL     1       1.621   8.933  18.907  0.00  0.00    +0.000 A 
ATOM      5  C   UNL     1       1.845   8.120  20.016  0.00  0.00    +0.000 A 
ATOM      6  F   UNL     1       1.692   8.602  21.259  0.00  0.00    +0.000 F 
ATOM      7  C   UNL     1       2.181   6.767  19.880  0.00  0.00    +0.000 A 
ENDROOT
BRANCH   1  13
ATOM      8  C   UNL     1       3.763   4.074  17.859  0.00  0.00    +0.000 A 
ATOM      9  C   UNL     1       3.850   2.660  17.815  0.00  0.00    +0.000 A 
ATOM     10  C   UNL     1       2.865   1.847  18.362  0.00  0.00    +0.000 A 
ATOM     11  C   UNL     1       1.779   2.431  18.985  0.00  0.00    +0.000 A 
ATOM     12  C   UNL     1       1.695   3.824  19.067  0.00  0.00    +0.000 A 
ATOM     13  C   UNL     1       2.663   4.704  18.503  0.00  0.00    +0.000 A 
BRANCH   8  14
ATOM     14  S   UNL     1       5.144   4.906  17.051  0.00  0.00    +0.000 S 
ATOM     15  O   UNL     1       4.650   5.444  15.792  0.00  0.00    +0.000 OA
ATOM     16  O   UNL     1       6.267   4.008  17.038  0.00  0.00    +0.000 OA
BRANCH  14  17
ATOM     17  N   UNL     1       5.498   6.240  18.040  0.00  0.00    +0.000 NA
ATOM     18  H   UNL     1       4.693   6.516  18.600  0.00  0.00    +0.000 HD
BRANCH  17  19
ATOM     19  C   UNL     1       6.180   7.371  17.368  0.00  0.00    +0.000 C 
BRANCH  19  21
ATOM     20  C   UNL     1       8.161   8.860  17.953  0.00  0.00    +0.000 C 
ATOM     21  C   UNL     1       7.679   7.434  17.703  0.00  0.00    +0.000 C 
ATOM     22  C   UNL     1       8.059   6.517  18.868  0.00  0.00    +0.000 C 
ENDBRANCH  19  21
ENDBRANCH  17  19
ENDBRANCH  14  17
ENDBRANCH   8  14
ENDBRANCH   1  13
BRANCH   4  23
ATOM     23  C   UNL     1       1.043  10.275  19.014  0.00  0.00    +0.000 A 
ATOM     24  C   UNL     1      -0.273  10.549  19.385  0.00  0.00    +0.000 A 
ATOM     25  N   UNL     1      -0.814  11.796  19.367  0.00  0.00    +0.000 NA
ATOM     26  C   UNL     1      -0.002  12.783  18.954  0.00  0.00    +0.000 A 
ATOM     27  C   UNL     1       1.319  12.524  18.597  0.00  0.00    +0.000 A 
ATOM     28  N   UNL     1       1.869  11.289  18.633  0.00  0.00    +0.000 NA
BRANCH  26  29
ATOM     29  N   UNL     1      -0.558  14.053  18.840  0.00  0.00    +0.000 N 
ATOM     30  H   UNL     1      -1.279  14.003  18.122  0.00  0.00    +0.000 HD
ATOM     31  H   UNL     1      -0.919  14.397  19.721  0.00  0.00    +0.000 HD
ENDBRANCH  26  29
ENDBRANCH   4  23
TORSDOF 7
ENDMDL
