MODEL 1
REMARK VINA RESULT:      -8.1      0.000      0.000
REMARK  Name = 
REMARK  9 active torsions:
REMARK  status: ('A' for Active; 'I' for Inactive)
REMARK    1  A    between atoms: C_1  and  C_2
REMARK    2  A    between atoms: C_2  and  C_3
REMARK    3  A    between atoms: C_2  and  C_4
REMARK    4  A    between atoms: C_2  and  O_5
REMARK    5  A    between atoms: O_5  and  C_6
REMARK    6  A    between atoms: C_11  and  N_12
REMARK    7  A    between atoms: C_16  and  O_17
REMARK    8  A    between atoms: O_17  and  C_18
REMARK    9  A    between atoms: C_21  and  C_22
REMARK                            x       y       z     vdW  Elec       q    Type
REMARK                         _______ _______ _______ _____ _____    ______ ____
ROOT
ATOM      1  N   UNL     1       2.899   6.779  18.763  0.00  0.00    +0.000 N 
ATOM      2  N   UNL     1       3.142   7.485  17.633  0.00  0.00    +0.000 NA
ATOM      3  C   UNL     1       2.447   8.614  17.807  0.00  0.00    +0.000 A 
ATOM      4  C   UNL     1       1.772   8.646  19.039  0.00  0.00    +0.000 A 
ATOM      5  C   UNL     1       0.945   9.503  19.752  0.00  0.00    +0.000 A 
ATOM      6  N   UNL     1       0.477   9.118  20.965  0.00  0.00    +0.000 NA
ATOM      7  C   UNL     1       0.892   7.937  21.457  0.00  0.00    +0.000 A 
ATOM      8  N   UNL     1       1.708   7.043  20.872  0.00  0.00    +0.000 NA
ATOM      9  C   UNL     1       2.102   7.452  19.653  0.00  0.00    +0.000 A 
ENDROOT
BRANCH   1  15
ATOM     10  C   UNL     1       6.694   4.323  16.441  0.00  0.00    +0.000 C 
ATOM     11  O   UNL     1       7.841   4.483  16.864  0.00  0.00    +0.000 OA
ATOM     12  N   UNL     1       5.590   4.824  17.113  0.00  0.00    +0.000 N 
ATOM     13  C   UNL     1       5.827   5.752  18.211  0.00  0.00    +0.000 C 
ATOM     14  C   UNL     1       4.903   5.454  19.379  0.00  0.00    +0.000 C 
ATOM     15  C   UNL     1       3.436   5.435  18.946  0.00  0.00    +0.000 C 
ATOM     16  C   UNL     1       3.226   4.513  17.731  0.00  0.00    +0.000 C 
ATOM     17  C   UNL     1       4.225   4.752  16.599  0.00  0.00    +0.000 C 
BRANCH  10  18
ATOM     18  O   UNL     1       6.394   3.626  15.318  0.00  0.00    +0.000 OA
BRANCH  18  20
ATOM     19  C   UNL     1       5.419   5.562  14.160  0.00  0.00    +0.000 C 
ATOM     20  C   UNL     1       6.342   4.335  14.050  0.00  0.00    +0.000 C 
ATOM     21  C   UNL     1       5.944   3.399  12.895  0.00  0.00    +0.000 C 
ATOM     22  C   UNL     1       7.762   4.848  13.759  0.00  0.00    +0.000 C 
ENDBRANCH  18  20
ENDBRANCH  10  18
ENDBRANCH   1  15
BRANCH   5  23
ATOM     23  O   UNL     1       0.590  10.739  19.226  0.00  0.00    +0.000 OA
BRANCH  23  24
ATOM     24  C   UNL     1      -0.717  10.898  18.818  0.00  0.00    +0.000 A 
ATOM     25  C   UNL     1      -1.294  10.139  17.800  0.00  0.00    +0.000 A 
ATOM     26  C   UNL     1      -2.619  10.371  17.413  0.00  0.00    +0.000 A 
ATOM     27  C   UNL     1      -3.381  11.332  18.082  0.00  0.00    +0.000 A 
ATOM     28  C   UNL     1      -2.819  12.048  19.148  0.00  0.00    +0.000 A 
ATOM     29  C   UNL     1      -1.487  11.829  19.517  0.00  0.00    +0.000 A 
BRANCH  27  30
ATOM     30  C   UNL     1      -4.732  11.578  17.675  0.00  0.00    +0.000 C 
ATOM     31  N   UNL     1      -5.829  11.781  17.355  0.00  0.00    +0.000 NA
ENDBRANCH  27  30
ENDBRANCH  23  24
ENDBRANCH   5  23
TORSDOF 6
ENDMDL
MODEL 2
REMARK VINA RESULT:      -7.5      3.587     10.356
REMARK  Name = 
REMARK  9 active torsions:
REMARK  status: ('A' for Active; 'I' for Inactive)
REMARK    1  A    between atoms: C_1  and  C_2
REMARK    2  A    between atoms: C_2  and  C_3
REMARK    3  A    between atoms: C_2  and  C_4
REMARK    4  A    between atoms: C_2  and  O_5
REMARK    5  A    between atoms: O_5  and  C_6
REMARK    6  A    between atoms: C_11  and  N_12
REMARK    7  A    between atoms: C_16  and  O_17
REMARK    8  A    between atoms: O_17  and  C_18
REMARK    9  A    between atoms: C_21  and  C_22
REMARK                            x       y       z     vdW  Elec       q    Type
REMARK                         _______ _______ _______ _____ _____    ______ ____
ROOT
ATOM      1  N   UNL     1       0.161  11.237  20.635  0.00  0.00    +0.000 N 
ATOM      2  N   UNL     1      -0.022  10.889  21.930  0.00  0.00    +0.000 NA
ATOM      3  C   UNL     1       0.463   9.645  21.998  0.00  0.00    +0.000 A 
ATOM      4  C   UNL     1       0.967   9.197  20.765  0.00  0.00    +0.000 A 
ATOM      5  C   UNL     1       1.573   8.065  20.237  0.00  0.00    +0.000 A 
ATOM      6  N   UNL     1       1.903   8.042  18.921  0.00  0.00    +0.000 NA
ATOM      7  C   UNL     1       1.686   9.153  18.195  0.00  0.00    +0.000 A 
ATOM      8  N   UNL     1       1.134  10.309  18.604  0.00  0.00    +0.000 NA
ATOM      9  C   UNL     1       0.781  10.259  19.900  0.00  0.00    +0.000 A 
ENDROOT
BRANCH   1  15
ATOM     10  C   UNL     1      -4.491  13.257  20.295  0.00  0.00    +0.000 C 
ATOM     11  O   UNL     1      -4.942  13.855  21.274  0.00  0.00    +0.000 OA
ATOM     12  N   UNL     1      -3.176  12.820  20.247  0.00  0.00    +0.000 N 
ATOM     13  C   UNL     1      -2.398  12.872  21.479  0.00  0.00    +0.000 C 
ATOM     14  C   UNL     1      -0.987  13.361  21.206  0.00  0.00    +0.000 C 
ATOM     15  C   UNL     1      -0.300  12.525  20.124  0.00  0.00    +0.000 C 
ATOM     16  C   UNL     1      -1.179  12.413  18.865  0.00  0.00    +0.000 C 
ATOM     17  C   UNL     1      -2.626  12.018  19.159  0.00  0.00    +0.000 C 
BRANCH  10  18
ATOM     18  O   UNL     1      -5.205  13.000  19.172  0.00  0.00    +0.000 OA
BRANCH  18  20
ATOM     19  C   UNL     1      -6.578  11.662  20.709  0.00  0.00    +0.000 C 
ATOM     20  C   UNL     1      -6.301  12.047  19.245  0.00  0.00    +0.000 C 
ATOM     21  C   UNL     1      -6.046  10.822  18.349  0.00  0.00    +0.000 C 
ATOM     22  C   UNL     1      -7.554  12.758  18.708  0.00  0.00    +0.000 C 
ENDBRANCH  18  20
ENDBRANCH  10  18
ENDBRANCH   1  15
BRANCH   5  23
ATOM     23  O   UNL     1       1.830   6.962  21.041  0.00  0.00    +0.000 OA
BRANCH  23  24
ATOM     24  C   UNL     1       2.248   5.809  20.414  0.00  0.00    +0.000 A 
ATOM     25  C   UNL     1       3.510   5.673  19.833  0.00  0.00    +0.000 A 
ATOM     26  C   UNL     1       3.861   4.483  19.185  0.00  0.00    +0.000 A 
ATOM     27  C   UNL     1       2.965   3.412  19.161  0.00  0.00    +0.000 A 
ATOM     28  C   UNL     1       1.724   3.529  19.801  0.00  0.00    +0.000 A 
ATOM     29  C   UNL     1       1.366   4.727  20.429  0.00  0.00    +0.000 A 
BRANCH  27  30
ATOM     30  C   UNL     1       3.321   2.202  18.484  0.00  0.00    +0.000 C 
ATOM     31  N   UNL     1       3.619   1.220  17.941  0.00  0.00    +0.000 NA
ENDBRANCH  27  30
ENDBRANCH  23  24
ENDBRANCH   5  23
TORSDOF 6
ENDMDL
MODEL 3
REMARK VINA RESULT:      -7.4      3.660     10.980
REMARK  Name = 
REMARK  9 active torsions:
REMARK  status: ('A' for Active; 'I' for Inactive)
REMARK    1  A    between atoms: C_1  and  C_2
REMARK    2  A    between atoms: C_2  and  C_3
REMARK    3  A    between atoms: C_2  and  C_4
REMARK    4  A    between atoms: C_2  and  O_5
REMARK    5  A    between atoms: O_5  and  C_6
REMARK    6  A    between atoms: C_11  and  N_12
REMARK    7  A    between atoms: C_16  and  O_17
REMARK    8  A    between atoms: O_17  and  C_18
REMARK    9  A    between atoms: C_21  and  C_22
REMARK                            x       y       z     vdW  Elec       q    Type
REMARK                         _______ _______ _______ _____ _____    ______ ____
ROOT
ATOM      1  N   UNL     1      -0.324  11.770  20.837  0.00  0.00    +0.000 N 
ATOM      2  N   UNL     1      -1.067  10.643  20.939  0.00  0.00    +0.000 NA
ATOM      3  C   UNL     1      -0.567   9.846  19.989  0.00  0.00    +0.000 A 
ATOM      4  C   UNL     1       0.495  10.442  19.289  0.00  0.00    +0.000 A 
ATOM      5  C   UNL     1       1.371  10.128  18.260  0.00  0.00    +0.000 A 
ATOM      6  N   UNL     1       2.284  11.049  17.861  0.00  0.00    +0.000 NA
ATOM      7  C   UNL     1       2.342  12.212  18.531  0.00  0.00    +0.000 A 
ATOM      8  N   UNL     1       1.568  12.613  19.554  0.00  0.00    +0.000 NA
ATOM      9  C   UNL     1       0.650  11.685  19.875  0.00  0.00    +0.000 A 
ENDROOT
BRANCH   1  15
ATOM     10  C   UNL     1      -4.624  13.473  22.944  0.00  0.00    +0.000 C 
ATOM     11  O   UNL     1      -4.960  13.017  24.039  0.00  0.00    +0.000 OA
ATOM     12  N   UNL     1      -3.392  13.185  22.378  0.00  0.00    +0.000 N 
ATOM     13  C   UNL     1      -2.589  12.138  22.997  0.00  0.00    +0.000 C 
ATOM     14  C   UNL     1      -1.126  12.541  23.054  0.00  0.00    +0.000 C 
ATOM     15  C   UNL     1      -0.596  12.935  21.674  0.00  0.00    +0.000 C 
ATOM     16  C   UNL     1      -1.508  13.979  21.005  0.00  0.00    +0.000 C 
ATOM     17  C   UNL     1      -2.992  13.613  21.041  0.00  0.00    +0.000 C 
BRANCH  10  18
ATOM     18  O   UNL     1      -5.392  14.313  22.208  0.00  0.00    +0.000 OA
BRANCH  18  20
ATOM     19  C   UNL     1      -7.815  14.060  22.534  0.00  0.00    +0.000 C 
ATOM     20  C   UNL     1      -6.613  13.798  21.609  0.00  0.00    +0.000 C 
ATOM     21  C   UNL     1      -6.473  12.313  21.229  0.00  0.00    +0.000 C 
ATOM     22  C   UNL     1      -6.847  14.586  20.310  0.00  0.00    +0.000 C 
ENDBRANCH  18  20
ENDBRANCH  10  18
ENDBRANCH   1  15
BRANCH   5  23
ATOM     23  O   UNL     1       1.310   8.888  17.635  0.00  0.00    +0.000 OA
BRANCH  23  24
ATOM     24  C   UNL     1       2.289   7.972  17.956  0.00  0.00    +0.000 A 
ATOM     25  C   UNL     1       3.417   7.755  17.165  0.00  0.00    +0.000 A 
ATOM     26  C   UNL     1       4.359   6.788  17.533  0.00  0.00    +0.000 A 
ATOM     27  C   UNL     1       4.195   6.072  18.721  0.00  0.00    +0.000 A 
ATOM     28  C   UNL     1       3.094   6.338  19.547  0.00  0.00    +0.000 A 
ATOM     29  C   UNL     1       2.141   7.290  19.165  0.00  0.00    +0.000 A 
BRANCH  27  30
ATOM     30  C   UNL     1       5.152   5.073  19.088  0.00  0.00    +0.000 C 
ATOM     31  N   UNL     1       5.928   4.259  19.375  0.00  0.00    +0.000 NA
ENDBRANCH  27  30
ENDBRANCH  23  24
ENDBRANCH   5  23
TORSDOF 6
ENDMDL
MODEL 4
REMARK VINA RESULT:      -7.4      3.636     11.194
REMARK  Name = 
REMARK  9 active torsions:
REMARK  status: ('A' for Active; 'I' for Inactive)
REMARK    1  A    between atoms: C_1  and  C_2
REMARK    2  A    between atoms: C_2  and  C_3
REMARK    3  A    between atoms: C_2  and  C_4
REMARK    4  A    between atoms: C_2  and  O_5
REMARK    5  A    between atoms: O_5  and  C_6
REMARK    6  A    between atoms: C_11  and  N_12
REMARK    7  A    between atoms: C_16  and  O_17
REMARK    8  A    between atoms: O_17  and  C_18
REMARK    9  A    between atoms: C_21  and  C_22
REMARK                            x       y       z     vdW  Elec       q    Type
REMARK                         _______ _______ _______ _____ _____    ______ ____
ROOT
ATOM      1  N   UNL     1      -0.329  11.755  20.439  0.00  0.00    +0.000 N 
ATOM      2  N   UNL     1      -0.637  11.761  19.121  0.00  0.00    +0.000 NA
ATOM      3  C   UNL     1      -0.110  10.620  18.665  0.00  0.00    +0.000 A 
ATOM      4  C   UNL     1       0.520   9.876  19.677  0.00  0.00    +0.000 A 
ATOM      5  C   UNL     1       1.200   8.674  19.817  0.00  0.00    +0.000 A 
ATOM      6  N   UNL     1       1.684   8.323  21.035  0.00  0.00    +0.000 NA
ATOM      7  C   UNL     1       1.424   9.133  22.076  0.00  0.00    +0.000 A 
ATOM      8  N   UNL     1       0.757  10.300  22.065  0.00  0.00    +0.000 NA
ATOM      9  C   UNL     1       0.343  10.623  20.827  0.00  0.00    +0.000 A 
ENDROOT
BRANCH   1  15
ATOM     10  C   UNL     1      -4.540  12.778  23.094  0.00  0.00    +0.000 C 
ATOM     11  O   UNL     1      -4.649  12.299  24.225  0.00  0.00    +0.000 OA
ATOM     12  N   UNL     1      -3.361  12.683  22.371  0.00  0.00    +0.000 N 
ATOM     13  C   UNL     1      -2.322  11.796  22.880  0.00  0.00    +0.000 C 
ATOM     14  C   UNL     1      -0.951  12.435  22.742  0.00  0.00    +0.000 C 
ATOM     15  C   UNL     1      -0.678  12.878  21.304  0.00  0.00    +0.000 C 
ATOM     16  C   UNL     1      -1.830  13.743  20.759  0.00  0.00    +0.000 C 
ATOM     17  C   UNL     1      -3.215  13.139  20.992  0.00  0.00    +0.000 C 
BRANCH  10  18
ATOM     18  O   UNL     1      -5.525  13.463  22.466  0.00  0.00    +0.000 OA
BRANCH  18  20
ATOM     19  C   UNL     1      -5.216  15.356  24.003  0.00  0.00    +0.000 C 
ATOM     20  C   UNL     1      -6.219  14.513  23.194  0.00  0.00    +0.000 C 
ATOM     21  C   UNL     1      -7.351  13.943  24.067  0.00  0.00    +0.000 C 
ATOM     22  C   UNL     1      -6.865  15.438  22.150  0.00  0.00    +0.000 C 
ENDBRANCH  18  20
ENDBRANCH  10  18
ENDBRANCH   1  15
BRANCH   5  23
ATOM     23  O   UNL     1       1.394   7.842  18.722  0.00  0.00    +0.000 OA
BRANCH  23  24
ATOM     24  C   UNL     1       2.568   7.121  18.679  0.00  0.00    +0.000 A 
ATOM     25  C   UNL     1       2.838   6.055  19.537  0.00  0.00    +0.000 A 
ATOM     26  C   UNL     1       4.063   5.383  19.461  0.00  0.00    +0.000 A 
ATOM     27  C   UNL     1       4.999   5.748  18.490  0.00  0.00    +0.000 A 
ATOM     28  C   UNL     1       4.698   6.777  17.586  0.00  0.00    +0.000 A 
ATOM     29  C   UNL     1       3.481   7.463  17.680  0.00  0.00    +0.000 A 
BRANCH  27  30
ATOM     30  C   UNL     1       6.257   5.069  18.423  0.00  0.00    +0.000 C 
ATOM     31  N   UNL     1       7.279   4.520  18.380  0.00  0.00    +0.000 NA
ENDBRANCH  27  30
ENDBRANCH  23  24
ENDBRANCH   5  23
TORSDOF 6
ENDMDL
MODEL 5
REMARK VINA RESULT:      -7.4      3.445     10.980
REMARK  Name = 
REMARK  9 active torsions:
REMARK  status: ('A' for Active; 'I' for Inactive)
REMARK    1  A    between atoms: C_1  and  C_2
REMARK    2  A    between atoms: C_2  and  C_3
REMARK    3  A    between atoms: C_2  and  C_4
REMARK    4  A    between atoms: C_2  and  O_5
REMARK    5  A    between atoms: O_5  and  C_6
REMARK    6  A    between atoms: C_11  and  N_12
REMARK    7  A    between atoms: C_16  and  O_17
REMARK    8  A    between atoms: O_17  and  C_18
REMARK    9  A    between atoms: C_21  and  C_22
REMARK                            x       y       z     vdW  Elec       q    Type
REMARK                         _______ _______ _______ _____ _____    ______ ____
ROOT
ATOM      1  N   UNL     1      -0.410  12.101  20.584  0.00  0.00    +0.000 N 
ATOM      2  N   UNL     1      -0.635  12.285  19.261  0.00  0.00    +0.000 NA
ATOM      3  C   UNL     1      -0.100  11.199  18.693  0.00  0.00    +0.000 A 
ATOM      4  C   UNL     1       0.452  10.315  19.635  0.00  0.00    +0.000 A 
ATOM      5  C   UNL     1       1.102   9.089  19.658  0.00  0.00    +0.000 A 
ATOM      6  N   UNL     1       1.503   8.571  20.846  0.00  0.00    +0.000 NA
ATOM      7  C   UNL     1       1.191   9.246  21.966  0.00  0.00    +0.000 A 
ATOM      8  N   UNL     1       0.546  10.421  22.068  0.00  0.00    +0.000 NA
ATOM      9  C   UNL     1       0.217  10.912  20.860  0.00  0.00    +0.000 A 
ENDROOT
BRANCH   1  15
ATOM     10  C   UNL     1      -4.809  12.975  22.973  0.00  0.00    +0.000 C 
ATOM     11  O   UNL     1      -5.046  12.352  24.010  0.00  0.00    +0.000 OA
ATOM     12  N   UNL     1      -3.571  12.917  22.352  0.00  0.00    +0.000 N 
ATOM     13  C   UNL     1      -2.624  11.913  22.819  0.00  0.00    +0.000 C 
ATOM     14  C   UNL     1      -1.220  12.489  22.895  0.00  0.00    +0.000 C 
ATOM     15  C   UNL     1      -0.794  13.111  21.565  0.00  0.00    +0.000 C 
ATOM     16  C   UNL     1      -1.851  14.105  21.049  0.00  0.00    +0.000 C 
ATOM     17  C   UNL     1      -3.276  13.550  21.070  0.00  0.00    +0.000 C 
BRANCH  10  18
ATOM     18  O   UNL     1      -5.701  13.793  22.364  0.00  0.00    +0.000 OA
BRANCH  18  20
ATOM     19  C   UNL     1      -7.504  14.157  20.733  0.00  0.00    +0.000 C 
ATOM     20  C   UNL     1      -6.902  13.210  21.787  0.00  0.00    +0.000 C 
ATOM     21  C   UNL     1      -7.916  12.814  22.875  0.00  0.00    +0.000 C 
ATOM     22  C   UNL     1      -6.476  11.922  21.063  0.00  0.00    +0.000 C 
ENDBRANCH  18  20
ENDBRANCH  10  18
ENDBRANCH   1  15
BRANCH   5  23
ATOM     23  O   UNL     1       1.350   8.400  18.477  0.00  0.00    +0.000 OA
BRANCH  23  24
ATOM     24  C   UNL     1       2.421   7.532  18.467  0.00  0.00    +0.000 A 
ATOM     25  C   UNL     1       2.501   6.413  19.297  0.00  0.00    +0.000 A 
ATOM     26  C   UNL     1       3.630   5.588  19.258  0.00  0.00    +0.000 A 
ATOM     27  C   UNL     1       4.658   5.857  18.351  0.00  0.00    +0.000 A 
ATOM     28  C   UNL     1       4.546   6.944  17.474  0.00  0.00    +0.000 A 
ATOM     29  C   UNL     1       3.425   7.781  17.530  0.00  0.00    +0.000 A 
BRANCH  27  30
ATOM     30  C   UNL     1       5.819   5.020  18.323  0.00  0.00    +0.000 C 
ATOM     31  N   UNL     1       6.755   4.333  18.304  0.00  0.00    +0.000 NA
ENDBRANCH  27  30
ENDBRANCH  23  24
ENDBRANCH   5  23
TORSDOF 6
ENDMDL
MODEL 6
REMARK VINA RESULT:      -7.4      4.068     10.886
REMARK  Name = 
REMARK  9 active torsions:
REMARK  status: ('A' for Active; 'I' for Inactive)
REMARK    1  A    between atoms: C_1  and  C_2
REMARK    2  A    between atoms: C_2  and  C_3
REMARK    3  A    between atoms: C_2  and  C_4
REMARK    4  A    between atoms: C_2  and  O_5
REMARK    5  A    between atoms: O_5  and  C_6
REMARK    6  A    between atoms: C_11  and  N_12
REMARK    7  A    between atoms: C_16  and  O_17
REMARK    8  A    between atoms: O_17  and  C_18
REMARK    9  A    between atoms: C_21  and  C_22
REMARK                            x       y       z     vdW  Elec       q    Type
REMARK                         _______ _______ _______ _____ _____    ______ ____
ROOT
ATOM      1  N   UNL     1      -0.479  12.939  20.048  0.00  0.00    +0.000 N 
ATOM      2  N   UNL     1       0.720  13.045  20.670  0.00  0.00    +0.000 NA
ATOM      3  C   UNL     1       1.408  11.992  20.217  0.00  0.00    +0.000 A 
ATOM      4  C   UNL     1       0.671  11.221  19.302  0.00  0.00    +0.000 A 
ATOM      5  C   UNL     1       0.839  10.080  18.529  0.00  0.00    +0.000 A 
ATOM      6  N   UNL     1      -0.188   9.646  17.755  0.00  0.00    +0.000 NA
ATOM      7  C   UNL     1      -1.311  10.385  17.722  0.00  0.00    +0.000 A 
ATOM      8  N   UNL     1      -1.574  11.514  18.403  0.00  0.00    +0.000 NA
ATOM      9  C   UNL     1      -0.544  11.870  19.190  0.00  0.00    +0.000 A 
ENDROOT
BRANCH   1  15
ATOM     10  C   UNL     1      -3.944  13.098  23.763  0.00  0.00    +0.000 C 
ATOM     11  O   UNL     1      -3.639  13.646  24.824  0.00  0.00    +0.000 OA
ATOM     12  N   UNL     1      -3.121  13.153  22.649  0.00  0.00    +0.000 N 
ATOM     13  C   UNL     1      -1.771  13.674  22.827  0.00  0.00    +0.000 C 
ATOM     14  C   UNL     1      -1.385  14.581  21.671  0.00  0.00    +0.000 C 
ATOM     15  C   UNL     1      -1.560  13.880  20.323  0.00  0.00    +0.000 C 
ATOM     16  C   UNL     1      -2.965  13.264  20.193  0.00  0.00    +0.000 C 
ATOM     17  C   UNL     1      -3.386  12.434  21.406  0.00  0.00    +0.000 C 
BRANCH  10  18
ATOM     18  O   UNL     1      -5.105  12.428  23.565  0.00  0.00    +0.000 OA
BRANCH  18  20
ATOM     19  C   UNL     1      -6.907  12.529  21.897  0.00  0.00    +0.000 C 
ATOM     20  C   UNL     1      -6.279  13.176  23.144  0.00  0.00    +0.000 C 
ATOM     21  C   UNL     1      -5.954  14.666  22.936  0.00  0.00    +0.000 C 
ATOM     22  C   UNL     1      -7.307  13.083  24.283  0.00  0.00    +0.000 C 
ENDBRANCH  18  20
ENDBRANCH  10  18
ENDBRANCH   1  15
BRANCH   5  23
ATOM     23  O   UNL     1       2.040   9.382  18.552  0.00  0.00    +0.000 OA
BRANCH  23  24
ATOM     24  C   UNL     1       2.021   8.115  19.094  0.00  0.00    +0.000 A 
ATOM     25  C   UNL     1       2.478   6.988  18.409  0.00  0.00    +0.000 A 
ATOM     26  C   UNL     1       2.404   5.724  19.006  0.00  0.00    +0.000 A 
ATOM     27  C   UNL     1       1.917   5.597  20.309  0.00  0.00    +0.000 A 
ATOM     28  C   UNL     1       1.519   6.739  21.018  0.00  0.00    +0.000 A 
ATOM     29  C   UNL     1       1.573   7.999  20.410  0.00  0.00    +0.000 A 
BRANCH  27  30
ATOM     30  C   UNL     1       1.828   4.302  20.912  0.00  0.00    +0.000 C 
ATOM     31  N   UNL     1       1.752   3.248  21.391  0.00  0.00    +0.000 NA
ENDBRANCH  27  30
ENDBRANCH  23  24
ENDBRANCH   5  23
TORSDOF 6
ENDMDL
MODEL 7
REMARK VINA RESULT:      -7.4      2.843     10.409
REMARK  Name = 
REMARK  9 active torsions:
REMARK  status: ('A' for Active; 'I' for Inactive)
REMARK    1  A    between atoms: C_1  and  C_2
REMARK    2  A    between atoms: C_2  and  C_3
REMARK    3  A    between atoms: C_2  and  C_4
REMARK    4  A    between atoms: C_2  and  O_5
REMARK    5  A    between atoms: O_5  and  C_6
REMARK    6  A    between atoms: C_11  and  N_12
REMARK    7  A    between atoms: C_16  and  O_17
REMARK    8  A    between atoms: O_17  and  C_18
REMARK    9  A    between atoms: C_21  and  C_22
REMARK                            x       y       z     vdW  Elec       q    Type
REMARK                         _______ _______ _______ _____ _____    ______ ____
ROOT
ATOM      1  N   UNL     1       0.458  11.035  21.202  0.00  0.00    +0.000 N 
ATOM      2  N   UNL     1       0.403  10.207  22.272  0.00  0.00    +0.000 NA
ATOM      3  C   UNL     1       0.834   9.037  21.791  0.00  0.00    +0.000 A 
ATOM      4  C   UNL     1       1.179   9.107  20.430  0.00  0.00    +0.000 A 
ATOM      5  C   UNL     1       1.669   8.274  19.435  0.00  0.00    +0.000 A 
ATOM      6  N   UNL     1       1.851   8.768  18.185  0.00  0.00    +0.000 NA
ATOM      7  C   UNL     1       1.607  10.074  17.980  0.00  0.00    +0.000 A 
ATOM      8  N   UNL     1       1.159  10.978  18.869  0.00  0.00    +0.000 NA
ATOM      9  C   UNL     1       0.948  10.424  20.076  0.00  0.00    +0.000 A 
ENDROOT
BRANCH   1  15
ATOM     10  C   UNL     1      -4.204  13.059  21.210  0.00  0.00    +0.000 C 
ATOM     11  O   UNL     1      -4.806  13.137  22.283  0.00  0.00    +0.000 OA
ATOM     12  N   UNL     1      -2.874  12.673  21.144  0.00  0.00    +0.000 N 
ATOM     13  C   UNL     1      -2.264  12.129  22.352  0.00  0.00    +0.000 C 
ATOM     14  C   UNL     1      -0.855  12.665  22.533  0.00  0.00    +0.000 C 
ATOM     15  C   UNL     1       0.005  12.420  21.292  0.00  0.00    +0.000 C 
ATOM     16  C   UNL     1      -0.698  12.926  20.019  0.00  0.00    +0.000 C 
ATOM     17  C   UNL     1      -2.150  12.464  19.894  0.00  0.00    +0.000 C 
BRANCH  10  18
ATOM     18  O   UNL     1      -4.753  13.369  20.011  0.00  0.00    +0.000 OA
BRANCH  18  20
ATOM     19  C   UNL     1      -7.169  13.823  20.013  0.00  0.00    +0.000 C 
ATOM     20  C   UNL     1      -6.056  12.815  19.676  0.00  0.00    +0.000 C 
ATOM     21  C   UNL     1      -6.276  11.446  20.345  0.00  0.00    +0.000 C 
ATOM     22  C   UNL     1      -6.075  12.593  18.155  0.00  0.00    +0.000 C 
ENDBRANCH  18  20
ENDBRANCH  10  18
ENDBRANCH   1  15
BRANCH   5  23
ATOM     23  O   UNL     1       1.961   6.944  19.709  0.00  0.00    +0.000 OA
BRANCH  23  24
ATOM     24  C   UNL     1       2.807   6.292  18.838  0.00  0.00    +0.000 A 
ATOM     25  C   UNL     1       4.070   6.778  18.496  0.00  0.00    +0.000 A 
ATOM     26  C   UNL     1       4.868   6.082  17.581  0.00  0.00    +0.000 A 
ATOM     27  C   UNL     1       4.420   4.872  17.047  0.00  0.00    +0.000 A 
ATOM     28  C   UNL     1       3.180   4.353  17.442  0.00  0.00    +0.000 A 
ATOM     29  C   UNL     1       2.374   5.062  18.340  0.00  0.00    +0.000 A 
BRANCH  27  30
ATOM     30  C   UNL     1       5.232   4.169  16.100  0.00  0.00    +0.000 C 
ATOM     31  N   UNL     1       5.888   3.590  15.337  0.00  0.00    +0.000 NA
ENDBRANCH  27  30
ENDBRANCH  23  24
ENDBRANCH   5  23
TORSDOF 6
ENDMDL
MODEL 8
REMARK VINA RESULT:      -7.3      6.001      8.714
REMARK  Name = 
REMARK  9 active torsions:
REMARK  status: ('A' for Active; 'I' for Inactive)
REMARK    1  A    between atoms: C_1  and  C_2
REMARK    2  A    between atoms: C_2  and  C_3
REMARK    3  A    between atoms: C_2  and  C_4
REMARK    4  A    between atoms: C_2  and  O_5
REMARK    5  A    between atoms: O_5  and  C_6
REMARK    6  A    between atoms: C_11  and  N_12
REMARK    7  A    between atoms: C_16  and  O_17
REMARK    8  A    between atoms: O_17  and  C_18
REMARK    9  A    between atoms: C_21  and  C_22
REMARK                            x       y       z     vdW  Elec       q    Type
REMARK                         _______ _______ _______ _____ _____    ______ ____
ROOT
ATOM      1  N   UNL     1       3.012  14.464  19.499  0.00  0.00    +0.000 N 
ATOM      2  N   UNL     1       3.378  13.878  18.334  0.00  0.00    +0.000 NA
ATOM      3  C   UNL     1       2.530  12.851  18.215  0.00  0.00    +0.000 A 
ATOM      4  C   UNL     1       1.617  12.781  19.280  0.00  0.00    +0.000 A 
ATOM      5  C   UNL     1       0.551  11.990  19.689  0.00  0.00    +0.000 A 
ATOM      6  N   UNL     1      -0.080  12.277  20.855  0.00  0.00    +0.000 NA
ATOM      7  C   UNL     1       0.318  13.365  21.537  0.00  0.00    +0.000 A 
ATOM      8  N   UNL     1       1.313  14.214  21.227  0.00  0.00    +0.000 NA
ATOM      9  C   UNL     1       1.935  13.855  20.090  0.00  0.00    +0.000 A 
ENDROOT
BRANCH   1  15
ATOM     10  C   UNL     1       7.972  15.575  19.529  0.00  0.00    +0.000 C 
ATOM     11  O   UNL     1       8.450  16.145  18.546  0.00  0.00    +0.000 OA
ATOM     12  N   UNL     1       6.606  15.383  19.670  0.00  0.00    +0.000 N 
ATOM     13  C   UNL     1       5.759  15.659  18.517  0.00  0.00    +0.000 C 
ATOM     14  C   UNL     1       4.489  16.377  18.939  0.00  0.00    +0.000 C 
ATOM     15  C   UNL     1       3.744  15.609  20.032  0.00  0.00    +0.000 C 
ATOM     16  C   UNL     1       4.681  15.255  21.202  0.00  0.00    +0.000 C 
ATOM     17  C   UNL     1       6.001  14.623  20.760  0.00  0.00    +0.000 C 
BRANCH  10  18
ATOM     18  O   UNL     1       8.709  15.117  20.569  0.00  0.00    +0.000 OA
BRANCH  18  20
ATOM     19  C   UNL     1      11.034  14.515  20.046  0.00  0.00    +0.000 C 
ATOM     20  C   UNL     1       9.615  14.001  20.345  0.00  0.00    +0.000 C 
ATOM     21  C   UNL     1       9.086  13.056  19.251  0.00  0.00    +0.000 C 
ATOM     22  C   UNL     1       9.678  13.200  21.655  0.00  0.00    +0.000 C 
ENDBRANCH  18  20
ENDBRANCH  10  18
ENDBRANCH   1  15
BRANCH   5  23
ATOM     23  O   UNL     1       0.139  10.909  18.919  0.00  0.00    +0.000 OA
BRANCH  23  24
ATOM     24  C   UNL     1       0.881   9.751  19.012  0.00  0.00    +0.000 A 
ATOM     25  C   UNL     1       1.592   9.215  17.937  0.00  0.00    +0.000 A 
ATOM     26  C   UNL     1       2.302   8.018  18.091  0.00  0.00    +0.000 A 
ATOM     27  C   UNL     1       2.339   7.385  19.335  0.00  0.00    +0.000 A 
ATOM     28  C   UNL     1       1.678   7.961  20.429  0.00  0.00    +0.000 A 
ATOM     29  C   UNL     1       0.950   9.145  20.267  0.00  0.00    +0.000 A 
BRANCH  27  30
ATOM     30  C   UNL     1       3.053   6.154  19.485  0.00  0.00    +0.000 C 
ATOM     31  N   UNL     1       3.625   5.151  19.600  0.00  0.00    +0.000 NA
ENDBRANCH  27  30
ENDBRANCH  23  24
ENDBRANCH   5  23
TORSDOF 6
ENDMDL
MODEL 9
REMARK VINA RESULT:      -7.3      2.979     10.627
REMARK  Name = 
REMARK  9 active torsions:
REMARK  status: ('A' for Active; 'I' for Inactive)
REMARK    1  A    between atoms: C_1  and  C_2
REMARK    2  A    between atoms: C_2  and  C_3
REMARK    3  A    between atoms: C_2  and  C_4
REMARK    4  A    between atoms: C_2  and  O_5
REMARK    5  A    between atoms: O_5  and  C_6
REMARK    6  A    between atoms: C_11  and  N_12
REMARK    7  A    between atoms: C_16  and  O_17
REMARK    8  A    between atoms: O_17  and  C_18
REMARK    9  A    between atoms: C_21  and  C_22
REMARK                            x       y       z     vdW  Elec       q    Type
REMARK                         _______ _______ _______ _____ _____    ______ ____
ROOT
ATOM      1  N   UNL     1       0.462  10.977  21.249  0.00  0.00    +0.000 N 
ATOM      2  N   UNL     1       0.561  10.180  22.340  0.00  0.00    +0.000 NA
ATOM      3  C   UNL     1       1.032   9.028  21.851  0.00  0.00    +0.000 A 
ATOM      4  C   UNL     1       1.250   9.081  20.464  0.00  0.00    +0.000 A 
ATOM      5  C   UNL     1       1.711   8.254  19.449  0.00  0.00    +0.000 A 
ATOM      6  N   UNL     1       1.746   8.721  18.176  0.00  0.00    +0.000 NA
ATOM      7  C   UNL     1       1.391  10.000  17.962  0.00  0.00    +0.000 A 
ATOM      8  N   UNL     1       0.958  10.896  18.865  0.00  0.00    +0.000 NA
ATOM      9  C   UNL     1       0.895  10.366  20.099  0.00  0.00    +0.000 A 
ENDROOT
BRANCH   1  15
ATOM     10  C   UNL     1      -4.279  12.657  21.974  0.00  0.00    +0.000 C 
ATOM     11  O   UNL     1      -4.692  12.762  23.131  0.00  0.00    +0.000 OA
ATOM     12  N   UNL     1      -2.953  12.364  21.695  0.00  0.00    +0.000 N 
ATOM     13  C   UNL     1      -2.103  11.946  22.803  0.00  0.00    +0.000 C 
ATOM     14  C   UNL     1      -0.732  12.592  22.704  0.00  0.00    +0.000 C 
ATOM     15  C   UNL     1      -0.081  12.328  21.346  0.00  0.00    +0.000 C 
ATOM     16  C   UNL     1      -1.031  12.697  20.192  0.00  0.00    +0.000 C 
ATOM     17  C   UNL     1      -2.440  12.125  20.350  0.00  0.00    +0.000 C 
BRANCH  10  18
ATOM     18  O   UNL     1      -5.050  12.848  20.877  0.00  0.00    +0.000 OA
BRANCH  18  20
ATOM     19  C   UNL     1      -6.192  14.242  19.206  0.00  0.00    +0.000 C 
ATOM     20  C   UNL     1      -5.569  14.180  20.612  0.00  0.00    +0.000 C 
ATOM     21  C   UNL     1      -4.494  15.259  20.830  0.00  0.00    +0.000 C 
ATOM     22  C   UNL     1      -6.694  14.438  21.628  0.00  0.00    +0.000 C 
ENDBRANCH  18  20
ENDBRANCH  10  18
ENDBRANCH   1  15
BRANCH   5  23
ATOM     23  O   UNL     1       2.122   6.956  19.729  0.00  0.00    +0.000 OA
BRANCH  23  24
ATOM     24  C   UNL     1       2.939   6.341  18.805  0.00  0.00    +0.000 A 
ATOM     25  C   UNL     1       4.110   6.923  18.319  0.00  0.00    +0.000 A 
ATOM     26  C   UNL     1       4.880   6.257  17.358  0.00  0.00    +0.000 A 
ATOM     27  C   UNL     1       4.501   4.985  16.921  0.00  0.00    +0.000 A 
ATOM     28  C   UNL     1       3.359   4.377  17.459  0.00  0.00    +0.000 A 
ATOM     29  C   UNL     1       2.578   5.054  18.403  0.00  0.00    +0.000 A 
BRANCH  27  30
ATOM     30  C   UNL     1       5.281   4.313  15.927  0.00  0.00    +0.000 C 
ATOM     31  N   UNL     1       5.918   3.777  15.118  0.00  0.00    +0.000 NA
ENDBRANCH  27  30
ENDBRANCH  23  24
ENDBRANCH   5  23
TORSDOF 6
ENDMDL
