MODEL 1
REMARK VINA RESULT:      -6.7      0.000      0.000
REMARK  Name = 
REMARK  10 active torsions:
REMARK  status: ('A' for Active; 'I' for Inactive)
REMARK    1  A    between atoms: C_1  and  C_2
REMARK    2  A    between atoms: C_2  and  C_9
REMARK    3  A    between atoms: C_3  and  C_4
REMARK    4  A    between atoms: C_4  and  C_5
REMARK    5  A    between atoms: C_5  and  C_6
REMARK    6  A    between atoms: C_6  and  C_7
REMARK    7  A    between atoms: C_6  and  O_8
REMARK    8  A    between atoms: C_9  and  C_10
REMARK    9  A    between atoms: C_12  and  C_13
REMARK   10  A    between atoms: C_12  and  C_14
REMARK                            x       y       z     vdW  Elec       q    Type
REMARK                         _______ _______ _______ _____ _____    ______ ____
ROOT
ATOM      1  C   UNL     1       7.620   4.721  17.356  0.00  0.00    +0.000 C 
ATOM      2  C   UNL     1       6.505   4.668  16.335  0.00  0.00    +0.000 C 
ATOM      3  C   UNL     1       6.676   3.942  15.211  0.00  0.00    +0.000 C 
ENDROOT
BRANCH   3   4
ATOM      4  C   UNL     1       5.745   3.759  14.043  0.00  0.00    +0.000 C 
BRANCH   4   5
ATOM      5  C   UNL     1       6.432   3.819  12.665  0.00  0.00    +0.000 C 
BRANCH   5   6
ATOM      6  C   UNL     1       5.797   2.944  11.574  0.00  0.00    +0.000 C 
ATOM      7  C   UNL     1       4.308   3.242  11.430  0.00  0.00    +0.000 C 
BRANCH   6   8
ATOM      8  O   UNL     1       5.900   1.559  11.897  0.00  0.00    +0.000 OA
ATOM      9  H   UNL     1       6.043   1.054  11.082  0.00  0.00    +0.000 HD
ENDBRANCH   6   8
ENDBRANCH   5   6
ENDBRANCH   4   5
ENDBRANCH   3   4
BRANCH   2  10
ATOM     10  C   UNL     1       5.245   5.446  16.709  0.00  0.00    +0.000 C 
BRANCH  10  11
ATOM     11  C   UNL     1       4.310   4.701  17.599  0.00  0.00    +0.000 C 
ATOM     12  C   UNL     1       3.298   3.874  17.301  0.00  0.00    +0.000 C 
ATOM     13  C   UNL     1       2.605   3.244  18.485  0.00  0.00    +0.000 C 
ATOM     14  C   UNL     1       2.874   1.733  18.496  0.00  0.00    +0.000 C 
ATOM     15  C   UNL     1       1.093   3.493  18.453  0.00  0.00    +0.000 C 
ATOM     16  C   UNL     1       3.266   3.928  19.696  0.00  0.00    +0.000 C 
ATOM     17  C   UNL     1       4.325   4.792  19.071  0.00  0.00    +0.000 C 
ATOM     18  O   UNL     1       5.093   5.511  19.696  0.00  0.00    +0.000 OA
ENDBRANCH  10  11
ENDBRANCH   2  10
TORSDOF 6
ENDMDL
MODEL 2
REMARK VINA RESULT:      -6.5      1.696      2.614
REMARK  Name = 
REMARK  10 active torsions:
REMARK  status: ('A' for Active; 'I' for Inactive)
REMARK    1  A    between atoms: C_1  and  C_2
REMARK    2  A    between atoms: C_2  and  C_9
REMARK    3  A    between atoms: C_3  and  C_4
REMARK    4  A    between atoms: C_4  and  C_5
REMARK    5  A    between atoms: C_5  and  C_6
REMARK    6  A    between atoms: C_6  and  C_7
REMARK    7  A    between atoms: C_6  and  O_8
REMARK    8  A    between atoms: C_9  and  C_10
REMARK    9  A    between atoms: C_12  and  C_13
REMARK   10  A    between atoms: C_12  and  C_14
REMARK                            x       y       z     vdW  Elec       q    Type
REMARK                         _______ _______ _______ _____ _____    ______ ____
ROOT
ATOM      1  C   UNL     1       4.254   6.706  17.446  0.00  0.00    +0.000 C 
ATOM      2  C   UNL     1       4.962   5.523  16.824  0.00  0.00    +0.000 C 
ATOM      3  C   UNL     1       5.563   5.671  15.625  0.00  0.00    +0.000 C 
ENDROOT
BRANCH   3   4
ATOM      4  C   UNL     1       6.293   4.652  14.792  0.00  0.00    +0.000 C 
BRANCH   4   5
ATOM      5  C   UNL     1       5.421   3.957  13.730  0.00  0.00    +0.000 C 
BRANCH   5   6
ATOM      6  C   UNL     1       6.192   3.251  12.604  0.00  0.00    +0.000 C 
ATOM      7  C   UNL     1       7.105   4.227  11.868  0.00  0.00    +0.000 C 
BRANCH   6   8
ATOM      8  O   UNL     1       5.302   2.718  11.625  0.00  0.00    +0.000 OA
ATOM      9  H   UNL     1       5.013   1.836  11.908  0.00  0.00    +0.000 HD
ENDBRANCH   6   8
ENDBRANCH   5   6
ENDBRANCH   4   5
ENDBRANCH   3   4
BRANCH   2  10
ATOM     10  C   UNL     1       4.947   4.245  17.660  0.00  0.00    +0.000 C 
BRANCH  10  11
ATOM     11  C   UNL     1       3.724   4.079  18.497  0.00  0.00    +0.000 C 
ATOM     12  C   UNL     1       3.528   4.303  19.804  0.00  0.00    +0.000 C 
ATOM     13  C   UNL     1       2.117   4.082  20.295  0.00  0.00    +0.000 C 
ATOM     14  C   UNL     1       1.502   5.422  20.719  0.00  0.00    +0.000 C 
ATOM     15  C   UNL     1       2.077   3.106  21.477  0.00  0.00    +0.000 C 
ATOM     16  C   UNL     1       1.392   3.510  19.063  0.00  0.00    +0.000 C 
ATOM     17  C   UNL     1       2.440   3.564  17.987  0.00  0.00    +0.000 C 
ATOM     18  O   UNL     1       2.269   3.200  16.832  0.00  0.00    +0.000 OA
ENDBRANCH  10  11
ENDBRANCH   2  10
TORSDOF 6
ENDMDL
MODEL 3
REMARK VINA RESULT:      -6.4      1.235      1.347
REMARK  Name = 
REMARK  10 active torsions:
REMARK  status: ('A' for Active; 'I' for Inactive)
REMARK    1  A    between atoms: C_1  and  C_2
REMARK    2  A    between atoms: C_2  and  C_9
REMARK    3  A    between atoms: C_3  and  C_4
REMARK    4  A    between atoms: C_4  and  C_5
REMARK    5  A    between atoms: C_5  and  C_6
REMARK    6  A    between atoms: C_6  and  C_7
REMARK    7  A    between atoms: C_6  and  O_8
REMARK    8  A    between atoms: C_9  and  C_10
REMARK    9  A    between atoms: C_12  and  C_13
REMARK   10  A    between atoms: C_12  and  C_14
REMARK                            x       y       z     vdW  Elec       q    Type
REMARK                         _______ _______ _______ _____ _____    ______ ____
ROOT
ATOM      1  C   UNL     1       6.345   5.075  18.333  0.00  0.00    +0.000 C 
ATOM      2  C   UNL     1       5.898   5.121  16.888  0.00  0.00    +0.000 C 
ATOM      3  C   UNL     1       6.788   4.843  15.914  0.00  0.00    +0.000 C 
ENDROOT
BRANCH   3   4
ATOM      4  C   UNL     1       6.601   4.855  14.420  0.00  0.00    +0.000 C 
BRANCH   4   5
ATOM      5  C   UNL     1       5.904   3.602  13.856  0.00  0.00    +0.000 C 
BRANCH   5   6
ATOM      6  C   UNL     1       5.991   3.430  12.332  0.00  0.00    +0.000 C 
ATOM      7  C   UNL     1       4.604   3.257  11.720  0.00  0.00    +0.000 C 
BRANCH   6   8
ATOM      8  O   UNL     1       6.731   2.261  11.987  0.00  0.00    +0.000 OA
ATOM      9  H   UNL     1       7.429   2.123  12.646  0.00  0.00    +0.000 HD
ENDBRANCH   6   8
ENDBRANCH   5   6
ENDBRANCH   4   5
ENDBRANCH   3   4
BRANCH   2  10
ATOM     10  C   UNL     1       4.424   5.464  16.677  0.00  0.00    +0.000 C 
BRANCH  10  11
ATOM     11  C   UNL     1       3.507   4.854  17.682  0.00  0.00    +0.000 C 
ATOM     12  C   UNL     1       3.143   3.577  17.865  0.00  0.00    +0.000 C 
ATOM     13  C   UNL     1       2.233   3.325  19.043  0.00  0.00    +0.000 C 
ATOM     14  C   UNL     1       2.977   2.502  20.104  0.00  0.00    +0.000 C 
ATOM     15  C   UNL     1       0.958   2.582  18.623  0.00  0.00    +0.000 C 
ATOM     16  C   UNL     1       1.918   4.738  19.565  0.00  0.00    +0.000 C 
ATOM     17  C   UNL     1       2.761   5.626  18.693  0.00  0.00    +0.000 C 
ATOM     18  O   UNL     1       2.808   6.845  18.782  0.00  0.00    +0.000 OA
ENDBRANCH  10  11
ENDBRANCH   2  10
TORSDOF 6
ENDMDL
MODEL 4
REMARK VINA RESULT:      -6.4      0.964      1.063
REMARK  Name = 
REMARK  10 active torsions:
REMARK  status: ('A' for Active; 'I' for Inactive)
REMARK    1  A    between atoms: C_1  and  C_2
REMARK    2  A    between atoms: C_2  and  C_9
REMARK    3  A    between atoms: C_3  and  C_4
REMARK    4  A    between atoms: C_4  and  C_5
REMARK    5  A    between atoms: C_5  and  C_6
REMARK    6  A    between atoms: C_6  and  C_7
REMARK    7  A    between atoms: C_6  and  O_8
REMARK    8  A    between atoms: C_9  and  C_10
REMARK    9  A    between atoms: C_12  and  C_13
REMARK   10  A    between atoms: C_12  and  C_14
REMARK                            x       y       z     vdW  Elec       q    Type
REMARK                         _______ _______ _______ _____ _____    ______ ____
ROOT
ATOM      1  C   UNL     1       7.257   6.704  17.101  0.00  0.00    +0.000 C 
ATOM      2  C   UNL     1       6.547   5.559  16.412  0.00  0.00    +0.000 C 
ATOM      3  C   UNL     1       6.140   5.711  15.134  0.00  0.00    +0.000 C 
ENDROOT
BRANCH   3   4
ATOM      4  C   UNL     1       5.393   4.748  14.251  0.00  0.00    +0.000 C 
BRANCH   4   5
ATOM      5  C   UNL     1       6.260   3.617  13.665  0.00  0.00    +0.000 C 
BRANCH   5   6
ATOM      6  C   UNL     1       6.117   3.394  12.152  0.00  0.00    +0.000 C 
ATOM      7  C   UNL     1       4.655   3.200  11.762  0.00  0.00    +0.000 C 
BRANCH   6   8
ATOM      8  O   UNL     1       6.803   2.215  11.738  0.00  0.00    +0.000 OA
ATOM      9  H   UNL     1       6.647   2.075  10.791  0.00  0.00    +0.000 HD
ENDBRANCH   6   8
ENDBRANCH   5   6
ENDBRANCH   4   5
ENDBRANCH   3   4
BRANCH   2  10
ATOM     10  C   UNL     1       6.382   4.296  17.255  0.00  0.00    +0.000 C 
BRANCH  10  11
ATOM     11  C   UNL     1       5.031   4.144  17.866  0.00  0.00    +0.000 C 
ATOM     12  C   UNL     1       3.932   3.530  17.405  0.00  0.00    +0.000 C 
ATOM     13  C   UNL     1       2.750   3.525  18.344  0.00  0.00    +0.000 C 
ATOM     14  C   UNL     1       2.468   2.091  18.812  0.00  0.00    +0.000 C 
ATOM     15  C   UNL     1       1.495   4.099  17.675  0.00  0.00    +0.000 C 
ATOM     16  C   UNL     1       3.218   4.404  19.518  0.00  0.00    +0.000 C 
ATOM     17  C   UNL     1       4.643   4.726  19.164  0.00  0.00    +0.000 C 
ATOM     18  O   UNL     1       5.390   5.410  19.848  0.00  0.00    +0.000 OA
ENDBRANCH  10  11
ENDBRANCH   2  10
TORSDOF 6
ENDMDL
MODEL 5
REMARK VINA RESULT:      -6.4      1.118      1.372
REMARK  Name = 
REMARK  10 active torsions:
REMARK  status: ('A' for Active; 'I' for Inactive)
REMARK    1  A    between atoms: C_1  and  C_2
REMARK    2  A    between atoms: C_2  and  C_9
REMARK    3  A    between atoms: C_3  and  C_4
REMARK    4  A    between atoms: C_4  and  C_5
REMARK    5  A    between atoms: C_5  and  C_6
REMARK    6  A    between atoms: C_6  and  C_7
REMARK    7  A    between atoms: C_6  and  O_8
REMARK    8  A    between atoms: C_9  and  C_10
REMARK    9  A    between atoms: C_12  and  C_13
REMARK   10  A    between atoms: C_12  and  C_14
REMARK                            x       y       z     vdW  Elec       q    Type
REMARK                         _______ _______ _______ _____ _____    ______ ____
ROOT
ATOM      1  C   UNL     1       7.480   6.878  17.352  0.00  0.00    +0.000 C 
ATOM      2  C   UNL     1       6.378   5.996  16.806  0.00  0.00    +0.000 C 
ATOM      3  C   UNL     1       6.701   4.963  16.000  0.00  0.00    +0.000 C 
ENDROOT
BRANCH   3   4
ATOM      4  C   UNL     1       5.798   3.975  15.311  0.00  0.00    +0.000 C 
BRANCH   4   5
ATOM      5  C   UNL     1       5.595   4.240  13.807  0.00  0.00    +0.000 C 
BRANCH   5   6
ATOM      6  C   UNL     1       6.568   3.506  12.871  0.00  0.00    +0.000 C 
ATOM      7  C   UNL     1       7.197   4.470  11.869  0.00  0.00    +0.000 C 
BRANCH   6   8
ATOM      8  O   UNL     1       5.894   2.511  12.103  0.00  0.00    +0.000 OA
ATOM      9  H   UNL     1       6.084   2.656  11.163  0.00  0.00    +0.000 HD
ENDBRANCH   6   8
ENDBRANCH   5   6
ENDBRANCH   4   5
ENDBRANCH   3   4
BRANCH   2  10
ATOM     10  C   UNL     1       4.968   6.362  17.263  0.00  0.00    +0.000 C 
BRANCH  10  11
ATOM     11  C   UNL     1       4.248   5.260  17.962  0.00  0.00    +0.000 C 
ATOM     12  C   UNL     1       3.046   4.718  17.724  0.00  0.00    +0.000 C 
ATOM     13  C   UNL     1       2.670   3.556  18.613  0.00  0.00    +0.000 C 
ATOM     14  C   UNL     1       2.606   2.269  17.781  0.00  0.00    +0.000 C 
ATOM     15  C   UNL     1       1.320   3.787  19.302  0.00  0.00    +0.000 C 
ATOM     16  C   UNL     1       3.822   3.495  19.632  0.00  0.00    +0.000 C 
ATOM     17  C   UNL     1       4.769   4.558  19.150  0.00  0.00    +0.000 C 
ATOM     18  O   UNL     1       5.833   4.836  19.686  0.00  0.00    +0.000 OA
ENDBRANCH  10  11
ENDBRANCH   2  10
TORSDOF 6
ENDMDL
MODEL 6
REMARK VINA RESULT:      -6.4      1.385      1.837
REMARK  Name = 
REMARK  10 active torsions:
REMARK  status: ('A' for Active; 'I' for Inactive)
REMARK    1  A    between atoms: C_1  and  C_2
REMARK    2  A    between atoms: C_2  and  C_9
REMARK    3  A    between atoms: C_3  and  C_4
REMARK    4  A    between atoms: C_4  and  C_5
REMARK    5  A    between atoms: C_5  and  C_6
REMARK    6  A    between atoms: C_6  and  C_7
REMARK    7  A    between atoms: C_6  and  O_8
REMARK    8  A    between atoms: C_9  and  C_10
REMARK    9  A    between atoms: C_12  and  C_13
REMARK   10  A    between atoms: C_12  and  C_14
REMARK                            x       y       z     vdW  Elec       q    Type
REMARK                         _______ _______ _______ _____ _____    ______ ____
ROOT
ATOM      1  C   UNL     1       5.510   5.550  18.095  0.00  0.00    +0.000 C 
ATOM      2  C   UNL     1       5.512   4.561  16.949  0.00  0.00    +0.000 C 
ATOM      3  C   UNL     1       6.355   4.754  15.914  0.00  0.00    +0.000 C 
ENDROOT
BRANCH   3   4
ATOM      4  C   UNL     1       6.521   3.944  14.657  0.00  0.00    +0.000 C 
BRANCH   4   5
ATOM      5  C   UNL     1       5.340   4.046  13.673  0.00  0.00    +0.000 C 
BRANCH   5   6
ATOM      6  C   UNL     1       5.634   3.579  12.239  0.00  0.00    +0.000 C 
ATOM      7  C   UNL     1       4.346   3.217  11.506  0.00  0.00    +0.000 C 
BRANCH   6   8
ATOM      8  O   UNL     1       6.442   2.404  12.235  0.00  0.00    +0.000 OA
ATOM      9  H   UNL     1       6.292   1.920  11.409  0.00  0.00    +0.000 HD
ENDBRANCH   6   8
ENDBRANCH   5   6
ENDBRANCH   4   5
ENDBRANCH   3   4
BRANCH   2  10
ATOM     10  C   UNL     1       4.543   3.389  17.102  0.00  0.00    +0.000 C 
BRANCH  10  11
ATOM     11  C   UNL     1       3.669   3.475  18.307  0.00  0.00    +0.000 C 
ATOM     12  C   UNL     1       2.483   4.076  18.479  0.00  0.00    +0.000 C 
ATOM     13  C   UNL     1       1.856   3.893  19.841  0.00  0.00    +0.000 C 
ATOM     14  C   UNL     1       0.585   3.043  19.713  0.00  0.00    +0.000 C 
ATOM     15  C   UNL     1       1.506   5.239  20.487  0.00  0.00    +0.000 C 
ATOM     16  C   UNL     1       2.939   3.146  20.639  0.00  0.00    +0.000 C 
ATOM     17  C   UNL     1       4.015   2.900  19.619  0.00  0.00    +0.000 C 
ATOM     18  O   UNL     1       5.067   2.319  19.846  0.00  0.00    +0.000 OA
ENDBRANCH  10  11
ENDBRANCH   2  10
TORSDOF 6
ENDMDL
MODEL 7
REMARK VINA RESULT:      -6.4      1.676      6.484
REMARK  Name = 
REMARK  10 active torsions:
REMARK  status: ('A' for Active; 'I' for Inactive)
REMARK    1  A    between atoms: C_1  and  C_2
REMARK    2  A    between atoms: C_2  and  C_9
REMARK    3  A    between atoms: C_3  and  C_4
REMARK    4  A    between atoms: C_4  and  C_5
REMARK    5  A    between atoms: C_5  and  C_6
REMARK    6  A    between atoms: C_6  and  C_7
REMARK    7  A    between atoms: C_6  and  O_8
REMARK    8  A    between atoms: C_9  and  C_10
REMARK    9  A    between atoms: C_12  and  C_13
REMARK   10  A    between atoms: C_12  and  C_14
REMARK                            x       y       z     vdW  Elec       q    Type
REMARK                         _______ _______ _______ _____ _____    ______ ____
ROOT
ATOM      1  C   UNL     1       5.095   6.626  15.820  0.00  0.00    +0.000 C 
ATOM      2  C   UNL     1       5.117   5.198  16.321  0.00  0.00    +0.000 C 
ATOM      3  C   UNL     1       4.111   4.761  17.106  0.00  0.00    +0.000 C 
ENDROOT
BRANCH   3   4
ATOM      4  C   UNL     1       3.923   3.414  17.752  0.00  0.00    +0.000 C 
BRANCH   4   5
ATOM      5  C   UNL     1       4.211   3.388  19.265  0.00  0.00    +0.000 C 
BRANCH   5   6
ATOM      6  C   UNL     1       3.039   3.803  20.167  0.00  0.00    +0.000 C 
ATOM      7  C   UNL     1       1.701   3.486  19.507  0.00  0.00    +0.000 C 
BRANCH   6   8
ATOM      8  O   UNL     1       3.046   5.209  20.406  0.00  0.00    +0.000 OA
ATOM      9  H   UNL     1       3.899   5.460  20.791  0.00  0.00    +0.000 HD
ENDBRANCH   6   8
ENDBRANCH   5   6
ENDBRANCH   4   5
ENDBRANCH   3   4
BRANCH   2  10
ATOM     10  C   UNL     1       6.304   4.362  15.846  0.00  0.00    +0.000 C 
BRANCH  10  11
ATOM     11  C   UNL     1       6.302   4.079  14.382  0.00  0.00    +0.000 C 
ATOM     12  C   UNL     1       5.595   3.191  13.669  0.00  0.00    +0.000 C 
ATOM     13  C   UNL     1       5.815   3.236  12.176  0.00  0.00    +0.000 C 
ATOM     14  C   UNL     1       4.535   3.718  11.480  0.00  0.00    +0.000 C 
ATOM     15  C   UNL     1       6.210   1.862  11.622  0.00  0.00    +0.000 C 
ATOM     16  C   UNL     1       6.950   4.262  12.009  0.00  0.00    +0.000 C 
ATOM     17  C   UNL     1       7.179   4.757  13.410  0.00  0.00    +0.000 C 
ATOM     18  O   UNL     1       8.009   5.600  13.721  0.00  0.00    +0.000 OA
ENDBRANCH  10  11
ENDBRANCH   2  10
TORSDOF 6
ENDMDL
MODEL 8
REMARK VINA RESULT:      -6.4      3.009      6.693
REMARK  Name = 
REMARK  10 active torsions:
REMARK  status: ('A' for Active; 'I' for Inactive)
REMARK    1  A    between atoms: C_1  and  C_2
REMARK    2  A    between atoms: C_2  and  C_9
REMARK    3  A    between atoms: C_3  and  C_4
REMARK    4  A    between atoms: C_4  and  C_5
REMARK    5  A    between atoms: C_5  and  C_6
REMARK    6  A    between atoms: C_6  and  C_7
REMARK    7  A    between atoms: C_6  and  O_8
REMARK    8  A    between atoms: C_9  and  C_10
REMARK    9  A    between atoms: C_12  and  C_13
REMARK   10  A    between atoms: C_12  and  C_14
REMARK                            x       y       z     vdW  Elec       q    Type
REMARK                         _______ _______ _______ _____ _____    ______ ____
ROOT
ATOM      1  C   UNL     1       2.414   7.990  17.646  0.00  0.00    +0.000 C 
ATOM      2  C   UNL     1       2.606   6.743  18.482  0.00  0.00    +0.000 C 
ATOM      3  C   UNL     1       2.164   6.731  19.757  0.00  0.00    +0.000 C 
ENDROOT
BRANCH   3   4
ATOM      4  C   UNL     1       2.265   5.641  20.790  0.00  0.00    +0.000 C 
BRANCH   4   5
ATOM      5  C   UNL     1       1.292   4.466  20.573  0.00  0.00    +0.000 C 
BRANCH   5   6
ATOM      6  C   UNL     1       1.905   3.066  20.726  0.00  0.00    +0.000 C 
ATOM      7  C   UNL     1       1.455   2.144  19.598  0.00  0.00    +0.000 C 
BRANCH   6   8
ATOM      8  O   UNL     1       1.485   2.449  21.941  0.00  0.00    +0.000 OA
ATOM      9  H   UNL     1       0.836   1.758  21.737  0.00  0.00    +0.000 HD
ENDBRANCH   6   8
ENDBRANCH   5   6
ENDBRANCH   4   5
ENDBRANCH   3   4
BRANCH   2  10
ATOM     10  C   UNL     1       3.280   5.577  17.762  0.00  0.00    +0.000 C 
BRANCH  10  11
ATOM     11  C   UNL     1       4.750   5.741  17.580  0.00  0.00    +0.000 C 
ATOM     12  C   UNL     1       5.635   6.473  18.272  0.00  0.00    +0.000 C 
ATOM     13  C   UNL     1       7.074   6.338  17.830  0.00  0.00    +0.000 C 
ATOM     14  C   UNL     1       7.888   5.644  18.930  0.00  0.00    +0.000 C 
ATOM     15  C   UNL     1       7.698   7.703  17.516  0.00  0.00    +0.000 C 
ATOM     16  C   UNL     1       6.984   5.454  16.574  0.00  0.00    +0.000 C 
ATOM     17  C   UNL     1       5.524   5.103  16.499  0.00  0.00    +0.000 C 
ATOM     18  O   UNL     1       5.022   4.399  15.634  0.00  0.00    +0.000 OA
ENDBRANCH  10  11
ENDBRANCH   2  10
TORSDOF 6
ENDMDL
MODEL 9
REMARK VINA RESULT:      -6.3      3.278      4.413
REMARK  Name = 
REMARK  10 active torsions:
REMARK  status: ('A' for Active; 'I' for Inactive)
REMARK    1  A    between atoms: C_1  and  C_2
REMARK    2  A    between atoms: C_2  and  C_9
REMARK    3  A    between atoms: C_3  and  C_4
REMARK    4  A    between atoms: C_4  and  C_5
REMARK    5  A    between atoms: C_5  and  C_6
REMARK    6  A    between atoms: C_6  and  C_7
REMARK    7  A    between atoms: C_6  and  O_8
REMARK    8  A    between atoms: C_9  and  C_10
REMARK    9  A    between atoms: C_12  and  C_13
REMARK   10  A    between atoms: C_12  and  C_14
REMARK                            x       y       z     vdW  Elec       q    Type
REMARK                         _______ _______ _______ _____ _____    ______ ____
ROOT
ATOM      1  C   UNL     1       2.512   7.600  17.832  0.00  0.00    +0.000 C 
ATOM      2  C   UNL     1       3.640   6.600  17.963  0.00  0.00    +0.000 C 
ATOM      3  C   UNL     1       4.327   6.234  16.861  0.00  0.00    +0.000 C 
ENDROOT
BRANCH   3   4
ATOM      4  C   UNL     1       5.453   5.245  16.725  0.00  0.00    +0.000 C 
BRANCH   4   5
ATOM      5  C   UNL     1       6.761   5.841  16.170  0.00  0.00    +0.000 C 
BRANCH   5   6
ATOM      6  C   UNL     1       7.611   6.622  17.184  0.00  0.00    +0.000 C 
ATOM      7  C   UNL     1       7.492   6.018  18.580  0.00  0.00    +0.000 C 
BRANCH   6   8
ATOM      8  O   UNL     1       7.172   7.974  17.292  0.00  0.00    +0.000 OA
ATOM      9  H   UNL     1       6.294   8.054  16.889  0.00  0.00    +0.000 HD
ENDBRANCH   6   8
ENDBRANCH   5   6
ENDBRANCH   4   5
ENDBRANCH   3   4
BRANCH   2  10
ATOM     10  C   UNL     1       3.911   6.110  19.384  0.00  0.00    +0.000 C 
BRANCH  10  11
ATOM     11  C   UNL     1       3.312   4.781  19.696  0.00  0.00    +0.000 C 
ATOM     12  C   UNL     1       2.069   4.456  20.078  0.00  0.00    +0.000 C 
ATOM     13  C   UNL     1       1.807   2.978  20.241  0.00  0.00    +0.000 C 
ATOM     14  C   UNL     1       0.817   2.507  19.167  0.00  0.00    +0.000 C 
ATOM     15  C   UNL     1       1.245   2.654  21.630  0.00  0.00    +0.000 C 
ATOM     16  C   UNL     1       3.192   2.340  20.028  0.00  0.00    +0.000 C 
ATOM     17  C   UNL     1       4.062   3.512  19.670  0.00  0.00    +0.000 C 
ATOM     18  O   UNL     1       5.256   3.438  19.413  0.00  0.00    +0.000 OA
ENDBRANCH  10  11
ENDBRANCH   2  10
TORSDOF 6
ENDMDL
