MODEL 1
REMARK VINA RESULT:      -6.2      0.000      0.000
REMARK  Name = 
REMARK  13 active torsions:
REMARK  status: ('A' for Active; 'I' for Inactive)
REMARK    1  A    between atoms: C_1  and  C_2
REMARK    2  A    between atoms: C_2  and  O_3
REMARK    3  A    between atoms: O_3  and  C_4
REMARK    4  A    between atoms: C_4  and  C_5
REMARK    5  A    between atoms: C_5  and  O_6
REMARK    6  A    between atoms: O_6  and  C_7
REMARK    7  A    between atoms: C_7  and  C_9
REMARK    8  A    between atoms: C_9  and  C_10
REMARK    9  A    between atoms: C_12  and  N_13
REMARK   10  A    between atoms: C_12  and  S_21
REMARK   11  A    between atoms: N_13  and  C_14
REMARK   12  A    between atoms: C_14  and  C_15
REMARK   13  A    between atoms: S_21  and  C_22
REMARK                            x       y       z     vdW  Elec       q    Type
REMARK                         _______ _______ _______ _____ _____    ______ ____
ROOT
ATOM      1  C   UNL     1       2.966   5.435  19.809  0.00  0.00    +0.000 C 
ATOM      2  C   UNL     1       3.994   5.060  18.988  0.00  0.00    +0.000 C 
ENDROOT
BRANCH   1   3
ATOM      3  C   UNL     1       2.291   6.762  19.802  0.00  0.00    +0.000 C 
ATOM      4  O   UNL     1       2.511   7.620  18.959  0.00  0.00    +0.000 OA
BRANCH   3   5
ATOM      5  O   UNL     1       1.537   6.979  20.909  0.00  0.00    +0.000 OA
BRANCH   5   6
ATOM      6  C   UNL     1       1.272   8.362  21.157  0.00  0.00    +0.000 C 
BRANCH   6   7
ATOM      7  C   UNL     1      -0.160   8.666  21.577  0.00  0.00    +0.000 C 
BRANCH   7   8
ATOM      8  O   UNL     1      -0.503   9.908  20.958  0.00  0.00    +0.000 OA
BRANCH   8  10
ATOM      9  C   UNL     1      -0.785  10.328  18.640  0.00  0.00    +0.000 C 
ATOM     10  C   UNL     1       0.222  10.172  19.764  0.00  0.00    +0.000 C 
ENDBRANCH   8  10
ENDBRANCH   7   8
ENDBRANCH   6   7
ENDBRANCH   5   6
ENDBRANCH   3   5
ENDBRANCH   1   3
BRANCH   1  11
ATOM     11  C   UNL     1       2.321   4.457  20.778  0.00  0.00    +0.000 C 
ATOM     12  N   UNL     1       1.786   3.646  21.581  0.00  0.00    +0.000 NA
ENDBRANCH   1  11
BRANCH   2  13
ATOM     13  N   UNL     1       4.573   5.889  18.013  0.00  0.00    +0.000 N 
ATOM     14  H   UNL     1       4.044   5.801  17.147  0.00  0.00    +0.000 HD
BRANCH  13  15
ATOM     15  C   UNL     1       6.008   5.806  17.694  0.00  0.00    +0.000 C 
BRANCH  15  16
ATOM     16  C   UNL     1       6.323   5.310  16.326  0.00  0.00    +0.000 A 
ATOM     17  C   UNL     1       5.714   4.445  15.446  0.00  0.00    +0.000 A 
ATOM     18  C   UNL     1       6.512   4.521  14.294  0.00  0.00    +0.000 A 
ATOM     19 BR   UNL     1       6.120   3.613  12.696  0.00  0.00    +0.000 Br
ATOM     20  N   UNL     1       7.557   5.334  14.447  0.00  0.00    +0.000 NA
ATOM     21  O   UNL     1       7.433   5.832  15.738  0.00  0.00    +0.000 OA
ENDBRANCH  15  16
ENDBRANCH  13  15
ENDBRANCH   2  13
BRANCH   2  22
ATOM     22  S   UNL     1       4.532   3.361  19.114  0.00  0.00    +0.000 S 
ATOM     23  C   UNL     1       3.494   2.432  17.972  0.00  0.00    +0.000 C 
ENDBRANCH   2  22
TORSDOF 11
ENDMDL
MODEL 2
REMARK VINA RESULT:      -6.2      1.196      1.419
REMARK  Name = 
REMARK  13 active torsions:
REMARK  status: ('A' for Active; 'I' for Inactive)
REMARK    1  A    between atoms: C_1  and  C_2
REMARK    2  A    between atoms: C_2  and  O_3
REMARK    3  A    between atoms: O_3  and  C_4
REMARK    4  A    between atoms: C_4  and  C_5
REMARK    5  A    between atoms: C_5  and  O_6
REMARK    6  A    between atoms: O_6  and  C_7
REMARK    7  A    between atoms: C_7  and  C_9
REMARK    8  A    between atoms: C_9  and  C_10
REMARK    9  A    between atoms: C_12  and  N_13
REMARK   10  A    between atoms: C_12  and  S_21
REMARK   11  A    between atoms: N_13  and  C_14
REMARK   12  A    between atoms: C_14  and  C_15
REMARK   13  A    between atoms: S_21  and  C_22
REMARK                            x       y       z     vdW  Elec       q    Type
REMARK                         _______ _______ _______ _____ _____    ______ ____
ROOT
ATOM      1  C   UNL     1       2.864   5.834  19.729  0.00  0.00    +0.000 C 
ATOM      2  C   UNL     1       3.819   5.525  18.799  0.00  0.00    +0.000 C 
ENDROOT
BRANCH   1   3
ATOM      3  C   UNL     1       2.116   7.119  19.809  0.00  0.00    +0.000 C 
ATOM      4  O   UNL     1       2.215   8.004  18.970  0.00  0.00    +0.000 OA
BRANCH   3   5
ATOM      5  O   UNL     1       1.448   7.271  20.979  0.00  0.00    +0.000 OA
BRANCH   5   6
ATOM      6  C   UNL     1       1.128   8.631  21.283  0.00  0.00    +0.000 C 
BRANCH   6   7
ATOM      7  C   UNL     1       1.733   9.148  22.581  0.00  0.00    +0.000 C 
BRANCH   7   8
ATOM      8  O   UNL     1       0.663   9.759  23.305  0.00  0.00    +0.000 OA
BRANCH   8  10
ATOM      9  C   UNL     1      -1.311  11.047  23.030  0.00  0.00    +0.000 C 
ATOM     10  C   UNL     1      -0.562   9.805  22.585  0.00  0.00    +0.000 C 
ENDBRANCH   8  10
ENDBRANCH   7   8
ENDBRANCH   6   7
ENDBRANCH   5   6
ENDBRANCH   3   5
ENDBRANCH   1   3
BRANCH   1  11
ATOM     11  C   UNL     1       2.384   4.814  20.748  0.00  0.00    +0.000 C 
ATOM     12  N   UNL     1       1.986   3.969  21.594  0.00  0.00    +0.000 NA
ENDBRANCH   1  11
BRANCH   2  13
ATOM     13  N   UNL     1       4.243   6.393  17.778  0.00  0.00    +0.000 N 
ATOM     14  H   UNL     1       3.722   6.183  16.928  0.00  0.00    +0.000 HD
BRANCH  13  15
ATOM     15  C   UNL     1       5.667   6.528  17.433  0.00  0.00    +0.000 C 
BRANCH  15  16
ATOM     16  C   UNL     1       6.095   5.780  16.217  0.00  0.00    +0.000 A 
ATOM     17  C   UNL     1       5.468   4.936  15.330  0.00  0.00    +0.000 A 
ATOM     18  C   UNL     1       6.451   4.675  14.363  0.00  0.00    +0.000 A 
ATOM     19 BR   UNL     1       6.149   3.639  12.826  0.00  0.00    +0.000 Br
ATOM     20  N   UNL     1       7.611   5.273  14.638  0.00  0.00    +0.000 NA
ATOM     21  O   UNL     1       7.380   5.971  15.816  0.00  0.00    +0.000 OA
ENDBRANCH  15  16
ENDBRANCH  13  15
ENDBRANCH   2  13
BRANCH   2  22
ATOM     22  S   UNL     1       4.465   3.860  18.847  0.00  0.00    +0.000 S 
ATOM     23  C   UNL     1       3.433   2.901  17.723  0.00  0.00    +0.000 C 
ENDBRANCH   2  22
TORSDOF 11
ENDMDL
MODEL 3
REMARK VINA RESULT:      -6.0      3.867      7.309
REMARK  Name = 
REMARK  13 active torsions:
REMARK  status: ('A' for Active; 'I' for Inactive)
REMARK    1  A    between atoms: C_1  and  C_2
REMARK    2  A    between atoms: C_2  and  O_3
REMARK    3  A    between atoms: O_3  and  C_4
REMARK    4  A    between atoms: C_4  and  C_5
REMARK    5  A    between atoms: C_5  and  O_6
REMARK    6  A    between atoms: O_6  and  C_7
REMARK    7  A    between atoms: C_7  and  C_9
REMARK    8  A    between atoms: C_9  and  C_10
REMARK    9  A    between atoms: C_12  and  N_13
REMARK   10  A    between atoms: C_12  and  S_21
REMARK   11  A    between atoms: N_13  and  C_14
REMARK   12  A    between atoms: C_14  and  C_15
REMARK   13  A    between atoms: S_21  and  C_22
REMARK                            x       y       z     vdW  Elec       q    Type
REMARK                         _______ _______ _______ _____ _____    ______ ____
ROOT
ATOM      1  C   UNL     1       3.032   4.440  18.397  0.00  0.00    +0.000 C 
ATOM      2  C   UNL     1       2.426   5.086  19.440  0.00  0.00    +0.000 C 
ENDROOT
BRANCH   1   3
ATOM      3  C   UNL     1       4.176   4.963  17.601  0.00  0.00    +0.000 C 
ATOM      4  O   UNL     1       4.133   6.016  16.979  0.00  0.00    +0.000 OA
BRANCH   3   5
ATOM      5  O   UNL     1       5.202   4.081  17.505  0.00  0.00    +0.000 OA
BRANCH   5   6
ATOM      6  C   UNL     1       6.030   4.291  16.358  0.00  0.00    +0.000 C 
BRANCH   6   7
ATOM      7  C   UNL     1       7.440   4.772  16.676  0.00  0.00    +0.000 C 
BRANCH   7   8
ATOM      8  O   UNL     1       7.472   6.161  16.345  0.00  0.00    +0.000 OA
BRANCH   8  10
ATOM      9  C   UNL     1       7.763   6.193  18.700  0.00  0.00    +0.000 C 
ATOM     10  C   UNL     1       7.413   7.020  17.477  0.00  0.00    +0.000 C 
ENDBRANCH   8  10
ENDBRANCH   7   8
ENDBRANCH   6   7
ENDBRANCH   5   6
ENDBRANCH   3   5
ENDBRANCH   1   3
BRANCH   1  11
ATOM     11  C   UNL     1       2.644   3.025  18.001  0.00  0.00    +0.000 C 
ATOM     12  N   UNL     1       2.322   1.851  17.674  0.00  0.00    +0.000 NA
ENDBRANCH   1  11
BRANCH   2  13
ATOM     13  N   UNL     1       2.797   6.357  19.909  0.00  0.00    +0.000 N 
ATOM     14  H   UNL     1       2.576   6.421  20.902  0.00  0.00    +0.000 HD
BRANCH  13  15
ATOM     15  C   UNL     1       2.327   7.584  19.245  0.00  0.00    +0.000 C 
BRANCH  15  16
ATOM     16  C   UNL     1       1.448   8.453  20.075  0.00  0.00    +0.000 A 
ATOM     17  C   UNL     1       0.868   8.339  21.318  0.00  0.00    +0.000 A 
ATOM     18  C   UNL     1       0.247   9.582  21.514  0.00  0.00    +0.000 A 
ATOM     19 BR   UNL     1      -0.644  10.060  23.097  0.00  0.00    +0.000 Br
ATOM     20  N   UNL     1       0.390  10.396  20.469  0.00  0.00    +0.000 NA
ATOM     21  O   UNL     1       1.151   9.676  19.558  0.00  0.00    +0.000 OA
ENDBRANCH  15  16
ENDBRANCH  13  15
ENDBRANCH   2  13
BRANCH   2  22
ATOM     22  S   UNL     1       1.160   4.174  20.311  0.00  0.00    +0.000 S 
ATOM     23  C   UNL     1       2.003   3.336  21.665  0.00  0.00    +0.000 C 
ENDBRANCH   2  22
TORSDOF 11
ENDMDL
MODEL 4
REMARK VINA RESULT:      -5.9      1.886      2.122
REMARK  Name = 
REMARK  13 active torsions:
REMARK  status: ('A' for Active; 'I' for Inactive)
REMARK    1  A    between atoms: C_1  and  C_2
REMARK    2  A    between atoms: C_2  and  O_3
REMARK    3  A    between atoms: O_3  and  C_4
REMARK    4  A    between atoms: C_4  and  C_5
REMARK    5  A    between atoms: C_5  and  O_6
REMARK    6  A    between atoms: O_6  and  C_7
REMARK    7  A    between atoms: C_7  and  C_9
REMARK    8  A    between atoms: C_9  and  C_10
REMARK    9  A    between atoms: C_12  and  N_13
REMARK   10  A    between atoms: C_12  and  S_21
REMARK   11  A    between atoms: N_13  and  C_14
REMARK   12  A    between atoms: C_14  and  C_15
REMARK   13  A    between atoms: S_21  and  C_22
REMARK                            x       y       z     vdW  Elec       q    Type
REMARK                         _______ _______ _______ _____ _____    ______ ____
ROOT
ATOM      1  C   UNL     1       3.417   5.255  18.167  0.00  0.00    +0.000 C 
ATOM      2  C   UNL     1       4.498   4.637  18.736  0.00  0.00    +0.000 C 
ENDROOT
BRANCH   1   3
ATOM      3  C   UNL     1       3.360   6.678  17.736  0.00  0.00    +0.000 C 
ATOM      4  O   UNL     1       4.221   7.202  17.043  0.00  0.00    +0.000 OA
BRANCH   3   5
ATOM      5  O   UNL     1       2.350   7.369  18.320  0.00  0.00    +0.000 OA
BRANCH   5   6
ATOM      6  C   UNL     1       2.404   8.777  18.076  0.00  0.00    +0.000 C 
BRANCH   6   7
ATOM      7  C   UNL     1       1.044   9.442  17.906  0.00  0.00    +0.000 C 
BRANCH   7   8
ATOM      8  O   UNL     1       0.802  10.171  19.111  0.00  0.00    +0.000 OA
BRANCH   8  10
ATOM      9  C   UNL     1      -0.882  11.825  18.868  0.00  0.00    +0.000 C 
ATOM     10  C   UNL     1      -0.576  10.423  19.359  0.00  0.00    +0.000 C 
ENDBRANCH   8  10
ENDBRANCH   7   8
ENDBRANCH   6   7
ENDBRANCH   5   6
ENDBRANCH   3   5
ENDBRANCH   1   3
BRANCH   1  11
ATOM     11  C   UNL     1       2.154   4.486  17.814  0.00  0.00    +0.000 C 
ATOM     12  N   UNL     1       1.107   3.849  17.521  0.00  0.00    +0.000 NA
ENDBRANCH   1  11
BRANCH   2  13
ATOM     13  N   UNL     1       5.722   5.271  19.006  0.00  0.00    +0.000 N 
ATOM     14  H   UNL     1       5.622   6.271  18.838  0.00  0.00    +0.000 HD
BRANCH  13  15
ATOM     15  C   UNL     1       6.973   4.815  18.377  0.00  0.00    +0.000 C 
BRANCH  15  16
ATOM     16  C   UNL     1       6.937   4.733  16.890  0.00  0.00    +0.000 A 
ATOM     17  C   UNL     1       6.389   3.858  15.981  0.00  0.00    +0.000 A 
ATOM     18  C   UNL     1       6.660   4.450  14.738  0.00  0.00    +0.000 A 
ATOM     19 BR   UNL     1       6.065   3.747  13.101  0.00  0.00    +0.000 Br
ATOM     20  N   UNL     1       7.354   5.582  14.851  0.00  0.00    +0.000 NA
ATOM     21  O   UNL     1       7.529   5.757  16.218  0.00  0.00    +0.000 OA
ENDBRANCH  15  16
ENDBRANCH  13  15
ENDBRANCH   2  13
BRANCH   2  22
ATOM     22  S   UNL     1       4.344   2.883  19.035  0.00  0.00    +0.000 S 
ATOM     23  C   UNL     1       3.434   2.726  20.582  0.00  0.00    +0.000 C 
ENDBRANCH   2  22
TORSDOF 11
ENDMDL
MODEL 5
REMARK VINA RESULT:      -5.9      3.889      7.498
REMARK  Name = 
REMARK  13 active torsions:
REMARK  status: ('A' for Active; 'I' for Inactive)
REMARK    1  A    between atoms: C_1  and  C_2
REMARK    2  A    between atoms: C_2  and  O_3
REMARK    3  A    between atoms: O_3  and  C_4
REMARK    4  A    between atoms: C_4  and  C_5
REMARK    5  A    between atoms: C_5  and  O_6
REMARK    6  A    between atoms: O_6  and  C_7
REMARK    7  A    between atoms: C_7  and  C_9
REMARK    8  A    between atoms: C_9  and  C_10
REMARK    9  A    between atoms: C_12  and  N_13
REMARK   10  A    between atoms: C_12  and  S_21
REMARK   11  A    between atoms: N_13  and  C_14
REMARK   12  A    between atoms: C_14  and  C_15
REMARK   13  A    between atoms: S_21  and  C_22
REMARK                            x       y       z     vdW  Elec       q    Type
REMARK                         _______ _______ _______ _____ _____    ______ ____
ROOT
ATOM      1  C   UNL     1       3.558   4.795  18.964  0.00  0.00    +0.000 C 
ATOM      2  C   UNL     1       2.548   5.197  19.794  0.00  0.00    +0.000 C 
ENDROOT
BRANCH   1   3
ATOM      3  C   UNL     1       4.743   5.612  18.582  0.00  0.00    +0.000 C 
ATOM      4  O   UNL     1       4.736   6.407  17.652  0.00  0.00    +0.000 OA
BRANCH   3   5
ATOM      5  O   UNL     1       5.865   5.268  19.261  0.00  0.00    +0.000 OA
BRANCH   5   6
ATOM      6  C   UNL     1       7.073   5.536  18.543  0.00  0.00    +0.000 C 
BRANCH   6   7
ATOM      7  C   UNL     1       7.367   4.557  17.414  0.00  0.00    +0.000 C 
BRANCH   7   8
ATOM      8  O   UNL     1       7.586   5.350  16.245  0.00  0.00    +0.000 OA
BRANCH   8  10
ATOM      9  C   UNL     1       5.949   3.803  15.496  0.00  0.00    +0.000 C 
ATOM     10  C   UNL     1       7.007   4.803  15.067  0.00  0.00    +0.000 C 
ENDBRANCH   8  10
ENDBRANCH   7   8
ENDBRANCH   6   7
ENDBRANCH   5   6
ENDBRANCH   3   5
ENDBRANCH   1   3
BRANCH   1  11
ATOM     11  C   UNL     1       3.621   3.381  18.410  0.00  0.00    +0.000 C 
ATOM     12  N   UNL     1       3.673   2.209  17.949  0.00  0.00    +0.000 NA
ENDBRANCH   1  11
BRANCH   2  13
ATOM     13  N   UNL     1       2.480   6.459  20.407  0.00  0.00    +0.000 N 
ATOM     14  H   UNL     1       1.866   6.401  21.218  0.00  0.00    +0.000 HD
BRANCH  13  15
ATOM     15  C   UNL     1       2.126   7.664  19.638  0.00  0.00    +0.000 C 
BRANCH  15  16
ATOM     16  C   UNL     1       1.169   8.584  20.312  0.00  0.00    +0.000 A 
ATOM     17  C   UNL     1       0.742   8.757  21.609  0.00  0.00    +0.000 A 
ATOM     18  C   UNL     1      -0.098   9.878  21.539  0.00  0.00    +0.000 A 
ATOM     19 BR   UNL     1      -0.918  10.658  23.039  0.00  0.00    +0.000 Br
ATOM     20  N   UNL     1      -0.222  10.350  20.298  0.00  0.00    +0.000 NA
ATOM     21  O   UNL     1       0.583   9.525  19.523  0.00  0.00    +0.000 OA
ENDBRANCH  15  16
ENDBRANCH  13  15
ENDBRANCH   2  13
BRANCH   2  22
ATOM     22  S   UNL     1       1.313   3.970  20.195  0.00  0.00    +0.000 S 
ATOM     23  C   UNL     1       1.916   3.129  21.669  0.00  0.00    +0.000 C 
ENDBRANCH   2  22
TORSDOF 11
ENDMDL
MODEL 6
REMARK VINA RESULT:      -5.9      1.092      1.574
REMARK  Name = 
REMARK  13 active torsions:
REMARK  status: ('A' for Active; 'I' for Inactive)
REMARK    1  A    between atoms: C_1  and  C_2
REMARK    2  A    between atoms: C_2  and  O_3
REMARK    3  A    between atoms: O_3  and  C_4
REMARK    4  A    between atoms: C_4  and  C_5
REMARK    5  A    between atoms: C_5  and  O_6
REMARK    6  A    between atoms: O_6  and  C_7
REMARK    7  A    between atoms: C_7  and  C_9
REMARK    8  A    between atoms: C_9  and  C_10
REMARK    9  A    between atoms: C_12  and  N_13
REMARK   10  A    between atoms: C_12  and  S_21
REMARK   11  A    between atoms: N_13  and  C_14
REMARK   12  A    between atoms: C_14  and  C_15
REMARK   13  A    between atoms: S_21  and  C_22
REMARK                            x       y       z     vdW  Elec       q    Type
REMARK                         _______ _______ _______ _____ _____    ______ ____
ROOT
ATOM      1  C   UNL     1       3.058   5.033  19.866  0.00  0.00    +0.000 C 
ATOM      2  C   UNL     1       3.924   4.500  18.950  0.00  0.00    +0.000 C 
ENDROOT
BRANCH   1   3
ATOM      3  C   UNL     1       2.508   6.415  19.836  0.00  0.00    +0.000 C 
ATOM      4  O   UNL     1       1.584   6.784  20.549  0.00  0.00    +0.000 OA
BRANCH   3   5
ATOM      5  O   UNL     1       3.022   7.169  18.832  0.00  0.00    +0.000 OA
BRANCH   5   6
ATOM      6  C   UNL     1       2.026   7.807  18.029  0.00  0.00    +0.000 C 
BRANCH   6   7
ATOM      7  C   UNL     1       1.891   9.306  18.261  0.00  0.00    +0.000 C 
BRANCH   7   8
ATOM      8  O   UNL     1       0.556   9.651  17.886  0.00  0.00    +0.000 OA
BRANCH   8  10
ATOM      9  C   UNL     1      -0.358   9.969  20.053  0.00  0.00    +0.000 C 
ATOM     10  C   UNL     1      -0.039  10.632  18.726  0.00  0.00    +0.000 C 
ENDBRANCH   8  10
ENDBRANCH   7   8
ENDBRANCH   6   7
ENDBRANCH   5   6
ENDBRANCH   3   5
ENDBRANCH   1   3
BRANCH   1  11
ATOM     11  C   UNL     1       2.473   4.195  20.992  0.00  0.00    +0.000 C 
ATOM     12  N   UNL     1       1.987   3.502  21.925  0.00  0.00    +0.000 NA
ENDBRANCH   1  11
BRANCH   2  13
ATOM     13  N   UNL     1       4.430   5.195  17.839  0.00  0.00    +0.000 N 
ATOM     14  H   UNL     1       3.955   4.870  16.999  0.00  0.00    +0.000 HD
BRANCH  13  15
ATOM     15  C   UNL     1       5.876   5.250  17.567  0.00  0.00    +0.000 C 
BRANCH  15  16
ATOM     16  C   UNL     1       6.266   4.931  16.165  0.00  0.00    +0.000 A 
ATOM     17  C   UNL     1       5.793   4.071  15.200  0.00  0.00    +0.000 A 
ATOM     18  C   UNL     1       6.577   4.365  14.075  0.00  0.00    +0.000 A 
ATOM     19 BR   UNL     1       6.329   3.559  12.396  0.00  0.00    +0.000 Br
ATOM     20  N   UNL     1       7.493   5.303  14.319  0.00  0.00    +0.000 NA
ATOM     21  O   UNL     1       7.292   5.658  15.647  0.00  0.00    +0.000 OA
ENDBRANCH  15  16
ENDBRANCH  13  15
ENDBRANCH   2  13
BRANCH   2  22
ATOM     22  S   UNL     1       4.323   2.770  19.147  0.00  0.00    +0.000 S 
ATOM     23  C   UNL     1       3.185   1.878  18.073  0.00  0.00    +0.000 C 
ENDBRANCH   2  22
TORSDOF 11
ENDMDL
MODEL 7
REMARK VINA RESULT:      -5.9      1.139      1.225
REMARK  Name = 
REMARK  13 active torsions:
REMARK  status: ('A' for Active; 'I' for Inactive)
REMARK    1  A    between atoms: C_1  and  C_2
REMARK    2  A    between atoms: C_2  and  O_3
REMARK    3  A    between atoms: O_3  and  C_4
REMARK    4  A    between atoms: C_4  and  C_5
REMARK    5  A    between atoms: C_5  and  O_6
REMARK    6  A    between atoms: O_6  and  C_7
REMARK    7  A    between atoms: C_7  and  C_9
REMARK    8  A    between atoms: C_9  and  C_10
REMARK    9  A    between atoms: C_12  and  N_13
REMARK   10  A    between atoms: C_12  and  S_21
REMARK   11  A    between atoms: N_13  and  C_14
REMARK   12  A    between atoms: C_14  and  C_15
REMARK   13  A    between atoms: S_21  and  C_22
REMARK                            x       y       z     vdW  Elec       q    Type
REMARK                         _______ _______ _______ _____ _____    ______ ____
ROOT
ATOM      1  C   UNL     1       2.604   5.399  19.240  0.00  0.00    +0.000 C 
ATOM      2  C   UNL     1       3.663   4.926  18.514  0.00  0.00    +0.000 C 
ENDROOT
BRANCH   1   3
ATOM      3  C   UNL     1       2.277   6.834  19.460  0.00  0.00    +0.000 C 
ATOM      4  O   UNL     1       2.635   7.726  18.703  0.00  0.00    +0.000 OA
BRANCH   3   5
ATOM      5  O   UNL     1       1.686   7.065  20.659  0.00  0.00    +0.000 OA
BRANCH   5   6
ATOM      6  C   UNL     1       1.528   8.454  20.960  0.00  0.00    +0.000 C 
BRANCH   6   7
ATOM      7  C   UNL     1       0.193   8.815  21.598  0.00  0.00    +0.000 C 
BRANCH   7   8
ATOM      8  O   UNL     1       0.464   9.869  22.524  0.00  0.00    +0.000 OA
BRANCH   8  10
ATOM      9  C   UNL     1      -0.899  11.367  21.287  0.00  0.00    +0.000 C 
ATOM     10  C   UNL     1      -0.604  10.797  22.662  0.00  0.00    +0.000 C 
ENDBRANCH   8  10
ENDBRANCH   7   8
ENDBRANCH   6   7
ENDBRANCH   5   6
ENDBRANCH   3   5
ENDBRANCH   1   3
BRANCH   1  11
ATOM     11  C   UNL     1       1.561   4.465  19.831  0.00  0.00    +0.000 C 
ATOM     12  N   UNL     1       0.696   3.690  20.322  0.00  0.00    +0.000 NA
ENDBRANCH   1  11
BRANCH   2  13
ATOM     13  N   UNL     1       4.610   5.740  17.870  0.00  0.00    +0.000 N 
ATOM     14  H   UNL     1       4.232   6.042  16.973  0.00  0.00    +0.000 HD
BRANCH  13  15
ATOM     15  C   UNL     1       5.995   5.284  17.664  0.00  0.00    +0.000 C 
BRANCH  15  16
ATOM     16  C   UNL     1       6.347   4.954  16.255  0.00  0.00    +0.000 A 
ATOM     17  C   UNL     1       5.815   4.128  15.292  0.00  0.00    +0.000 A 
ATOM     18  C   UNL     1       6.599   4.388  14.157  0.00  0.00    +0.000 A 
ATOM     19 BR   UNL     1       6.285   3.609  12.477  0.00  0.00    +0.000 Br
ATOM     20  N   UNL     1       7.567   5.273  14.394  0.00  0.00    +0.000 NA
ATOM     21  O   UNL     1       7.404   5.629  15.727  0.00  0.00    +0.000 OA
ENDBRANCH  15  16
ENDBRANCH  13  15
ENDBRANCH   2  13
BRANCH   2  22
ATOM     22  S   UNL     1       3.748   3.155  18.295  0.00  0.00    +0.000 S 
ATOM     23  C   UNL     1       4.458   2.505  19.818  0.00  0.00    +0.000 C 
ENDBRANCH   2  22
TORSDOF 11
ENDMDL
MODEL 8
REMARK VINA RESULT:      -5.8      3.222      3.972
REMARK  Name = 
REMARK  13 active torsions:
REMARK  status: ('A' for Active; 'I' for Inactive)
REMARK    1  A    between atoms: C_1  and  C_2
REMARK    2  A    between atoms: C_2  and  O_3
REMARK    3  A    between atoms: O_3  and  C_4
REMARK    4  A    between atoms: C_4  and  C_5
REMARK    5  A    between atoms: C_5  and  O_6
REMARK    6  A    between atoms: O_6  and  C_7
REMARK    7  A    between atoms: C_7  and  C_9
REMARK    8  A    between atoms: C_9  and  C_10
REMARK    9  A    between atoms: C_12  and  N_13
REMARK   10  A    between atoms: C_12  and  S_21
REMARK   11  A    between atoms: N_13  and  C_14
REMARK   12  A    between atoms: C_14  and  C_15
REMARK   13  A    between atoms: S_21  and  C_22
REMARK                            x       y       z     vdW  Elec       q    Type
REMARK                         _______ _______ _______ _____ _____    ______ ____
ROOT
ATOM      1  C   UNL     1       3.970   3.858  18.322  0.00  0.00    +0.000 C 
ATOM      2  C   UNL     1       4.620   5.055  18.197  0.00  0.00    +0.000 C 
ENDROOT
BRANCH   1   3
ATOM      3  C   UNL     1       2.807   3.414  17.505  0.00  0.00    +0.000 C 
ATOM      4  O   UNL     1       2.924   2.831  16.436  0.00  0.00    +0.000 OA
BRANCH   3   5
ATOM      5  O   UNL     1       1.620   3.863  17.984  0.00  0.00    +0.000 OA
BRANCH   5   6
ATOM      6  C   UNL     1       0.833   2.845  18.607  0.00  0.00    +0.000 C 
BRANCH   6   7
ATOM      7  C   UNL     1       0.601   3.049  20.098  0.00  0.00    +0.000 C 
BRANCH   7   8
ATOM      8  O   UNL     1       1.054   4.371  20.396  0.00  0.00    +0.000 OA
BRANCH   8  10
ATOM      9  C   UNL     1       2.145   3.060  22.046  0.00  0.00    +0.000 C 
ATOM     10  C   UNL     1       2.095   4.415  21.364  0.00  0.00    +0.000 C 
ENDBRANCH   8  10
ENDBRANCH   7   8
ENDBRANCH   6   7
ENDBRANCH   5   6
ENDBRANCH   3   5
ENDBRANCH   1   3
BRANCH   1  11
ATOM     11  C   UNL     1       4.457   2.782  19.278  0.00  0.00    +0.000 C 
ATOM     12  N   UNL     1       4.862   1.888  20.071  0.00  0.00    +0.000 NA
ENDBRANCH   1  11
BRANCH   2  13
ATOM     13  N   UNL     1       4.273   6.054  17.272  0.00  0.00    +0.000 N 
ATOM     14  H   UNL     1       3.493   5.725  16.706  0.00  0.00    +0.000 HD
BRANCH  13  15
ATOM     15  C   UNL     1       5.280   6.652  16.380  0.00  0.00    +0.000 C 
BRANCH  15  16
ATOM     16  C   UNL     1       5.840   5.729  15.354  0.00  0.00    +0.000 A 
ATOM     17  C   UNL     1       5.304   4.808  14.484  0.00  0.00    +0.000 A 
ATOM     18  C   UNL     1       6.407   4.371  13.735  0.00  0.00    +0.000 A 
ATOM     19 BR   UNL     1       6.279   3.156  12.307  0.00  0.00    +0.000 Br
ATOM     20  N   UNL     1       7.548   4.939  14.125  0.00  0.00    +0.000 NA
ATOM     21  O   UNL     1       7.184   5.799  15.153  0.00  0.00    +0.000 OA
ENDBRANCH  15  16
ENDBRANCH  13  15
ENDBRANCH   2  13
BRANCH   2  22
ATOM     22  S   UNL     1       6.072   5.280  19.213  0.00  0.00    +0.000 S 
ATOM     23  C   UNL     1       7.452   4.647  18.245  0.00  0.00    +0.000 C 
ENDBRANCH   2  22
TORSDOF 11
ENDMDL
MODEL 9
REMARK VINA RESULT:      -5.8      2.859      3.763
REMARK  Name = 
REMARK  13 active torsions:
REMARK  status: ('A' for Active; 'I' for Inactive)
REMARK    1  A    between atoms: C_1  and  C_2
REMARK    2  A    between atoms: C_2  and  O_3
REMARK    3  A    between atoms: O_3  and  C_4
REMARK    4  A    between atoms: C_4  and  C_5
REMARK    5  A    between atoms: C_5  and  O_6
REMARK    6  A    between atoms: O_6  and  C_7
REMARK    7  A    between atoms: C_7  and  C_9
REMARK    8  A    between atoms: C_9  and  C_10
REMARK    9  A    between atoms: C_12  and  N_13
REMARK   10  A    between atoms: C_12  and  S_21
REMARK   11  A    between atoms: N_13  and  C_14
REMARK   12  A    between atoms: C_14  and  C_15
REMARK   13  A    between atoms: S_21  and  C_22
REMARK                            x       y       z     vdW  Elec       q    Type
REMARK                         _______ _______ _______ _____ _____    ______ ____
ROOT
ATOM      1  C   UNL     1       3.957   3.264  18.415  0.00  0.00    +0.000 C 
ATOM      2  C   UNL     1       4.727   4.182  17.754  0.00  0.00    +0.000 C 
ENDROOT
BRANCH   1   3
ATOM      3  C   UNL     1       2.548   2.916  18.085  0.00  0.00    +0.000 C 
ATOM      4  O   UNL     1       1.945   3.394  17.134  0.00  0.00    +0.000 OA
BRANCH   3   5
ATOM      5  O   UNL     1       1.955   2.148  19.033  0.00  0.00    +0.000 OA
BRANCH   5   6
ATOM      6  C   UNL     1       1.018   2.862  19.843  0.00  0.00    +0.000 C 
BRANCH   6   7
ATOM      7  C   UNL     1       1.436   3.028  21.298  0.00  0.00    +0.000 C 
BRANCH   7   8
ATOM      8  O   UNL     1       2.037   4.321  21.397  0.00  0.00    +0.000 OA
BRANCH   8  10
ATOM      9  C   UNL     1       2.491   6.173  19.985  0.00  0.00    +0.000 C 
ATOM     10  C   UNL     1       1.403   5.308  20.594  0.00  0.00    +0.000 C 
ENDBRANCH   8  10
ENDBRANCH   7   8
ENDBRANCH   6   7
ENDBRANCH   5   6
ENDBRANCH   3   5
ENDBRANCH   1   3
BRANCH   1  11
ATOM     11  C   UNL     1       4.525   2.404  19.532  0.00  0.00    +0.000 C 
ATOM     12  N   UNL     1       4.996   1.689  20.458  0.00  0.00    +0.000 NA
ENDBRANCH   1  11
BRANCH   2  13
ATOM     13  N   UNL     1       4.287   4.944  16.659  0.00  0.00    +0.000 N 
ATOM     14  H   UNL     1       3.746   4.347  16.035  0.00  0.00    +0.000 HD
BRANCH  13  15
ATOM     15  C   UNL     1       5.230   5.733  15.849  0.00  0.00    +0.000 C 
BRANCH  15  16
ATOM     16  C   UNL     1       5.842   5.003  14.704  0.00  0.00    +0.000 A 
ATOM     17  C   UNL     1       5.499   3.890  13.971  0.00  0.00    +0.000 A 
ATOM     18  C   UNL     1       6.484   3.828  12.974  0.00  0.00    +0.000 A 
ATOM     19 BR   UNL     1       6.491   2.550  11.597  0.00  0.00    +0.000 Br
ATOM     20  N   UNL     1       7.393   4.796  13.091  0.00  0.00    +0.000 NA
ATOM     21  O   UNL     1       6.982   5.539  14.191  0.00  0.00    +0.000 OA
ENDBRANCH  15  16
ENDBRANCH  13  15
ENDBRANCH   2  13
BRANCH   2  22
ATOM     22  S   UNL     1       6.432   4.309  18.271  0.00  0.00    +0.000 S 
ATOM     23  C   UNL     1       6.494   5.693  19.422  0.00  0.00    +0.000 C 
ENDBRANCH   2  22
TORSDOF 11
ENDMDL
