MODEL 1
REMARK VINA RESULT:      -8.3      0.000      0.000
REMARK  Name = 
REMARK  10 active torsions:
REMARK  status: ('A' for Active; 'I' for Inactive)
REMARK    1  A    between atoms: C_1  and  O_2
REMARK    2  A    between atoms: O_2  and  C_3
REMARK    3  A    between atoms: C_6  and  C_7
REMARK    4  A    between atoms: C_7  and  C_8
REMARK    5  A    between atoms: C_7  and  C_9
REMARK    6  A    between atoms: C_11  and  C_12
REMARK    7  A    between atoms: C_15  and  C_16
REMARK    8  A    between atoms: C_21  and  C_22
REMARK    9  A    between atoms: C_22  and  N_23
REMARK   10  A    between atoms: C_25  and  C_26
REMARK                            x       y       z     vdW  Elec       q    Type
REMARK                         _______ _______ _______ _____ _____    ______ ____
ROOT
ATOM      1  C   UNL     1       0.450  12.046  18.706  0.00  0.00    +0.000 A 
ATOM      2  C   UNL     1      -0.769  12.697  18.395  0.00  0.00    +0.000 A 
ATOM      3  C   UNL     1      -1.865  12.018  17.881  0.00  0.00    +0.000 A 
ATOM      4  C   UNL     1      -1.801  10.638  17.695  0.00  0.00    +0.000 A 
ATOM      5  C   UNL     1      -0.605   9.953  18.014  0.00  0.00    +0.000 A 
ATOM      6  C   UNL     1       0.546  10.628  18.484  0.00  0.00    +0.000 A 
ENDROOT
BRANCH   1  12
ATOM      7  C   UNL     1       1.699  13.125  20.661  0.00  0.00    +0.000 A 
ATOM      8  C   UNL     1       2.696  13.989  21.129  0.00  0.00    +0.000 A 
ATOM      9  C   UNL     1       3.456  14.755  20.235  0.00  0.00    +0.000 A 
ATOM     10  C   UNL     1       3.248  14.663  18.857  0.00  0.00    +0.000 A 
ATOM     11  C   UNL     1       2.296  13.735  18.400  0.00  0.00    +0.000 A 
ATOM     12  C   UNL     1       1.517  12.933  19.276  0.00  0.00    +0.000 A 
BRANCH  10  13
ATOM     13  C   UNL     1       4.045  15.542  17.902  0.00  0.00    +0.000 C 
ATOM     14  C   UNL     1       3.153  16.596  17.243  0.00  0.00    +0.000 C 
ATOM     15  C   UNL     1       5.258  16.208  18.564  0.00  0.00    +0.000 C 
ENDBRANCH  10  13
BRANCH   7  17
ATOM     16  C   UNL     1      -0.228  13.270  22.099  0.00  0.00    +0.000 C 
ATOM     17  O   UNL     1       0.788  12.505  21.471  0.00  0.00    +0.000 OA
ENDBRANCH   7  17
ENDBRANCH   1  12
BRANCH   4  18
ATOM     18  C   UNL     1      -3.013   9.904  17.176  0.00  0.00    +0.000 C 
ATOM     19  F   UNL     1      -2.797   9.281  15.978  0.00  0.00    +0.000 F 
ATOM     20  F   UNL     1      -3.434   8.926  18.024  0.00  0.00    +0.000 F 
ATOM     21  F   UNL     1      -4.082  10.721  16.977  0.00  0.00    +0.000 F 
ENDBRANCH   4  18
BRANCH   6  22
ATOM     22  C   UNL     1       1.821   9.846  18.819  0.00  0.00    +0.000 C 
BRANCH  22  23
ATOM     23  N   UNL     1       1.841   8.374  18.733  0.00  0.00    +0.000 N 
ATOM     24  C   UNL     1       2.269   7.632  17.580  0.00  0.00    +0.000 C 
ATOM     25  C   UNL     1       2.889   6.355  18.167  0.00  0.00    +0.000 C 
ATOM     26  O   UNL     1       2.360   6.322  19.509  0.00  0.00    +0.000 OA
ATOM     27  C   UNL     1       1.925   7.575  19.849  0.00  0.00    +0.000 C 
ATOM     28  O   UNL     1       1.671   7.896  21.000  0.00  0.00    +0.000 OA
BRANCH  25  29
ATOM     29  C   UNL     1       4.407   6.174  18.194  0.00  0.00    +0.000 A 
ATOM     30  C   UNL     1       5.214   6.845  17.240  0.00  0.00    +0.000 A 
ATOM     31  C   UNL     1       6.609   6.745  17.255  0.00  0.00    +0.000 A 
ATOM     32  C   UNL     1       7.245   5.990  18.237  0.00  0.00    +0.000 A 
ATOM     33  C   UNL     1       6.482   5.360  19.211  0.00  0.00    +0.000 A 
ATOM     34  C   UNL     1       5.079   5.461  19.200  0.00  0.00    +0.000 A 
ENDBRANCH  25  29
ENDBRANCH  22  23
ENDBRANCH   6  22
TORSDOF 7
ENDMDL
MODEL 2
REMARK VINA RESULT:      -8.3      0.138      1.056
REMARK  Name = 
REMARK  10 active torsions:
REMARK  status: ('A' for Active; 'I' for Inactive)
REMARK    1  A    between atoms: C_1  and  O_2
REMARK    2  A    between atoms: O_2  and  C_3
REMARK    3  A    between atoms: C_6  and  C_7
REMARK    4  A    between atoms: C_7  and  C_8
REMARK    5  A    between atoms: C_7  and  C_9
REMARK    6  A    between atoms: C_11  and  C_12
REMARK    7  A    between atoms: C_15  and  C_16
REMARK    8  A    between atoms: C_21  and  C_22
REMARK    9  A    between atoms: C_22  and  N_23
REMARK   10  A    between atoms: C_25  and  C_26
REMARK                            x       y       z     vdW  Elec       q    Type
REMARK                         _______ _______ _______ _____ _____    ______ ____
ROOT
ATOM      1  C   UNL     1       0.344  12.062  18.692  0.00  0.00    +0.000 A 
ATOM      2  C   UNL     1      -0.911  12.677  18.458  0.00  0.00    +0.000 A 
ATOM      3  C   UNL     1      -1.998  11.979  17.951  0.00  0.00    +0.000 A 
ATOM      4  C   UNL     1      -1.888  10.614  17.694  0.00  0.00    +0.000 A 
ATOM      5  C   UNL     1      -0.656   9.963  17.935  0.00  0.00    +0.000 A 
ATOM      6  C   UNL     1       0.485  10.661  18.395  0.00  0.00    +0.000 A 
ENDROOT
BRANCH   1  12
ATOM      7  C   UNL     1       1.582  13.144  20.652  0.00  0.00    +0.000 A 
ATOM      8  C   UNL     1       2.564  14.021  21.124  0.00  0.00    +0.000 A 
ATOM      9  C   UNL     1       3.304  14.811  20.235  0.00  0.00    +0.000 A 
ATOM     10  C   UNL     1       3.091  14.731  18.857  0.00  0.00    +0.000 A 
ATOM     11  C   UNL     1       2.155  13.790  18.395  0.00  0.00    +0.000 A 
ATOM     12  C   UNL     1       1.396  12.963  19.266  0.00  0.00    +0.000 A 
BRANCH  10  13
ATOM     13  C   UNL     1       3.866  15.635  17.908  0.00  0.00    +0.000 C 
ATOM     14  C   UNL     1       2.970  16.734  17.333  0.00  0.00    +0.000 C 
ATOM     15  C   UNL     1       5.119  16.248  18.546  0.00  0.00    +0.000 C 
ENDBRANCH  10  13
BRANCH   7  17
ATOM     16  C   UNL     1      -0.305  13.243  22.146  0.00  0.00    +0.000 C 
ATOM     17  O   UNL     1       0.687  12.497  21.459  0.00  0.00    +0.000 OA
ENDBRANCH   7  17
ENDBRANCH   1  12
BRANCH   4  18
ATOM     18  C   UNL     1      -3.090   9.857  17.183  0.00  0.00    +0.000 C 
ATOM     19  F   UNL     1      -3.521   8.884  18.041  0.00  0.00    +0.000 F 
ATOM     20  F   UNL     1      -4.167  10.663  16.976  0.00  0.00    +0.000 F 
ATOM     21  F   UNL     1      -2.854   9.226  16.001  0.00  0.00    +0.000 F 
ENDBRANCH   4  18
BRANCH   6  22
ATOM     22  C   UNL     1       1.802   9.917  18.645  0.00  0.00    +0.000 C 
BRANCH  22  23
ATOM     23  N   UNL     1       1.840   8.442  18.645  0.00  0.00    +0.000 N 
ATOM     24  C   UNL     1       2.266   7.640  17.534  0.00  0.00    +0.000 C 
ATOM     25  C   UNL     1       2.908   6.406  18.188  0.00  0.00    +0.000 C 
ATOM     26  O   UNL     1       2.392   6.446  19.534  0.00  0.00    +0.000 OA
ATOM     27  C   UNL     1       1.945   7.712  19.805  0.00  0.00    +0.000 C 
ATOM     28  O   UNL     1       1.697   8.096  20.937  0.00  0.00    +0.000 OA
BRANCH  25  29
ATOM     29  C   UNL     1       4.429   6.246  18.210  0.00  0.00    +0.000 A 
ATOM     30  C   UNL     1       5.035   5.406  19.179  0.00  0.00    +0.000 A 
ATOM     31  C   UNL     1       6.417   5.193  19.209  0.00  0.00    +0.000 A 
ATOM     32  C   UNL     1       7.237   5.795  18.258  0.00  0.00    +0.000 A 
ATOM     33  C   UNL     1       6.664   6.585  17.269  0.00  0.00    +0.000 A 
ATOM     34  C   UNL     1       5.275   6.799  17.236  0.00  0.00    +0.000 A 
ENDBRANCH  25  29
ENDBRANCH  22  23
ENDBRANCH   6  22
TORSDOF 7
ENDMDL
MODEL 3
REMARK VINA RESULT:      -7.6      1.748      2.583
REMARK  Name = 
REMARK  10 active torsions:
REMARK  status: ('A' for Active; 'I' for Inactive)
REMARK    1  A    between atoms: C_1  and  O_2
REMARK    2  A    between atoms: O_2  and  C_3
REMARK    3  A    between atoms: C_6  and  C_7
REMARK    4  A    between atoms: C_7  and  C_8
REMARK    5  A    between atoms: C_7  and  C_9
REMARK    6  A    between atoms: C_11  and  C_12
REMARK    7  A    between atoms: C_15  and  C_16
REMARK    8  A    between atoms: C_21  and  C_22
REMARK    9  A    between atoms: C_22  and  N_23
REMARK   10  A    between atoms: C_25  and  C_26
REMARK                            x       y       z     vdW  Elec       q    Type
REMARK                         _______ _______ _______ _____ _____    ______ ____
ROOT
ATOM      1  C   UNL     1       0.012  11.739  18.946  0.00  0.00    +0.000 A 
ATOM      2  C   UNL     1      -0.869  12.442  18.088  0.00  0.00    +0.000 A 
ATOM      3  C   UNL     1      -1.989  11.847  17.523  0.00  0.00    +0.000 A 
ATOM      4  C   UNL     1      -2.300  10.523  17.829  0.00  0.00    +0.000 A 
ATOM      5  C   UNL     1      -1.453   9.798  18.698  0.00  0.00    +0.000 A 
ATOM      6  C   UNL     1      -0.274  10.360  19.242  0.00  0.00    +0.000 A 
ENDROOT
BRANCH   1  12
ATOM      7  C   UNL     1       1.262  12.921  20.840  0.00  0.00    +0.000 A 
ATOM      8  C   UNL     1       2.339  13.701  21.274  0.00  0.00    +0.000 A 
ATOM      9  C   UNL     1       3.268  14.211  20.358  0.00  0.00    +0.000 A 
ATOM     10  C   UNL     1       3.150  13.940  18.993  0.00  0.00    +0.000 A 
ATOM     11  C   UNL     1       2.107  13.093  18.582  0.00  0.00    +0.000 A 
ATOM     12  C   UNL     1       1.155  12.547  19.485  0.00  0.00    +0.000 A 
BRANCH  10  13
ATOM     13  C   UNL     1       4.137  14.547  18.005  0.00  0.00    +0.000 C 
ATOM     14  C   UNL     1       3.523  15.740  17.269  0.00  0.00    +0.000 C 
ATOM     15  C   UNL     1       5.470  14.946  18.650  0.00  0.00    +0.000 C 
ENDBRANCH  10  13
BRANCH   7  17
ATOM     16  C   UNL     1      -0.517  13.561  22.333  0.00  0.00    +0.000 C 
ATOM     17  O   UNL     1       0.211  12.561  21.639  0.00  0.00    +0.000 OA
ENDBRANCH   7  17
ENDBRANCH   1  12
BRANCH   4  18
ATOM     18  C   UNL     1      -3.544   9.900  17.242  0.00  0.00    +0.000 C 
ATOM     19  F   UNL     1      -3.377   9.466  15.957  0.00  0.00    +0.000 F 
ATOM     20  F   UNL     1      -3.963   8.811  17.943  0.00  0.00    +0.000 F 
ATOM     21  F   UNL     1      -4.599  10.758  17.205  0.00  0.00    +0.000 F 
ENDBRANCH   4  18
BRANCH   6  22
ATOM     22  C   UNL     1       0.616   9.538  20.182  0.00  0.00    +0.000 C 
BRANCH  22  23
ATOM     23  N   UNL     1       1.756   8.768  19.649  0.00  0.00    +0.000 N 
ATOM     24  C   UNL     1       2.472   7.763  20.383  0.00  0.00    +0.000 C 
ATOM     25  C   UNL     1       2.904   6.754  19.308  0.00  0.00    +0.000 C 
ATOM     26  O   UNL     1       2.771   7.504  18.083  0.00  0.00    +0.000 OA
ATOM     27  C   UNL     1       1.943   8.572  18.301  0.00  0.00    +0.000 C 
ATOM     28  O   UNL     1       1.452   9.223  17.392  0.00  0.00    +0.000 OA
BRANCH  25  29
ATOM     29  C   UNL     1       2.193   5.406  19.181  0.00  0.00    +0.000 A 
ATOM     30  C   UNL     1       1.564   4.831  20.315  0.00  0.00    +0.000 A 
ATOM     31  C   UNL     1       0.863   3.624  20.235  0.00  0.00    +0.000 A 
ATOM     32  C   UNL     1       0.748   2.961  19.015  0.00  0.00    +0.000 A 
ATOM     33  C   UNL     1       1.314   3.526  17.880  0.00  0.00    +0.000 A 
ATOM     34  C   UNL     1       2.018   4.741  17.956  0.00  0.00    +0.000 A 
ENDBRANCH  25  29
ENDBRANCH  22  23
ENDBRANCH   6  22
TORSDOF 7
ENDMDL
MODEL 4
REMARK VINA RESULT:      -7.3      3.626      6.483
REMARK  Name = 
REMARK  10 active torsions:
REMARK  status: ('A' for Active; 'I' for Inactive)
REMARK    1  A    between atoms: C_1  and  O_2
REMARK    2  A    between atoms: O_2  and  C_3
REMARK    3  A    between atoms: C_6  and  C_7
REMARK    4  A    between atoms: C_7  and  C_8
REMARK    5  A    between atoms: C_7  and  C_9
REMARK    6  A    between atoms: C_11  and  C_12
REMARK    7  A    between atoms: C_15  and  C_16
REMARK    8  A    between atoms: C_21  and  C_22
REMARK    9  A    between atoms: C_22  and  N_23
REMARK   10  A    between atoms: C_25  and  C_26
REMARK                            x       y       z     vdW  Elec       q    Type
REMARK                         _______ _______ _______ _____ _____    ______ ____
ROOT
ATOM      1  C   UNL     1       1.828  13.686  19.366  0.00  0.00    +0.000 A 
ATOM      2  C   UNL     1       2.441  13.122  18.219  0.00  0.00    +0.000 A 
ATOM      3  C   UNL     1       2.360  11.769  17.922  0.00  0.00    +0.000 A 
ATOM      4  C   UNL     1       1.619  10.921  18.743  0.00  0.00    +0.000 A 
ATOM      5  C   UNL     1       0.977  11.454  19.885  0.00  0.00    +0.000 A 
ATOM      6  C   UNL     1       1.091  12.818  20.245  0.00  0.00    +0.000 A 
ENDROOT
BRANCH   1  12
ATOM      7  C   UNL     1       2.866  15.753  20.459  0.00  0.00    +0.000 A 
ATOM      8  C   UNL     1       2.958  17.145  20.567  0.00  0.00    +0.000 A 
ATOM      9  C   UNL     1       2.117  17.977  19.817  0.00  0.00    +0.000 A 
ATOM     10  C   UNL     1       1.179  17.439  18.933  0.00  0.00    +0.000 A 
ATOM     11  C   UNL     1       1.152  16.042  18.780  0.00  0.00    +0.000 A 
ATOM     12  C   UNL     1       1.999  15.168  19.514  0.00  0.00    +0.000 A 
BRANCH  10  13
ATOM     13  C   UNL     1       0.236  18.356  18.166  0.00  0.00    +0.000 C 
ATOM     14  C   UNL     1       0.666  18.498  16.705  0.00  0.00    +0.000 C 
ATOM     15  C   UNL     1      -1.232  17.921  18.251  0.00  0.00    +0.000 C 
ENDBRANCH  10  13
BRANCH   7  17
ATOM     16  C   UNL     1       4.004  15.343  22.543  0.00  0.00    +0.000 C 
ATOM     17  O   UNL     1       3.503  14.880  21.299  0.00  0.00    +0.000 OA
ENDBRANCH   7  17
ENDBRANCH   1  12
BRANCH   4  18
ATOM     18  C   UNL     1       1.502   9.460  18.386  0.00  0.00    +0.000 C 
ATOM     19  F   UNL     1       2.598   8.973  17.731  0.00  0.00    +0.000 F 
ATOM     20  F   UNL     1       1.349   8.665  19.481  0.00  0.00    +0.000 F 
ATOM     21  F   UNL     1       0.442   9.196  17.575  0.00  0.00    +0.000 F 
ENDBRANCH   4  18
BRANCH   6  22
ATOM     22  C   UNL     1       0.377  13.355  21.491  0.00  0.00    +0.000 C 
BRANCH  22  23
ATOM     23  N   UNL     1      -1.096  13.381  21.556  0.00  0.00    +0.000 N 
ATOM     24  C   UNL     1      -1.940  14.041  20.600  0.00  0.00    +0.000 C 
ATOM     25  C   UNL     1      -3.208  13.174  20.561  0.00  0.00    +0.000 C 
ATOM     26  O   UNL     1      -3.116  12.406  21.778  0.00  0.00    +0.000 OA
ATOM     27  C   UNL     1      -1.819  12.415  22.216  0.00  0.00    +0.000 C 
ATOM     28  O   UNL     1      -1.404  11.645  23.068  0.00  0.00    +0.000 OA
BRANCH  25  29
ATOM     29  C   UNL     1      -3.477  12.250  19.372  0.00  0.00    +0.000 A 
ATOM     30  C   UNL     1      -2.394  11.602  18.724  0.00  0.00    +0.000 A 
ATOM     31  C   UNL     1      -2.596  10.713  17.663  0.00  0.00    +0.000 A 
ATOM     32  C   UNL     1      -3.887  10.426  17.229  0.00  0.00    +0.000 A 
ATOM     33  C   UNL     1      -4.968  11.011  17.876  0.00  0.00    +0.000 A 
ATOM     34  C   UNL     1      -4.768  11.903  18.944  0.00  0.00    +0.000 A 
ENDBRANCH  25  29
ENDBRANCH  22  23
ENDBRANCH   6  22
TORSDOF 7
ENDMDL
MODEL 5
REMARK VINA RESULT:      -7.3      3.595      6.376
REMARK  Name = 
REMARK  10 active torsions:
REMARK  status: ('A' for Active; 'I' for Inactive)
REMARK    1  A    between atoms: C_1  and  O_2
REMARK    2  A    between atoms: O_2  and  C_3
REMARK    3  A    between atoms: C_6  and  C_7
REMARK    4  A    between atoms: C_7  and  C_8
REMARK    5  A    between atoms: C_7  and  C_9
REMARK    6  A    between atoms: C_11  and  C_12
REMARK    7  A    between atoms: C_15  and  C_16
REMARK    8  A    between atoms: C_21  and  C_22
REMARK    9  A    between atoms: C_22  and  N_23
REMARK   10  A    between atoms: C_25  and  C_26
REMARK                            x       y       z     vdW  Elec       q    Type
REMARK                         _______ _______ _______ _____ _____    ______ ____
ROOT
ATOM      1  C   UNL     1      -1.204  12.145  18.732  0.00  0.00    +0.000 A 
ATOM      2  C   UNL     1      -1.126  13.552  18.579  0.00  0.00    +0.000 A 
ATOM      3  C   UNL     1       0.081  14.237  18.611  0.00  0.00    +0.000 A 
ATOM      4  C   UNL     1       1.275  13.535  18.756  0.00  0.00    +0.000 A 
ATOM      5  C   UNL     1       1.236  12.127  18.891  0.00  0.00    +0.000 A 
ATOM      6  C   UNL     1       0.018  11.408  18.920  0.00  0.00    +0.000 A 
ENDROOT
BRANCH   1  12
ATOM      7  C   UNL     1      -3.012  10.746  17.583  0.00  0.00    +0.000 A 
ATOM      8  C   UNL     1      -4.326  10.266  17.546  0.00  0.00    +0.000 A 
ATOM      9  C   UNL     1      -5.266  10.680  18.498  0.00  0.00    +0.000 A 
ATOM     10  C   UNL     1      -4.911  11.568  19.516  0.00  0.00    +0.000 A 
ATOM     11  C   UNL     1      -3.570  11.981  19.585  0.00  0.00    +0.000 A 
ATOM     12  C   UNL     1      -2.586  11.572  18.644  0.00  0.00    +0.000 A 
BRANCH  10  13
ATOM     13  C   UNL     1      -5.959  12.049  20.511  0.00  0.00    +0.000 C 
ATOM     14  C   UNL     1      -6.122  13.569  20.454  0.00  0.00    +0.000 C 
ATOM     15  C   UNL     1      -7.318  11.359  20.339  0.00  0.00    +0.000 C 
ENDBRANCH  10  13
BRANCH   7  17
ATOM     16  C   UNL     1      -2.553  10.295  15.262  0.00  0.00    +0.000 C 
ATOM     17  O   UNL     1      -2.101  10.552  16.582  0.00  0.00    +0.000 OA
ENDBRANCH   7  17
ENDBRANCH   1  12
BRANCH   4  18
ATOM     18  C   UNL     1       2.583  14.287  18.747  0.00  0.00    +0.000 C 
ATOM     19  F   UNL     1       2.489  15.544  19.274  0.00  0.00    +0.000 F 
ATOM     20  F   UNL     1       3.552  13.660  19.469  0.00  0.00    +0.000 F 
ATOM     21  F   UNL     1       3.090  14.452  17.494  0.00  0.00    +0.000 F 
ENDBRANCH   4  18
BRANCH   6  22
ATOM     22  C   UNL     1       0.020   9.882  19.067  0.00  0.00    +0.000 C 
BRANCH  22  23
ATOM     23  N   UNL     1       1.288   9.150  19.247  0.00  0.00    +0.000 N 
ATOM     24  C   UNL     1       1.575   8.281  20.353  0.00  0.00    +0.000 C 
ATOM     25  C   UNL     1       2.492   7.203  19.753  0.00  0.00    +0.000 C 
ATOM     26  O   UNL     1       2.956   7.813  18.532  0.00  0.00    +0.000 OA
ATOM     27  C   UNL     1       2.108   8.833  18.190  0.00  0.00    +0.000 C 
ATOM     28  O   UNL     1       2.110   9.349  17.083  0.00  0.00    +0.000 OA
BRANCH  25  29
ATOM     29  C   UNL     1       1.953   5.800  19.470  0.00  0.00    +0.000 A 
ATOM     30  C   UNL     1       1.339   5.058  20.511  0.00  0.00    +0.000 A 
ATOM     31  C   UNL     1       0.792   3.790  20.288  0.00  0.00    +0.000 A 
ATOM     32  C   UNL     1       0.821   3.231  19.013  0.00  0.00    +0.000 A 
ATOM     33  C   UNL     1       1.375   3.956  17.966  0.00  0.00    +0.000 A 
ATOM     34  C   UNL     1       1.924   5.232  18.187  0.00  0.00    +0.000 A 
ENDBRANCH  25  29
ENDBRANCH  22  23
ENDBRANCH   6  22
TORSDOF 7
ENDMDL
MODEL 6
REMARK VINA RESULT:      -7.2      4.729      9.073
REMARK  Name = 
REMARK  10 active torsions:
REMARK  status: ('A' for Active; 'I' for Inactive)
REMARK    1  A    between atoms: C_1  and  O_2
REMARK    2  A    between atoms: O_2  and  C_3
REMARK    3  A    between atoms: C_6  and  C_7
REMARK    4  A    between atoms: C_7  and  C_8
REMARK    5  A    between atoms: C_7  and  C_9
REMARK    6  A    between atoms: C_11  and  C_12
REMARK    7  A    between atoms: C_15  and  C_16
REMARK    8  A    between atoms: C_21  and  C_22
REMARK    9  A    between atoms: C_22  and  N_23
REMARK   10  A    between atoms: C_25  and  C_26
REMARK                            x       y       z     vdW  Elec       q    Type
REMARK                         _______ _______ _______ _____ _____    ______ ____
ROOT
ATOM      1  C   UNL     1      -1.756  12.126  21.071  0.00  0.00    +0.000 A 
ATOM      2  C   UNL     1      -1.181  11.671  22.284  0.00  0.00    +0.000 A 
ATOM      3  C   UNL     1      -0.361  10.554  22.345  0.00  0.00    +0.000 A 
ATOM      4  C   UNL     1      -0.043   9.861  21.178  0.00  0.00    +0.000 A 
ATOM      5  C   UNL     1      -0.583  10.300  19.946  0.00  0.00    +0.000 A 
ATOM      6  C   UNL     1      -1.468  11.400  19.863  0.00  0.00    +0.000 A 
ENDROOT
BRANCH   1  12
ATOM      7  C   UNL     1      -2.145  14.639  20.787  0.00  0.00    +0.000 A 
ATOM      8  C   UNL     1      -2.966  15.760  20.951  0.00  0.00    +0.000 A 
ATOM      9  C   UNL     1      -4.198  15.654  21.610  0.00  0.00    +0.000 A 
ATOM     10  C   UNL     1      -4.643  14.426  22.104  0.00  0.00    +0.000 A 
ATOM     11  C   UNL     1      -3.842  13.297  21.865  0.00  0.00    +0.000 A 
ATOM     12  C   UNL     1      -2.594  13.364  21.189  0.00  0.00    +0.000 A 
BRANCH  10  13
ATOM     13  C   UNL     1      -5.959  14.339  22.865  0.00  0.00    +0.000 C 
ATOM     14  C   UNL     1      -6.833  15.568  22.606  0.00  0.00    +0.000 C 
ATOM     15  C   UNL     1      -6.744  13.055  22.571  0.00  0.00    +0.000 C 
ENDBRANCH  10  13
BRANCH   7  17
ATOM     16  C   UNL     1      -0.021  15.774  20.748  0.00  0.00    +0.000 C 
ATOM     17  O   UNL     1      -0.853  14.699  20.342  0.00  0.00    +0.000 OA
ENDBRANCH   7  17
ENDBRANCH   1  12
BRANCH   4  18
ATOM     18  C   UNL     1       0.884   8.673  21.250  0.00  0.00    +0.000 C 
ATOM     19  F   UNL     1       1.745   8.722  22.311  0.00  0.00    +0.000 F 
ATOM     20  F   UNL     1       0.215   7.494  21.379  0.00  0.00    +0.000 F 
ATOM     21  F   UNL     1       1.669   8.546  20.146  0.00  0.00    +0.000 F 
ENDBRANCH   4  18
BRANCH   6  22
ATOM     22  C   UNL     1      -2.030  11.843  18.507  0.00  0.00    +0.000 C 
BRANCH  22  23
ATOM     23  N   UNL     1      -3.381  11.426  18.084  0.00  0.00    +0.000 N 
ATOM     24  C   UNL     1      -4.555  11.519  18.906  0.00  0.00    +0.000 C 
ATOM     25  C   UNL     1      -5.690  11.790  17.907  0.00  0.00    +0.000 C 
ATOM     26  O   UNL     1      -5.115  11.392  16.645  0.00  0.00    +0.000 OA
ATOM     27  C   UNL     1      -3.751  11.371  16.761  0.00  0.00    +0.000 C 
ATOM     28  O   UNL     1      -3.007  11.321  15.794  0.00  0.00    +0.000 OA
BRANCH  25  29
ATOM     29  C   UNL     1      -6.302  13.187  17.791  0.00  0.00    +0.000 A 
ATOM     30  C   UNL     1      -6.370  14.023  18.934  0.00  0.00    +0.000 A 
ATOM     31  C   UNL     1      -6.879  15.324  18.865  0.00  0.00    +0.000 A 
ATOM     32  C   UNL     1      -7.317  15.840  17.648  0.00  0.00    +0.000 A 
ATOM     33  C   UNL     1      -7.218  15.058  16.504  0.00  0.00    +0.000 A 
ATOM     34  C   UNL     1      -6.704  13.751  16.570  0.00  0.00    +0.000 A 
ENDBRANCH  25  29
ENDBRANCH  22  23
ENDBRANCH   6  22
TORSDOF 7
ENDMDL
MODEL 7
REMARK VINA RESULT:      -7.2      3.881      8.461
REMARK  Name = 
REMARK  10 active torsions:
REMARK  status: ('A' for Active; 'I' for Inactive)
REMARK    1  A    between atoms: C_1  and  O_2
REMARK    2  A    between atoms: O_2  and  C_3
REMARK    3  A    between atoms: C_6  and  C_7
REMARK    4  A    between atoms: C_7  and  C_8
REMARK    5  A    between atoms: C_7  and  C_9
REMARK    6  A    between atoms: C_11  and  C_12
REMARK    7  A    between atoms: C_15  and  C_16
REMARK    8  A    between atoms: C_21  and  C_22
REMARK    9  A    between atoms: C_22  and  N_23
REMARK   10  A    between atoms: C_25  and  C_26
REMARK                            x       y       z     vdW  Elec       q    Type
REMARK                         _______ _______ _______ _____ _____    ______ ____
ROOT
ATOM      1  C   UNL     1      -1.770  11.764  19.042  0.00  0.00    +0.000 A 
ATOM      2  C   UNL     1      -2.646  11.337  18.014  0.00  0.00    +0.000 A 
ATOM      3  C   UNL     1      -4.016  11.549  18.069  0.00  0.00    +0.000 A 
ATOM      4  C   UNL     1      -4.569  12.243  19.144  0.00  0.00    +0.000 A 
ATOM      5  C   UNL     1      -3.721  12.702  20.179  0.00  0.00    +0.000 A 
ATOM      6  C   UNL     1      -2.329  12.448  20.178  0.00  0.00    +0.000 A 
ENDROOT
BRANCH   1  12
ATOM      7  C   UNL     1       0.625  12.471  18.484  0.00  0.00    +0.000 A 
ATOM      8  C   UNL     1       1.960  12.129  18.244  0.00  0.00    +0.000 A 
ATOM      9  C   UNL     1       2.360  10.787  18.211  0.00  0.00    +0.000 A 
ATOM     10  C   UNL     1       1.440   9.759  18.433  0.00  0.00    +0.000 A 
ATOM     11  C   UNL     1       0.119  10.122  18.747  0.00  0.00    +0.000 A 
ATOM     12  C   UNL     1      -0.319  11.473  18.803  0.00  0.00    +0.000 A 
BRANCH  10  13
ATOM     13  C   UNL     1       1.880   8.304  18.340  0.00  0.00    +0.000 C 
ATOM     14  C   UNL     1       3.183   8.168  17.549  0.00  0.00    +0.000 C 
ATOM     15  C   UNL     1       2.013   7.625  19.709  0.00  0.00    +0.000 C 
ENDBRANCH  10  13
BRANCH   7  17
ATOM     16  C   UNL     1       0.825  14.839  18.877  0.00  0.00    +0.000 C 
ATOM     17  O   UNL     1       0.123  13.734  18.331  0.00  0.00    +0.000 OA
ENDBRANCH   7  17
ENDBRANCH   1  12
BRANCH   4  18
ATOM     18  C   UNL     1      -6.055  12.506  19.172  0.00  0.00    +0.000 C 
ATOM     19  F   UNL     1      -6.723  11.951  18.116  0.00  0.00    +0.000 F 
ATOM     20  F   UNL     1      -6.654  12.003  20.286  0.00  0.00    +0.000 F 
ATOM     21  F   UNL     1      -6.358  13.832  19.142  0.00  0.00    +0.000 F 
ENDBRANCH   4  18
BRANCH   6  22
ATOM     22  C   UNL     1      -1.445  12.965  21.319  0.00  0.00    +0.000 C 
BRANCH  22  23
ATOM     23  N   UNL     1      -2.014  13.196  22.660  0.00  0.00    +0.000 N 
ATOM     24  C   UNL     1      -2.684  14.400  23.063  0.00  0.00    +0.000 C 
ATOM     25  C   UNL     1      -3.739  13.921  24.072  0.00  0.00    +0.000 C 
ATOM     26  O   UNL     1      -3.265  12.609  24.441  0.00  0.00    +0.000 OA
ATOM     27  C   UNL     1      -2.395  12.162  23.483  0.00  0.00    +0.000 C 
ATOM     28  O   UNL     1      -2.044  10.995  23.403  0.00  0.00    +0.000 OA
BRANCH  25  29
ATOM     29  C   UNL     1      -5.215  13.857  23.676  0.00  0.00    +0.000 A 
ATOM     30  C   UNL     1      -5.727  14.768  22.717  0.00  0.00    +0.000 A 
ATOM     31  C   UNL     1      -7.058  14.718  22.291  0.00  0.00    +0.000 A 
ATOM     32  C   UNL     1      -7.916  13.742  22.793  0.00  0.00    +0.000 A 
ATOM     33  C   UNL     1      -7.428  12.809  23.698  0.00  0.00    +0.000 A 
ATOM     34  C   UNL     1      -6.089  12.856  24.126  0.00  0.00    +0.000 A 
ENDBRANCH  25  29
ENDBRANCH  22  23
ENDBRANCH   6  22
TORSDOF 7
ENDMDL
MODEL 8
REMARK VINA RESULT:      -7.2      3.508      8.390
REMARK  Name = 
REMARK  10 active torsions:
REMARK  status: ('A' for Active; 'I' for Inactive)
REMARK    1  A    between atoms: C_1  and  O_2
REMARK    2  A    between atoms: O_2  and  C_3
REMARK    3  A    between atoms: C_6  and  C_7
REMARK    4  A    between atoms: C_7  and  C_8
REMARK    5  A    between atoms: C_7  and  C_9
REMARK    6  A    between atoms: C_11  and  C_12
REMARK    7  A    between atoms: C_15  and  C_16
REMARK    8  A    between atoms: C_21  and  C_22
REMARK    9  A    between atoms: C_22  and  N_23
REMARK   10  A    between atoms: C_25  and  C_26
REMARK                            x       y       z     vdW  Elec       q    Type
REMARK                         _______ _______ _______ _____ _____    ______ ____
ROOT
ATOM      1  C   UNL     1       0.514   9.727  20.121  0.00  0.00    +0.000 A 
ATOM      2  C   UNL     1       0.906  10.285  21.363  0.00  0.00    +0.000 A 
ATOM      3  C   UNL     1       0.119  11.199  22.049  0.00  0.00    +0.000 A 
ATOM      4  C   UNL     1      -1.124  11.565  21.539  0.00  0.00    +0.000 A 
ATOM      5  C   UNL     1      -1.557  11.012  20.312  0.00  0.00    +0.000 A 
ATOM      6  C   UNL     1      -0.751  10.124  19.562  0.00  0.00    +0.000 A 
ENDROOT
BRANCH   1  12
ATOM      7  C   UNL     1       2.134   8.938  18.305  0.00  0.00    +0.000 A 
ATOM      8  C   UNL     1       2.998   7.961  17.799  0.00  0.00    +0.000 A 
ATOM      9  C   UNL     1       3.144   6.729  18.449  0.00  0.00    +0.000 A 
ATOM     10  C   UNL     1       2.442   6.451  19.624  0.00  0.00    +0.000 A 
ATOM     11  C   UNL     1       1.636   7.471  20.160  0.00  0.00    +0.000 A 
ATOM     12  C   UNL     1       1.476   8.737  19.536  0.00  0.00    +0.000 A 
BRANCH  10  13
ATOM     13  C   UNL     1       2.570   5.087  20.288  0.00  0.00    +0.000 C 
ATOM     14  C   UNL     1       1.199   4.443  20.502  0.00  0.00    +0.000 C 
ATOM     15  C   UNL     1       3.497   4.130  19.529  0.00  0.00    +0.000 C 
ENDBRANCH  10  13
BRANCH   7  17
ATOM     16  C   UNL     1       2.449  11.294  17.914  0.00  0.00    +0.000 C 
ATOM     17  O   UNL     1       1.786  10.073  17.626  0.00  0.00    +0.000 OA
ENDBRANCH   7  17
ENDBRANCH   1  12
BRANCH   4  18
ATOM     18  C   UNL     1      -1.990  12.528  22.316  0.00  0.00    +0.000 C 
ATOM     19  F   UNL     1      -3.120  11.951  22.824  0.00  0.00    +0.000 F 
ATOM     20  F   UNL     1      -1.343  13.066  23.387  0.00  0.00    +0.000 F 
ATOM     21  F   UNL     1      -2.420  13.577  21.565  0.00  0.00    +0.000 F 
ENDBRANCH   4  18
BRANCH   6  22
ATOM     22  C   UNL     1      -1.260   9.545  18.236  0.00  0.00    +0.000 C 
BRANCH  22  23
ATOM     23  N   UNL     1      -2.424  10.144  17.556  0.00  0.00    +0.000 N 
ATOM     24  C   UNL     1      -3.753   9.603  17.592  0.00  0.00    +0.000 C 
ATOM     25  C   UNL     1      -4.662  10.840  17.527  0.00  0.00    +0.000 C 
ATOM     26  O   UNL     1      -3.779  11.868  17.034  0.00  0.00    +0.000 OA
ATOM     27  C   UNL     1      -2.482  11.482  17.243  0.00  0.00    +0.000 C 
ATOM     28  O   UNL     1      -1.542  12.256  17.161  0.00  0.00    +0.000 OA
BRANCH  25  29
ATOM     29  C   UNL     1      -5.394  11.328  18.778  0.00  0.00    +0.000 A 
ATOM     30  C   UNL     1      -6.576  10.670  19.206  0.00  0.00    +0.000 A 
ATOM     31  C   UNL     1      -7.252  11.053  20.368  0.00  0.00    +0.000 A 
ATOM     32  C   UNL     1      -6.759  12.091  21.155  0.00  0.00    +0.000 A 
ATOM     33  C   UNL     1      -5.578  12.721  20.785  0.00  0.00    +0.000 A 
ATOM     34  C   UNL     1      -4.894  12.337  19.617  0.00  0.00    +0.000 A 
ENDBRANCH  25  29
ENDBRANCH  22  23
ENDBRANCH   6  22
TORSDOF 7
ENDMDL
MODEL 9
REMARK VINA RESULT:      -7.2      2.088      2.877
REMARK  Name = 
REMARK  10 active torsions:
REMARK  status: ('A' for Active; 'I' for Inactive)
REMARK    1  A    between atoms: C_1  and  O_2
REMARK    2  A    between atoms: O_2  and  C_3
REMARK    3  A    between atoms: C_6  and  C_7
REMARK    4  A    between atoms: C_7  and  C_8
REMARK    5  A    between atoms: C_7  and  C_9
REMARK    6  A    between atoms: C_11  and  C_12
REMARK    7  A    between atoms: C_15  and  C_16
REMARK    8  A    between atoms: C_21  and  C_22
REMARK    9  A    between atoms: C_22  and  N_23
REMARK   10  A    between atoms: C_25  and  C_26
REMARK                            x       y       z     vdW  Elec       q    Type
REMARK                         _______ _______ _______ _____ _____    ______ ____
ROOT
ATOM      1  C   UNL     1      -0.516  11.830  18.834  0.00  0.00    +0.000 A 
ATOM      2  C   UNL     1      -1.148  12.568  17.803  0.00  0.00    +0.000 A 
ATOM      3  C   UNL     1      -1.955  11.968  16.846  0.00  0.00    +0.000 A 
ATOM      4  C   UNL     1      -2.201  10.598  16.906  0.00  0.00    +0.000 A 
ATOM      5  C   UNL     1      -1.602   9.833  17.934  0.00  0.00    +0.000 A 
ATOM      6  C   UNL     1      -0.729  10.408  18.887  0.00  0.00    +0.000 A 
ENDROOT
BRANCH   1  12
ATOM      7  C   UNL     1      -0.203  13.106  21.029  0.00  0.00    +0.000 A 
ATOM      8  C   UNL     1       0.599  13.889  21.867  0.00  0.00    +0.000 A 
ATOM      9  C   UNL     1       1.866  14.316  21.450  0.00  0.00    +0.000 A 
ATOM     10  C   UNL     1       2.366  13.958  20.196  0.00  0.00    +0.000 A 
ATOM     11  C   UNL     1       1.581  13.109  19.398  0.00  0.00    +0.000 A 
ATOM     12  C   UNL     1       0.297  12.646  19.793  0.00  0.00    +0.000 A 
BRANCH  10  13
ATOM     13  C   UNL     1       3.723  14.476  19.737  0.00  0.00    +0.000 C 
ATOM     14  C   UNL     1       3.784  14.597  18.214  0.00  0.00    +0.000 C 
ATOM     15  C   UNL     1       4.117  15.804  20.395  0.00  0.00    +0.000 C 
ENDBRANCH  10  13
BRANCH   7  17
ATOM     16  C   UNL     1      -1.927  12.495  22.596  0.00  0.00    +0.000 C 
ATOM     17  O   UNL     1      -1.518  12.824  21.278  0.00  0.00    +0.000 OA
ENDBRANCH   7  17
ENDBRANCH   1  12
BRANCH   4  18
ATOM     18  C   UNL     1      -3.114   9.963  15.885  0.00  0.00    +0.000 C 
ATOM     19  F   UNL     1      -3.454   8.675  16.189  0.00  0.00    +0.000 F 
ATOM     20  F   UNL     1      -4.294  10.629  15.754  0.00  0.00    +0.000 F 
ATOM     21  F   UNL     1      -2.565   9.914  14.641  0.00  0.00    +0.000 F 
ENDBRANCH   4  18
BRANCH   6  22
ATOM     22  C   UNL     1      -0.102   9.543  19.987  0.00  0.00    +0.000 C 
BRANCH  22  23
ATOM     23  N   UNL     1       1.213   8.907  19.780  0.00  0.00    +0.000 N 
ATOM     24  C   UNL     1       1.794   7.935  20.662  0.00  0.00    +0.000 C 
ATOM     25  C   UNL     1       2.609   7.024  19.730  0.00  0.00    +0.000 C 
ATOM     26  O   UNL     1       2.746   7.820  18.535  0.00  0.00    +0.000 OA
ATOM     27  C   UNL     1       1.786   8.796  18.535  0.00  0.00    +0.000 C 
ATOM     28  O   UNL     1       1.505   9.444  17.539  0.00  0.00    +0.000 OA
BRANCH  25  29
ATOM     29  C   UNL     1       2.100   5.626  19.378  0.00  0.00    +0.000 A 
ATOM     30  C   UNL     1       1.462   4.837  20.369  0.00  0.00    +0.000 A 
ATOM     31  C   UNL     1       0.941   3.571  20.081  0.00  0.00    +0.000 A 
ATOM     32  C   UNL     1       1.021   3.061  18.788  0.00  0.00    +0.000 A 
ATOM     33  C   UNL     1       1.599   3.832  17.787  0.00  0.00    +0.000 A 
ATOM     34  C   UNL     1       2.122   5.105  18.074  0.00  0.00    +0.000 A 
ENDBRANCH  25  29
ENDBRANCH  22  23
ENDBRANCH   6  22
TORSDOF 7
ENDMDL
