MODEL 1
REMARK VINA RESULT:      -7.5      0.000      0.000
REMARK  Name = 
REMARK  8 active torsions:
REMARK  status: ('A' for Active; 'I' for Inactive)
REMARK    1  A    between atoms: C_1  and  O_2
REMARK    2  A    between atoms: O_2  and  C_3
REMARK    3  A    between atoms: C_5  and  C_6
REMARK    4  A    between atoms: N_8  and  C_9
REMARK    5  A    between atoms: C_9  and  C_10
REMARK    6  A    between atoms: C_10  and  O_11
REMARK    7  A    between atoms: C_14  and  N_15
REMARK    8  A    between atoms: C_16  and  C_18
REMARK                            x       y       z     vdW  Elec       q    Type
REMARK                         _______ _______ _______ _____ _____    ______ ____
ROOT
ATOM      1  C   UNL     1       2.907   5.595  18.217  0.00  0.00    +0.000 A 
ATOM      2  C   UNL     1       3.806   4.842  17.429  0.00  0.00    +0.000 A 
ATOM      3  C   UNL     1       4.806   5.461  16.664  0.00  0.00    +0.000 A 
ATOM      4  C   UNL     1       4.882   6.848  16.663  0.00  0.00    +0.000 A 
ATOM      5  C   UNL     1       3.968   7.598  17.410  0.00  0.00    +0.000 A 
ATOM      6  C   UNL     1       2.953   7.003  18.173  0.00  0.00    +0.000 A 
ENDROOT
BRANCH   3   7
ATOM      7  C   UNL     1       5.760   4.594  15.906  0.00  0.00    +0.000 C 
ATOM      8  O   UNL     1       6.768   4.164  16.458  0.00  0.00    +0.000 OA
ATOM      9  N   UNL     1       5.474   4.324  14.586  0.00  0.00    +0.000 N 
ATOM     10  H   UNL     1       4.659   4.707  14.132  0.00  0.00    +0.000 HD
BRANCH   9  11
ATOM     11  C   UNL     1       6.385   3.558  13.748  0.00  0.00    +0.000 C 
BRANCH  11  12
ATOM     12  C   UNL     1       5.831   3.351  12.342  0.00  0.00    +0.000 C 
BRANCH  12  13
ATOM     13  O   UNL     1       6.279   2.099  11.821  0.00  0.00    +0.000 OA
ATOM     14  H   UNL     1       6.332   2.218  10.856  0.00  0.00    +0.000 HD
ENDBRANCH  12  13
ENDBRANCH  11  12
ENDBRANCH   9  11
ENDBRANCH   3   7
BRANCH   6  15
ATOM     15  N   UNL     1       2.031   7.799  18.910  0.00  0.00    +0.000 N 
ATOM     16  C   UNL     1       1.489   8.996  18.453  0.00  0.00    +0.000 C 
ATOM     17  O   UNL     1       1.629   9.411  17.303  0.00  0.00    +0.000 OA
ATOM     18  H   UNL     1       1.684   7.415  19.788  0.00  0.00    +0.000 HD
BRANCH  16  19
ATOM     19  C   UNL     1       0.682   9.796  19.379  0.00  0.00    +0.000 A 
ATOM     20  C   UNL     1      -0.121  10.812  18.875  0.00  0.00    +0.000 A 
ATOM     21  S   UNL     1      -1.028  11.622  20.061  0.00  0.00    +0.000 S 
ATOM     22  C   UNL     1      -0.330  10.679  21.305  0.00  0.00    +0.000 A 
ATOM     23  C   UNL     1      -0.563  10.746  22.669  0.00  0.00    +0.000 A 
ATOM     24  N   UNL     1       0.132   9.940  23.493  0.00  0.00    +0.000 NA
ATOM     25  C   UNL     1       1.011   9.092  22.938  0.00  0.00    +0.000 A 
ATOM     26  N   UNL     1       1.279   8.917  21.634  0.00  0.00    +0.000 NA
ATOM     27  C   UNL     1       0.585   9.747  20.810  0.00  0.00    +0.000 A 
ENDBRANCH  16  19
ENDBRANCH   6  15
BRANCH   1  29
ATOM     28  C   UNL     1       2.413   4.420  20.216  0.00  0.00    +0.000 C 
ATOM     29  O   UNL     1       1.937   5.003  18.998  0.00  0.00    +0.000 OA
ENDBRANCH   1  29
TORSDOF 7
ENDMDL
MODEL 2
REMARK VINA RESULT:      -7.2      1.639      2.009
REMARK  Name = 
REMARK  8 active torsions:
REMARK  status: ('A' for Active; 'I' for Inactive)
REMARK    1  A    between atoms: C_1  and  O_2
REMARK    2  A    between atoms: O_2  and  C_3
REMARK    3  A    between atoms: C_5  and  C_6
REMARK    4  A    between atoms: N_8  and  C_9
REMARK    5  A    between atoms: C_9  and  C_10
REMARK    6  A    between atoms: C_10  and  O_11
REMARK    7  A    between atoms: C_14  and  N_15
REMARK    8  A    between atoms: C_16  and  C_18
REMARK                            x       y       z     vdW  Elec       q    Type
REMARK                         _______ _______ _______ _____ _____    ______ ____
ROOT
ATOM      1  C   UNL     1       3.562   5.154  17.819  0.00  0.00    +0.000 A 
ATOM      2  C   UNL     1       4.376   4.573  16.821  0.00  0.00    +0.000 A 
ATOM      3  C   UNL     1       5.269   5.345  16.061  0.00  0.00    +0.000 A 
ATOM      4  C   UNL     1       5.319   6.716  16.282  0.00  0.00    +0.000 A 
ATOM      5  C   UNL     1       4.484   7.300  17.241  0.00  0.00    +0.000 A 
ATOM      6  C   UNL     1       3.576   6.551  18.003  0.00  0.00    +0.000 A 
ENDROOT
BRANCH   3   7
ATOM      7  C   UNL     1       6.143   4.649  15.068  0.00  0.00    +0.000 C 
ATOM      8  O   UNL     1       7.348   4.545  15.278  0.00  0.00    +0.000 OA
ATOM      9  N   UNL     1       5.552   4.159  13.924  0.00  0.00    +0.000 N 
ATOM     10  H   UNL     1       4.567   4.275  13.745  0.00  0.00    +0.000 HD
BRANCH   9  11
ATOM     11  C   UNL     1       6.337   3.540  12.865  0.00  0.00    +0.000 C 
BRANCH  11  12
ATOM     12  C   UNL     1       5.463   2.760  11.888  0.00  0.00    +0.000 C 
BRANCH  12  13
ATOM     13  O   UNL     1       6.042   1.480  11.631  0.00  0.00    +0.000 OA
ATOM     14  H   UNL     1       5.979   0.988  12.469  0.00  0.00    +0.000 HD
ENDBRANCH  12  13
ENDBRANCH  11  12
ENDBRANCH   9  11
ENDBRANCH   3   7
BRANCH   6  15
ATOM     15  N   UNL     1       2.732   7.182  18.961  0.00  0.00    +0.000 N 
ATOM     16  C   UNL     1       1.949   8.301  18.698  0.00  0.00    +0.000 C 
ATOM     17  O   UNL     1       1.783   8.765  17.571  0.00  0.00    +0.000 OA
ATOM     18  H   UNL     1       2.636   6.725  19.867  0.00  0.00    +0.000 HD
BRANCH  16  19
ATOM     19  C   UNL     1       1.256   8.946  19.817  0.00  0.00    +0.000 A 
ATOM     20  C   UNL     1       1.256   8.326  21.061  0.00  0.00    +0.000 A 
ATOM     21  S   UNL     1       0.451   9.212  22.268  0.00  0.00    +0.000 S 
ATOM     22  C   UNL     1       0.019  10.431  21.150  0.00  0.00    +0.000 A 
ATOM     23  C   UNL     1      -0.715  11.584  21.376  0.00  0.00    +0.000 A 
ATOM     24  N   UNL     1      -0.990  12.399  20.341  0.00  0.00    +0.000 NA
ATOM     25  C   UNL     1      -0.517  12.054  19.134  0.00  0.00    +0.000 A 
ATOM     26  N   UNL     1       0.237  10.989  18.817  0.00  0.00    +0.000 NA
ATOM     27  C   UNL     1       0.496  10.161  19.865  0.00  0.00    +0.000 A 
ENDBRANCH  16  19
ENDBRANCH   6  15
BRANCH   1  29
ATOM     28  C   UNL     1       1.531   3.934  17.918  0.00  0.00    +0.000 C 
ATOM     29  O   UNL     1       2.701   4.407  18.594  0.00  0.00    +0.000 OA
ENDBRANCH   1  29
TORSDOF 7
ENDMDL
MODEL 3
REMARK VINA RESULT:      -7.1      1.533      1.683
REMARK  Name = 
REMARK  8 active torsions:
REMARK  status: ('A' for Active; 'I' for Inactive)
REMARK    1  A    between atoms: C_1  and  O_2
REMARK    2  A    between atoms: O_2  and  C_3
REMARK    3  A    between atoms: C_5  and  C_6
REMARK    4  A    between atoms: N_8  and  C_9
REMARK    5  A    between atoms: C_9  and  C_10
REMARK    6  A    between atoms: C_10  and  O_11
REMARK    7  A    between atoms: C_14  and  N_15
REMARK    8  A    between atoms: C_16  and  C_18
REMARK                            x       y       z     vdW  Elec       q    Type
REMARK                         _______ _______ _______ _____ _____    ______ ____
ROOT
ATOM      1  C   UNL     1       2.549   6.381  19.532  0.00  0.00    +0.000 A 
ATOM      2  C   UNL     1       3.458   5.481  18.933  0.00  0.00    +0.000 A 
ATOM      3  C   UNL     1       4.224   5.847  17.815  0.00  0.00    +0.000 A 
ATOM      4  C   UNL     1       4.050   7.115  17.275  0.00  0.00    +0.000 A 
ATOM      5  C   UNL     1       3.120   7.993  17.841  0.00  0.00    +0.000 A 
ATOM      6  C   UNL     1       2.336   7.646  18.950  0.00  0.00    +0.000 A 
ENDROOT
BRANCH   3   7
ATOM      7  C   UNL     1       5.211   4.862  17.277  0.00  0.00    +0.000 C 
ATOM      8  O   UNL     1       6.033   4.343  18.027  0.00  0.00    +0.000 OA
ATOM      9  N   UNL     1       5.172   4.584  15.927  0.00  0.00    +0.000 N 
ATOM     10  H   UNL     1       4.514   5.037  15.313  0.00  0.00    +0.000 HD
BRANCH   9  11
ATOM     11  C   UNL     1       6.145   3.702  15.301  0.00  0.00    +0.000 C 
BRANCH  11  12
ATOM     12  C   UNL     1       6.914   4.400  14.183  0.00  0.00    +0.000 C 
BRANCH  12  13
ATOM     13  O   UNL     1       7.666   5.490  14.716  0.00  0.00    +0.000 OA
ATOM     14  H   UNL     1       7.011   6.104  15.093  0.00  0.00    +0.000 HD
ENDBRANCH  12  13
ENDBRANCH  11  12
ENDBRANCH   9  11
ENDBRANCH   3   7
BRANCH   6  15
ATOM     15  N   UNL     1       1.390   8.562  19.491  0.00  0.00    +0.000 N 
ATOM     16  C   UNL     1       0.892   9.668  18.810  0.00  0.00    +0.000 C 
ATOM     17  O   UNL     1       1.098   9.881  17.616  0.00  0.00    +0.000 OA
ATOM     18  H   UNL     1       0.991   8.335  20.401  0.00  0.00    +0.000 HD
BRANCH  16  19
ATOM     19  C   UNL     1       0.051  10.619  19.543  0.00  0.00    +0.000 A 
ATOM     20  C   UNL     1      -0.470  11.719  18.872  0.00  0.00    +0.000 A 
ATOM     21  S   UNL     1      -1.458  12.707  19.839  0.00  0.00    +0.000 S 
ATOM     22  C   UNL     1      -1.173  11.728  21.211  0.00  0.00    +0.000 A 
ATOM     23  C   UNL     1      -1.658  11.889  22.499  0.00  0.00    +0.000 A 
ATOM     24  N   UNL     1      -1.272  11.027  23.458  0.00  0.00    +0.000 NA
ATOM     25  C   UNL     1      -0.442  10.034  23.104  0.00  0.00    +0.000 A 
ATOM     26  N   UNL     1       0.048   9.764  21.884  0.00  0.00    +0.000 NA
ATOM     27  C   UNL     1      -0.333  10.650  20.924  0.00  0.00    +0.000 A 
ENDBRANCH  16  19
ENDBRANCH   6  15
BRANCH   1  29
ATOM     28  C   UNL     1       1.642   4.644  20.867  0.00  0.00    +0.000 C 
ATOM     29  O   UNL     1       1.811   6.048  20.648  0.00  0.00    +0.000 OA
ENDBRANCH   1  29
TORSDOF 7
ENDMDL
MODEL 4
REMARK VINA RESULT:      -7.0      1.220      1.259
REMARK  Name = 
REMARK  8 active torsions:
REMARK  status: ('A' for Active; 'I' for Inactive)
REMARK    1  A    between atoms: C_1  and  O_2
REMARK    2  A    between atoms: O_2  and  C_3
REMARK    3  A    between atoms: C_5  and  C_6
REMARK    4  A    between atoms: N_8  and  C_9
REMARK    5  A    between atoms: C_9  and  C_10
REMARK    6  A    between atoms: C_10  and  O_11
REMARK    7  A    between atoms: C_14  and  N_15
REMARK    8  A    between atoms: C_16  and  C_18
REMARK                            x       y       z     vdW  Elec       q    Type
REMARK                         _______ _______ _______ _____ _____    ______ ____
ROOT
ATOM      1  C   UNL     1       3.025   5.777  18.322  0.00  0.00    +0.000 A 
ATOM      2  C   UNL     1       3.968   5.049  17.562  0.00  0.00    +0.000 A 
ATOM      3  C   UNL     1       4.869   5.691  16.700  0.00  0.00    +0.000 A 
ATOM      4  C   UNL     1       4.801   7.074  16.574  0.00  0.00    +0.000 A 
ATOM      5  C   UNL     1       3.842   7.794  17.294  0.00  0.00    +0.000 A 
ATOM      6  C   UNL     1       2.923   7.172  18.152  0.00  0.00    +0.000 A 
ENDROOT
BRANCH   3   7
ATOM      7  C   UNL     1       5.879   4.858  15.978  0.00  0.00    +0.000 C 
ATOM      8  O   UNL     1       6.407   3.906  16.544  0.00  0.00    +0.000 OA
ATOM      9  N   UNL     1       6.199   5.212  14.685  0.00  0.00    +0.000 N 
ATOM     10  H   UNL     1       5.784   6.014  14.238  0.00  0.00    +0.000 HD
BRANCH   9  11
ATOM     11  C   UNL     1       7.229   4.510  13.934  0.00  0.00    +0.000 C 
BRANCH  11  12
ATOM     12  C   UNL     1       7.829   5.381  12.834  0.00  0.00    +0.000 C 
BRANCH  12  13
ATOM     13  O   UNL     1       8.999   6.040  13.319  0.00  0.00    +0.000 OA
ATOM     14  H   UNL     1       9.215   6.718  12.653  0.00  0.00    +0.000 HD
ENDBRANCH  12  13
ENDBRANCH  11  12
ENDBRANCH   9  11
ENDBRANCH   3   7
BRANCH   6  15
ATOM     15  N   UNL     1       1.951   7.937  18.858  0.00  0.00    +0.000 N 
ATOM     16  C   UNL     1       1.550   9.219  18.498  0.00  0.00    +0.000 C 
ATOM     17  O   UNL     1       1.876   9.763  17.443  0.00  0.00    +0.000 OA
ATOM     18  H   UNL     1       1.461   7.473  19.622  0.00  0.00    +0.000 HD
BRANCH  16  19
ATOM     19  C   UNL     1       0.665   9.954  19.406  0.00  0.00    +0.000 A 
ATOM     20  C   UNL     1      -0.180  10.929  18.887  0.00  0.00    +0.000 A 
ATOM     21  S   UNL     1      -1.174  11.665  20.052  0.00  0.00    +0.000 S 
ATOM     22  C   UNL     1      -0.464  10.745  21.306  0.00  0.00    +0.000 A 
ATOM     23  C   UNL     1      -0.748  10.777  22.662  0.00  0.00    +0.000 A 
ATOM     24  N   UNL     1      -0.034  10.001  23.499  0.00  0.00    +0.000 NA
ATOM     25  C   UNL     1       0.912   9.216  22.964  0.00  0.00    +0.000 A 
ATOM     26  N   UNL     1       1.235   9.078  21.668  0.00  0.00    +0.000 NA
ATOM     27  C   UNL     1       0.522   9.878  20.831  0.00  0.00    +0.000 A 
ENDBRANCH  16  19
ENDBRANCH   6  15
BRANCH   1  29
ATOM     28  C   UNL     1       1.478   4.016  18.673  0.00  0.00    +0.000 C 
ATOM     29  O   UNL     1       2.152   5.165  19.196  0.00  0.00    +0.000 OA
ENDBRANCH   1  29
TORSDOF 7
ENDMDL
MODEL 5
REMARK VINA RESULT:      -6.9      1.817      2.216
REMARK  Name = 
REMARK  8 active torsions:
REMARK  status: ('A' for Active; 'I' for Inactive)
REMARK    1  A    between atoms: C_1  and  O_2
REMARK    2  A    between atoms: O_2  and  C_3
REMARK    3  A    between atoms: C_5  and  C_6
REMARK    4  A    between atoms: N_8  and  C_9
REMARK    5  A    between atoms: C_9  and  C_10
REMARK    6  A    between atoms: C_10  and  O_11
REMARK    7  A    between atoms: C_14  and  N_15
REMARK    8  A    between atoms: C_16  and  C_18
REMARK                            x       y       z     vdW  Elec       q    Type
REMARK                         _______ _______ _______ _____ _____    ______ ____
ROOT
ATOM      1  C   UNL     1       3.511   5.184  17.842  0.00  0.00    +0.000 A 
ATOM      2  C   UNL     1       4.379   4.589  16.899  0.00  0.00    +0.000 A 
ATOM      3  C   UNL     1       5.308   5.352  16.175  0.00  0.00    +0.000 A 
ATOM      4  C   UNL     1       5.342   6.727  16.375  0.00  0.00    +0.000 A 
ATOM      5  C   UNL     1       4.456   7.323  17.278  0.00  0.00    +0.000 A 
ATOM      6  C   UNL     1       3.511   6.583  18.003  0.00  0.00    +0.000 A 
ENDROOT
BRANCH   3   7
ATOM      7  C   UNL     1       6.237   4.643  15.242  0.00  0.00    +0.000 C 
ATOM      8  O   UNL     1       7.395   4.422  15.580  0.00  0.00    +0.000 OA
ATOM      9  N   UNL     1       5.750   4.276  14.006  0.00  0.00    +0.000 N 
ATOM     10  H   UNL     1       4.806   4.489  13.724  0.00  0.00    +0.000 HD
BRANCH   9  11
ATOM     11  C   UNL     1       6.603   3.656  13.003  0.00  0.00    +0.000 C 
BRANCH  11  12
ATOM     12  C   UNL     1       7.225   4.686  12.065  0.00  0.00    +0.000 C 
BRANCH  12  13
ATOM     13  O   UNL     1       8.067   5.571  12.804  0.00  0.00    +0.000 OA
ATOM     14  H   UNL     1       7.607   6.430  12.810  0.00  0.00    +0.000 HD
ENDBRANCH  12  13
ENDBRANCH  11  12
ENDBRANCH   9  11
ENDBRANCH   3   7
BRANCH   6  15
ATOM     15  N   UNL     1       2.615   7.227  18.904  0.00  0.00    +0.000 N 
ATOM     16  C   UNL     1       1.930   8.404  18.620  0.00  0.00    +0.000 C 
ATOM     17  O   UNL     1       1.906   8.925  17.506  0.00  0.00    +0.000 OA
ATOM     18  H   UNL     1       2.401   6.740  19.773  0.00  0.00    +0.000 HD
BRANCH  16  19
ATOM     19  C   UNL     1       1.169   9.045  19.696  0.00  0.00    +0.000 A 
ATOM     20  C   UNL     1       1.227   8.510  20.978  0.00  0.00    +0.000 A 
ATOM     21  S   UNL     1       0.329   9.384  22.127  0.00  0.00    +0.000 S 
ATOM     22  C   UNL     1      -0.220  10.477  20.933  0.00  0.00    +0.000 A 
ATOM     23  C   UNL     1      -1.070  11.561  21.085  0.00  0.00    +0.000 A 
ATOM     24  N   UNL     1      -1.423  12.275  20.000  0.00  0.00    +0.000 NA
ATOM     25  C   UNL     1      -0.911  11.903  18.818  0.00  0.00    +0.000 A 
ATOM     26  N   UNL     1      -0.050  10.903  18.568  0.00  0.00    +0.000 NA
ATOM     27  C   UNL     1       0.288  10.176  19.667  0.00  0.00    +0.000 A 
ENDBRANCH  16  19
ENDBRANCH   6  15
BRANCH   1  29
ATOM     28  C   UNL     1       1.488   3.946  17.851  0.00  0.00    +0.000 C 
ATOM     29  O   UNL     1       2.612   4.446  18.583  0.00  0.00    +0.000 OA
ENDBRANCH   1  29
TORSDOF 7
ENDMDL
MODEL 6
REMARK VINA RESULT:      -6.8      1.605      1.945
REMARK  Name = 
REMARK  8 active torsions:
REMARK  status: ('A' for Active; 'I' for Inactive)
REMARK    1  A    between atoms: C_1  and  O_2
REMARK    2  A    between atoms: O_2  and  C_3
REMARK    3  A    between atoms: C_5  and  C_6
REMARK    4  A    between atoms: N_8  and  C_9
REMARK    5  A    between atoms: C_9  and  C_10
REMARK    6  A    between atoms: C_10  and  O_11
REMARK    7  A    between atoms: C_14  and  N_15
REMARK    8  A    between atoms: C_16  and  C_18
REMARK                            x       y       z     vdW  Elec       q    Type
REMARK                         _______ _______ _______ _____ _____    ______ ____
ROOT
ATOM      1  C   UNL     1       3.051   5.310  18.429  0.00  0.00    +0.000 A 
ATOM      2  C   UNL     1       3.782   4.551  17.488  0.00  0.00    +0.000 A 
ATOM      3  C   UNL     1       4.673   5.158  16.589  0.00  0.00    +0.000 A 
ATOM      4  C   UNL     1       4.805   6.541  16.614  0.00  0.00    +0.000 A 
ATOM      5  C   UNL     1       4.051   7.298  17.516  0.00  0.00    +0.000 A 
ATOM      6  C   UNL     1       3.147   6.716  18.415  0.00  0.00    +0.000 A 
ENDROOT
BRANCH   3   7
ATOM      7  C   UNL     1       5.458   4.282  15.667  0.00  0.00    +0.000 C 
ATOM      8  O   UNL     1       5.946   3.235  16.081  0.00  0.00    +0.000 OA
ATOM      9  N   UNL     1       5.624   4.704  14.365  0.00  0.00    +0.000 N 
ATOM     10  H   UNL     1       5.247   5.581  14.041  0.00  0.00    +0.000 HD
BRANCH   9  11
ATOM     11  C   UNL     1       6.441   3.959  13.419  0.00  0.00    +0.000 C 
BRANCH  11  12
ATOM     12  C   UNL     1       5.597   3.288  12.340  0.00  0.00    +0.000 C 
BRANCH  12  13
ATOM     13  O   UNL     1       6.241   2.097  11.887  0.00  0.00    +0.000 OA
ATOM     14  H   UNL     1       5.806   1.365  12.361  0.00  0.00    +0.000 HD
ENDBRANCH  12  13
ENDBRANCH  11  12
ENDBRANCH   9  11
ENDBRANCH   3   7
BRANCH   6  15
ATOM     15  N   UNL     1       2.386   7.520  19.311  0.00  0.00    +0.000 N 
ATOM     16  C   UNL     1       1.592   8.593  18.919  0.00  0.00    +0.000 C 
ATOM     17  O   UNL     1       1.341   8.860  17.744  0.00  0.00    +0.000 OA
ATOM     18  H   UNL     1       2.359   7.229  20.287  0.00  0.00    +0.000 HD
BRANCH  16  19
ATOM     19  C   UNL     1       0.996   9.437  19.958  0.00  0.00    +0.000 A 
ATOM     20  C   UNL     1       0.418   8.834  21.070  0.00  0.00    +0.000 A 
ATOM     21  S   UNL     1      -0.193   9.939  22.208  0.00  0.00    +0.000 S 
ATOM     22  C   UNL     1       0.240  11.266  21.221  0.00  0.00    +0.000 A 
ATOM     23  C   UNL     1       0.050  12.617  21.464  0.00  0.00    +0.000 A 
ATOM     24  N   UNL     1       0.422  13.510  20.529  0.00  0.00    +0.000 NA
ATOM     25  C   UNL     1       0.981  13.037  19.405  0.00  0.00    +0.000 A 
ATOM     26  N   UNL     1       1.249  11.759  19.090  0.00  0.00    +0.000 NA
ATOM     27  C   UNL     1       0.854  10.862  20.033  0.00  0.00    +0.000 A 
ENDBRANCH  16  19
ENDBRANCH   6  15
BRANCH   1  29
ATOM     28  C   UNL     1       1.285   3.769  18.787  0.00  0.00    +0.000 C 
ATOM     29  O   UNL     1       2.194   4.728  19.339  0.00  0.00    +0.000 OA
ENDBRANCH   1  29
TORSDOF 7
ENDMDL
MODEL 7
REMARK VINA RESULT:      -6.8      2.101      2.549
REMARK  Name = 
REMARK  8 active torsions:
REMARK  status: ('A' for Active; 'I' for Inactive)
REMARK    1  A    between atoms: C_1  and  O_2
REMARK    2  A    between atoms: O_2  and  C_3
REMARK    3  A    between atoms: C_5  and  C_6
REMARK    4  A    between atoms: N_8  and  C_9
REMARK    5  A    between atoms: C_9  and  C_10
REMARK    6  A    between atoms: C_10  and  O_11
REMARK    7  A    between atoms: C_14  and  N_15
REMARK    8  A    between atoms: C_16  and  C_18
REMARK                            x       y       z     vdW  Elec       q    Type
REMARK                         _______ _______ _______ _____ _____    ______ ____
ROOT
ATOM      1  C   UNL     1       2.354   5.898  19.654  0.00  0.00    +0.000 A 
ATOM      2  C   UNL     1       3.015   4.981  18.806  0.00  0.00    +0.000 A 
ATOM      3  C   UNL     1       3.759   5.413  17.697  0.00  0.00    +0.000 A 
ATOM      4  C   UNL     1       3.811   6.774  17.419  0.00  0.00    +0.000 A 
ATOM      5  C   UNL     1       3.125   7.680  18.233  0.00  0.00    +0.000 A 
ATOM      6  C   UNL     1       2.365   7.271  19.339  0.00  0.00    +0.000 A 
ENDROOT
BRANCH   3   7
ATOM      7  C   UNL     1       4.482   4.388  16.883  0.00  0.00    +0.000 C 
ATOM      8  O   UNL     1       4.236   3.196  17.040  0.00  0.00    +0.000 OA
ATOM      9  N   UNL     1       5.430   4.831  15.986  0.00  0.00    +0.000 N 
ATOM     10  H   UNL     1       5.647   5.810  15.887  0.00  0.00    +0.000 HD
BRANCH   9  11
ATOM     11  C   UNL     1       6.240   3.903  15.212  0.00  0.00    +0.000 C 
BRANCH  11  12
ATOM     12  C   UNL     1       6.739   4.526  13.912  0.00  0.00    +0.000 C 
BRANCH  12  13
ATOM     13  O   UNL     1       7.787   5.456  14.189  0.00  0.00    +0.000 OA
ATOM     14  H   UNL     1       8.285   5.548  13.358  0.00  0.00    +0.000 HD
ENDBRANCH  12  13
ENDBRANCH  11  12
ENDBRANCH   9  11
ENDBRANCH   3   7
BRANCH   6  15
ATOM     15  N   UNL     1       1.668   8.221  20.138  0.00  0.00    +0.000 N 
ATOM     16  C   UNL     1       0.993   9.327  19.630  0.00  0.00    +0.000 C 
ATOM     17  O   UNL     1       0.796   9.511  18.430  0.00  0.00    +0.000 OA
ATOM     18  H   UNL     1       1.590   8.022  21.134  0.00  0.00    +0.000 HD
BRANCH  16  19
ATOM     19  C   UNL     1       0.460  10.313  20.574  0.00  0.00    +0.000 A 
ATOM     20  C   UNL     1      -0.362   9.883  21.610  0.00  0.00    +0.000 A 
ATOM     21  S   UNL     1      -0.869  11.131  22.646  0.00  0.00    +0.000 S 
ATOM     22  C   UNL     1      -0.053  12.304  21.707  0.00  0.00    +0.000 A 
ATOM     23  C   UNL     1       0.011  13.674  21.907  0.00  0.00    +0.000 A 
ATOM     24  N   UNL     1       0.671  14.436  21.016  0.00  0.00    +0.000 NA
ATOM     25  C   UNL     1       1.255  13.817  19.979  0.00  0.00    +0.000 A 
ATOM     26  N   UNL     1       1.290  12.501  19.718  0.00  0.00    +0.000 NA
ATOM     27  C   UNL     1       0.606  11.739  20.613  0.00  0.00    +0.000 A 
ENDBRANCH  16  19
ENDBRANCH   6  15
BRANCH   1  29
ATOM     28  C   UNL     1       1.474   4.078  20.893  0.00  0.00    +0.000 C 
ATOM     29  O   UNL     1       1.643   5.493  20.764  0.00  0.00    +0.000 OA
ENDBRANCH   1  29
TORSDOF 7
ENDMDL
MODEL 8
REMARK VINA RESULT:      -6.7      3.700      9.432
REMARK  Name = 
REMARK  8 active torsions:
REMARK  status: ('A' for Active; 'I' for Inactive)
REMARK    1  A    between atoms: C_1  and  O_2
REMARK    2  A    between atoms: O_2  and  C_3
REMARK    3  A    between atoms: C_5  and  C_6
REMARK    4  A    between atoms: N_8  and  C_9
REMARK    5  A    between atoms: C_9  and  C_10
REMARK    6  A    between atoms: C_10  and  O_11
REMARK    7  A    between atoms: C_14  and  N_15
REMARK    8  A    between atoms: C_16  and  C_18
REMARK                            x       y       z     vdW  Elec       q    Type
REMARK                         _______ _______ _______ _____ _____    ______ ____
ROOT
ATOM      1  C   UNL     1       0.964   9.704  19.544  0.00  0.00    +0.000 A 
ATOM      2  C   UNL     1       0.148  10.663  20.185  0.00  0.00    +0.000 A 
ATOM      3  C   UNL     1      -0.155  10.572  21.552  0.00  0.00    +0.000 A 
ATOM      4  C   UNL     1       0.337   9.490  22.273  0.00  0.00    +0.000 A 
ATOM      5  C   UNL     1       1.111   8.518  21.632  0.00  0.00    +0.000 A 
ATOM      6  C   UNL     1       1.417   8.581  20.265  0.00  0.00    +0.000 A 
ENDROOT
BRANCH   3   7
ATOM      7  C   UNL     1      -0.972  11.659  22.173  0.00  0.00    +0.000 C 
ATOM      8  O   UNL     1      -0.768  11.991  23.337  0.00  0.00    +0.000 OA
ATOM      9  N   UNL     1      -1.955  12.244  21.405  0.00  0.00    +0.000 N 
ATOM     10  H   UNL     1      -2.137  11.943  20.460  0.00  0.00    +0.000 HD
BRANCH   9  11
ATOM     11  C   UNL     1      -2.853  13.251  21.951  0.00  0.00    +0.000 C 
BRANCH  11  12
ATOM     12  C   UNL     1      -4.136  12.637  22.500  0.00  0.00    +0.000 C 
BRANCH  12  13
ATOM     13  O   UNL     1      -3.890  12.058  23.781  0.00  0.00    +0.000 OA
ATOM     14  H   UNL     1      -2.984  11.701  23.741  0.00  0.00    +0.000 HD
ENDBRANCH  12  13
ENDBRANCH  11  12
ENDBRANCH   9  11
ENDBRANCH   3   7
BRANCH   6  15
ATOM     15  N   UNL     1       2.196   7.565  19.643  0.00  0.00    +0.000 N 
ATOM     16  C   UNL     1       2.140   6.217  19.981  0.00  0.00    +0.000 C 
ATOM     17  O   UNL     1       1.299   5.742  20.743  0.00  0.00    +0.000 OA
ATOM     18  H   UNL     1       2.762   7.839  18.841  0.00  0.00    +0.000 HD
BRANCH  16  19
ATOM     19  C   UNL     1       3.115   5.304  19.377  0.00  0.00    +0.000 A 
ATOM     20  C   UNL     1       3.297   4.043  19.932  0.00  0.00    +0.000 A 
ATOM     21  S   UNL     1       4.426   3.084  19.100  0.00  0.00    +0.000 S 
ATOM     22  C   UNL     1       4.757   4.349  17.998  0.00  0.00    +0.000 A 
ATOM     23  C   UNL     1       5.648   4.354  16.937  0.00  0.00    +0.000 A 
ATOM     24  N   UNL     1       5.798   5.478  16.213  0.00  0.00    +0.000 NA
ATOM     25  C   UNL     1       5.053   6.541  16.552  0.00  0.00    +0.000 A 
ATOM     26  N   UNL     1       4.135   6.628  17.528  0.00  0.00    +0.000 NA
ATOM     27  C   UNL     1       4.002   5.493  18.266  0.00  0.00    +0.000 A 
ENDBRANCH  16  19
ENDBRANCH   6  15
BRANCH   1  29
ATOM     28  C   UNL     1       2.147  10.895  17.869  0.00  0.00    +0.000 C 
ATOM     29  O   UNL     1       1.296   9.794  18.209  0.00  0.00    +0.000 OA
ENDBRANCH   1  29
TORSDOF 7
ENDMDL
MODEL 9
REMARK VINA RESULT:      -6.6      2.083      2.531
REMARK  Name = 
REMARK  8 active torsions:
REMARK  status: ('A' for Active; 'I' for Inactive)
REMARK    1  A    between atoms: C_1  and  O_2
REMARK    2  A    between atoms: O_2  and  C_3
REMARK    3  A    between atoms: C_5  and  C_6
REMARK    4  A    between atoms: N_8  and  C_9
REMARK    5  A    between atoms: C_9  and  C_10
REMARK    6  A    between atoms: C_10  and  O_11
REMARK    7  A    between atoms: C_14  and  N_15
REMARK    8  A    between atoms: C_16  and  C_18
REMARK                            x       y       z     vdW  Elec       q    Type
REMARK                         _______ _______ _______ _____ _____    ______ ____
ROOT
ATOM      1  C   UNL     1       2.689   6.225  19.575  0.00  0.00    +0.000 A 
ATOM      2  C   UNL     1       3.615   5.370  18.937  0.00  0.00    +0.000 A 
ATOM      3  C   UNL     1       4.346   5.788  17.814  0.00  0.00    +0.000 A 
ATOM      4  C   UNL     1       4.121   7.063  17.310  0.00  0.00    +0.000 A 
ATOM      5  C   UNL     1       3.174   7.896  17.915  0.00  0.00    +0.000 A 
ATOM      6  C   UNL     1       2.423   7.496  19.029  0.00  0.00    +0.000 A 
ENDROOT
BRANCH   3   7
ATOM      7  C   UNL     1       5.354   4.850  17.233  0.00  0.00    +0.000 C 
ATOM      8  O   UNL     1       6.261   4.412  17.934  0.00  0.00    +0.000 OA
ATOM      9  N   UNL     1       5.234   4.524  15.899  0.00  0.00    +0.000 N 
ATOM     10  H   UNL     1       4.505   4.913  15.323  0.00  0.00    +0.000 HD
BRANCH   9  11
ATOM     11  C   UNL     1       6.215   3.684  15.228  0.00  0.00    +0.000 C 
BRANCH  11  12
ATOM     12  C   UNL     1       6.484   4.148  13.799  0.00  0.00    +0.000 C 
BRANCH  12  13
ATOM     13  O   UNL     1       6.238   3.080  12.885  0.00  0.00    +0.000 OA
ATOM     14  H   UNL     1       5.282   2.900  12.939  0.00  0.00    +0.000 HD
ENDBRANCH  12  13
ENDBRANCH  11  12
ENDBRANCH   9  11
ENDBRANCH   3   7
BRANCH   6  15
ATOM     15  N   UNL     1       1.459   8.367  19.611  0.00  0.00    +0.000 N 
ATOM     16  C   UNL     1       1.073   9.587  19.064  0.00  0.00    +0.000 C 
ATOM     17  O   UNL     1       1.408   9.965  17.943  0.00  0.00    +0.000 OA
ATOM     18  H   UNL     1       0.961   8.026  20.433  0.00  0.00    +0.000 HD
BRANCH  16  19
ATOM     19  C   UNL     1       0.194  10.457  19.850  0.00  0.00    +0.000 A 
ATOM     20  C   UNL     1       0.574  10.818  21.137  0.00  0.00    +0.000 A 
ATOM     21  S   UNL     1      -0.522  11.863  21.908  0.00  0.00    +0.000 S 
ATOM     22  C   UNL     1      -1.578  11.821  20.564  0.00  0.00    +0.000 A 
ATOM     23  C   UNL     1      -2.798  12.460  20.408  0.00  0.00    +0.000 A 
ATOM     24  N   UNL     1      -3.505  12.256  19.282  0.00  0.00    +0.000 NA
ATOM     25  C   UNL     1      -2.974  11.448  18.352  0.00  0.00    +0.000 A 
ATOM     26  N   UNL     1      -1.788  10.819  18.384  0.00  0.00    +0.000 NA
ATOM     27  C   UNL     1      -1.088  11.017  19.533  0.00  0.00    +0.000 A 
ENDBRANCH  16  19
ENDBRANCH   6  15
BRANCH   1  29
ATOM     28  C   UNL     1       1.289   4.594  20.578  0.00  0.00    +0.000 C 
ATOM     29  O   UNL     1       1.983   5.840  20.696  0.00  0.00    +0.000 OA
ENDBRANCH   1  29
TORSDOF 7
ENDMDL
