MODEL 1
REMARK VINA RESULT:      -7.4      0.000      0.000
REMARK  Name = 
REMARK  10 active torsions:
REMARK  status: ('A' for Active; 'I' for Inactive)
REMARK    1  A    between atoms: C_1  and  C_2
REMARK    2  A    between atoms: C_2  and  C_10
REMARK    3  A    between atoms: C_3  and  C_4
REMARK    4  A    between atoms: N_15  and  C_16
REMARK    5  A    between atoms: C_16  and  C_17
REMARK    6  A    between atoms: C_17  and  C_18
REMARK    7  A    between atoms: C_18  and  C_19
REMARK    8  A    between atoms: N_21  and  C_22
REMARK    9  A    between atoms: C_25  and  S_26
REMARK   10  A    between atoms: S_26  and  N_27
REMARK                            x       y       z     vdW  Elec       q    Type
REMARK                         _______ _______ _______ _____ _____    ______ ____
ROOT
ATOM      1  C   UNL     1       5.973   4.549  17.761  0.00  0.00    +0.000 C 
ENDROOT
BRANCH   1   7
ATOM      2  C   UNL     1       8.876   8.313  19.074  0.00  0.00    +0.000 C 
ATOM      3  C   UNL     1       7.930   7.675  18.362  0.00  0.00    +0.000 C 
ATOM      4  S   UNL     1       6.835   8.379  17.232  0.00  0.00    +0.000 S 
ATOM      5  C   UNL     1       5.922   6.898  17.065  0.00  0.00    +0.000 C 
ATOM      6  O   UNL     1       4.882   6.831  16.431  0.00  0.00    +0.000 OA
ATOM      7  N   UNL     1       6.524   5.888  17.766  0.00  0.00    +0.000 N 
ATOM      8  C   UNL     1       7.648   6.219  18.500  0.00  0.00    +0.000 C 
ATOM      9  O   UNL     1       8.309   5.458  19.190  0.00  0.00    +0.000 OA
BRANCH   2  11
ATOM     10  C   UNL     1       9.138  10.396  20.458  0.00  0.00    +0.000 C 
ATOM     11  C   UNL     1       9.104   9.757  19.098  0.00  0.00    +0.000 C 
ATOM     12  C   UNL     1       9.246  10.423  17.935  0.00  0.00    +0.000 C 
BRANCH  12  13
ATOM     13  C   UNL     1       9.515  11.855  17.794  0.00  0.00    +0.000 A 
ATOM     14  C   UNL     1       8.479  12.783  17.945  0.00  0.00    +0.000 A 
ATOM     15  C   UNL     1       8.749  14.151  17.884  0.00  0.00    +0.000 A 
ATOM     16  C   UNL     1      10.055  14.597  17.679  0.00  0.00    +0.000 A 
ATOM     17  C   UNL     1      11.087  13.674  17.505  0.00  0.00    +0.000 A 
ATOM     18  C   UNL     1      10.817  12.305  17.553  0.00  0.00    +0.000 A 
ENDBRANCH  12  13
ENDBRANCH   2  11
ENDBRANCH   1   7
BRANCH   1  19
ATOM     19  C   UNL     1       5.060   4.257  18.942  0.00  0.00    +0.000 C 
BRANCH  19  20
ATOM     20  C   UNL     1       3.635   3.781  18.612  0.00  0.00    +0.000 C 
BRANCH  20  21
ATOM     21  C   UNL     1       2.759   5.014  18.481  0.00  0.00    +0.000 C 
ATOM     22  O   UNL     1       1.780   4.993  17.738  0.00  0.00    +0.000 OA
ATOM     23  N   UNL     1       3.163   6.107  19.228  0.00  0.00    +0.000 N 
ATOM     24  H   UNL     1       4.097   6.101  19.623  0.00  0.00    +0.000 HD
BRANCH  23  25
ATOM     25  C   UNL     1       2.428   7.317  19.301  0.00  0.00    +0.000 A 
ATOM     26  C   UNL     1       1.719   7.674  20.457  0.00  0.00    +0.000 A 
ATOM     27  C   UNL     1       0.955   8.834  20.514  0.00  0.00    +0.000 A 
ATOM     28  C   UNL     1       0.917   9.672  19.409  0.00  0.00    +0.000 A 
ATOM     29  C   UNL     1       1.633   9.357  18.249  0.00  0.00    +0.000 A 
ATOM     30  C   UNL     1       2.400   8.181  18.202  0.00  0.00    +0.000 A 
BRANCH  28  31
ATOM     31  S   UNL     1      -0.066  11.130  19.510  0.00  0.00    +0.000 S 
ATOM     32  O   UNL     1      -1.436  10.809  19.160  0.00  0.00    +0.000 OA
ATOM     33  O   UNL     1       0.275  11.871  20.702  0.00  0.00    +0.000 OA
BRANCH  31  34
ATOM     34  N   UNL     1       0.544  12.017  18.220  0.00  0.00    +0.000 NA
ATOM     35  H   UNL     1       1.034  11.400  17.574  0.00  0.00    +0.000 HD
ATOM     36  H   UNL     1      -0.196  12.575  17.797  0.00  0.00    +0.000 HD
ENDBRANCH  31  34
ENDBRANCH  28  31
ENDBRANCH  23  25
ENDBRANCH  20  21
ENDBRANCH  19  20
ENDBRANCH   1  19
TORSDOF 9
ENDMDL
MODEL 2
REMARK VINA RESULT:      -7.0      4.693      5.914
REMARK  Name = 
REMARK  10 active torsions:
REMARK  status: ('A' for Active; 'I' for Inactive)
REMARK    1  A    between atoms: C_1  and  C_2
REMARK    2  A    between atoms: C_2  and  C_10
REMARK    3  A    between atoms: C_3  and  C_4
REMARK    4  A    between atoms: N_15  and  C_16
REMARK    5  A    between atoms: C_16  and  C_17
REMARK    6  A    between atoms: C_17  and  C_18
REMARK    7  A    between atoms: C_18  and  C_19
REMARK    8  A    between atoms: N_21  and  C_22
REMARK    9  A    between atoms: C_25  and  S_26
REMARK   10  A    between atoms: S_26  and  N_27
REMARK                            x       y       z     vdW  Elec       q    Type
REMARK                         _______ _______ _______ _____ _____    ______ ____
ROOT
ATOM      1  C   UNL     1       2.043   2.216  20.666  0.00  0.00    +0.000 C 
ENDROOT
BRANCH   1   7
ATOM      2  C   UNL     1       5.670   3.704  17.674  0.00  0.00    +0.000 C 
ATOM      3  C   UNL     1       4.425   3.317  18.005  0.00  0.00    +0.000 C 
ATOM      4  S   UNL     1       3.020   3.388  17.010  0.00  0.00    +0.000 S 
ATOM      5  C   UNL     1       1.960   2.943  18.327  0.00  0.00    +0.000 C 
ATOM      6  O   UNL     1       0.745   2.948  18.227  0.00  0.00    +0.000 OA
ATOM      7  N   UNL     1       2.693   2.643  19.443  0.00  0.00    +0.000 N 
ATOM      8  C   UNL     1       4.063   2.804  19.356  0.00  0.00    +0.000 C 
ATOM      9  O   UNL     1       4.873   2.595  20.247  0.00  0.00    +0.000 OA
BRANCH   2  11
ATOM     10  C   UNL     1       6.184   5.849  16.467  0.00  0.00    +0.000 C 
ATOM     11  C   UNL     1       6.062   4.352  16.424  0.00  0.00    +0.000 C 
ATOM     12  C   UNL     1       6.268   3.599  15.325  0.00  0.00    +0.000 C 
BRANCH  12  13
ATOM     13  C   UNL     1       6.699   4.091  14.016  0.00  0.00    +0.000 A 
ATOM     14  C   UNL     1       6.225   3.486  12.847  0.00  0.00    +0.000 A 
ATOM     15  C   UNL     1       6.576   4.001  11.598  0.00  0.00    +0.000 A 
ATOM     16  C   UNL     1       7.395   5.127  11.513  0.00  0.00    +0.000 A 
ATOM     17  C   UNL     1       7.888   5.720  12.675  0.00  0.00    +0.000 A 
ATOM     18  C   UNL     1       7.548   5.198  13.925  0.00  0.00    +0.000 A 
ENDBRANCH  12  13
ENDBRANCH   2  11
ENDBRANCH   1   7
BRANCH   1  19
ATOM     19  C   UNL     1       1.576   3.365  21.546  0.00  0.00    +0.000 C 
BRANCH  19  20
ATOM     20  C   UNL     1       2.427   4.646  21.518  0.00  0.00    +0.000 C 
BRANCH  20  21
ATOM     21  C   UNL     1       1.611   5.724  20.828  0.00  0.00    +0.000 C 
ATOM     22  O   UNL     1       0.622   5.413  20.167  0.00  0.00    +0.000 OA
ATOM     23  N   UNL     1       2.078   7.015  20.996  0.00  0.00    +0.000 N 
ATOM     24  H   UNL     1       3.015   7.145  21.359  0.00  0.00    +0.000 HD
BRANCH  23  25
ATOM     25  C   UNL     1       1.403   8.159  20.499  0.00  0.00    +0.000 A 
ATOM     26  C   UNL     1       0.496   8.876  21.292  0.00  0.00    +0.000 A 
ATOM     27  C   UNL     1      -0.205   9.967  20.791  0.00  0.00    +0.000 A 
ATOM     28  C   UNL     1       0.019  10.372  19.484  0.00  0.00    +0.000 A 
ATOM     29  C   UNL     1       0.937   9.693  18.674  0.00  0.00    +0.000 A 
ATOM     30  C   UNL     1       1.638   8.591  19.189  0.00  0.00    +0.000 A 
BRANCH  28  31
ATOM     31  S   UNL     1      -0.890  11.753  18.877  0.00  0.00    +0.000 S 
ATOM     32  O   UNL     1      -1.784  11.311  17.824  0.00  0.00    +0.000 OA
ATOM     33  O   UNL     1      -1.338  12.570  19.980  0.00  0.00    +0.000 OA
BRANCH  31  34
ATOM     34  N   UNL     1       0.326  12.626  18.114  0.00  0.00    +0.000 NA
ATOM     35  H   UNL     1       0.442  12.299  17.156  0.00  0.00    +0.000 HD
ATOM     36  H   UNL     1       0.149  13.625  18.204  0.00  0.00    +0.000 HD
ENDBRANCH  31  34
ENDBRANCH  28  31
ENDBRANCH  23  25
ENDBRANCH  20  21
ENDBRANCH  19  20
ENDBRANCH   1  19
TORSDOF 9
ENDMDL
MODEL 3
REMARK VINA RESULT:      -6.8      3.665      8.259
REMARK  Name = 
REMARK  10 active torsions:
REMARK  status: ('A' for Active; 'I' for Inactive)
REMARK    1  A    between atoms: C_1  and  C_2
REMARK    2  A    between atoms: C_2  and  C_10
REMARK    3  A    between atoms: C_3  and  C_4
REMARK    4  A    between atoms: N_15  and  C_16
REMARK    5  A    between atoms: C_16  and  C_17
REMARK    6  A    between atoms: C_17  and  C_18
REMARK    7  A    between atoms: C_18  and  C_19
REMARK    8  A    between atoms: N_21  and  C_22
REMARK    9  A    between atoms: C_25  and  S_26
REMARK   10  A    between atoms: S_26  and  N_27
REMARK                            x       y       z     vdW  Elec       q    Type
REMARK                         _______ _______ _______ _____ _____    ______ ____
ROOT
ATOM      1  C   UNL     1       5.065   5.264  17.659  0.00  0.00    +0.000 C 
ENDROOT
BRANCH   1   7
ATOM      2  C   UNL     1       1.852   8.984  18.043  0.00  0.00    +0.000 C 
ATOM      3  C   UNL     1       2.401   7.793  18.340  0.00  0.00    +0.000 C 
ATOM      4  S   UNL     1       2.027   6.791  19.692  0.00  0.00    +0.000 S 
ATOM      5  C   UNL     1       3.346   5.695  19.351  0.00  0.00    +0.000 C 
ATOM      6  O   UNL     1       3.660   4.786  20.102  0.00  0.00    +0.000 OA
ATOM      7  N   UNL     1       3.957   6.039  18.176  0.00  0.00    +0.000 N 
ATOM      8  C   UNL     1       3.493   7.175  17.538  0.00  0.00    +0.000 C 
ATOM      9  O   UNL     1       3.919   7.640  16.492  0.00  0.00    +0.000 OA
BRANCH   2  11
ATOM     10  C   UNL     1      -0.422  10.044  18.206  0.00  0.00    +0.000 C 
ATOM     11  C   UNL     1       0.888   9.714  18.865  0.00  0.00    +0.000 C 
ATOM     12  C   UNL     1       1.220  10.059  20.124  0.00  0.00    +0.000 C 
BRANCH  12  13
ATOM     13  C   UNL     1       0.356  10.753  21.080  0.00  0.00    +0.000 A 
ATOM     14  C   UNL     1      -0.301  10.034  22.085  0.00  0.00    +0.000 A 
ATOM     15  C   UNL     1      -1.065  10.704  23.041  0.00  0.00    +0.000 A 
ATOM     16  C   UNL     1      -1.171  12.095  23.002  0.00  0.00    +0.000 A 
ATOM     17  C   UNL     1      -0.536  12.813  21.988  0.00  0.00    +0.000 A 
ATOM     18  C   UNL     1       0.219  12.144  21.023  0.00  0.00    +0.000 A 
ENDBRANCH  12  13
ENDBRANCH   2  11
ENDBRANCH   1   7
BRANCH   1  19
ATOM     19  C   UNL     1       6.428   5.756  18.123  0.00  0.00    +0.000 C 
BRANCH  19  20
ATOM     20  C   UNL     1       7.223   6.623  17.132  0.00  0.00    +0.000 C 
BRANCH  20  21
ATOM     21  C   UNL     1       7.898   7.726  17.927  0.00  0.00    +0.000 C 
ATOM     22  O   UNL     1       8.541   7.446  18.936  0.00  0.00    +0.000 OA
ATOM     23  N   UNL     1       7.710   9.006  17.437  0.00  0.00    +0.000 N 
ATOM     24  H   UNL     1       6.985   9.155  16.744  0.00  0.00    +0.000 HD
BRANCH  23  25
ATOM     25  C   UNL     1       8.330  10.153  17.994  0.00  0.00    +0.000 A 
ATOM     26  C   UNL     1       8.136  11.429  17.445  0.00  0.00    +0.000 A 
ATOM     27  C   UNL     1       8.784  12.548  17.957  0.00  0.00    +0.000 A 
ATOM     28  C   UNL     1       9.619  12.402  19.055  0.00  0.00    +0.000 A 
ATOM     29  C   UNL     1       9.813  11.145  19.641  0.00  0.00    +0.000 A 
ATOM     30  C   UNL     1       9.156  10.022  19.114  0.00  0.00    +0.000 A 
BRANCH  28  31
ATOM     31  S   UNL     1      10.429  13.837  19.676  0.00  0.00    +0.000 S 
ATOM     32  O   UNL     1      10.776  13.626  21.068  0.00  0.00    +0.000 OA
ATOM     33  O   UNL     1      11.383  14.321  18.705  0.00  0.00    +0.000 OA
BRANCH  31  34
ATOM     34  N   UNL     1       9.164  14.943  19.677  0.00  0.00    +0.000 NA
ATOM     35  H   UNL     1       8.589  14.817  18.846  0.00  0.00    +0.000 HD
ATOM     36  H   UNL     1       8.655  14.892  20.558  0.00  0.00    +0.000 HD
ENDBRANCH  31  34
ENDBRANCH  28  31
ENDBRANCH  23  25
ENDBRANCH  20  21
ENDBRANCH  19  20
ENDBRANCH   1  19
TORSDOF 9
ENDMDL
MODEL 4
REMARK VINA RESULT:      -6.7      3.678      6.911
REMARK  Name = 
REMARK  10 active torsions:
REMARK  status: ('A' for Active; 'I' for Inactive)
REMARK    1  A    between atoms: C_1  and  C_2
REMARK    2  A    between atoms: C_2  and  C_10
REMARK    3  A    between atoms: C_3  and  C_4
REMARK    4  A    between atoms: N_15  and  C_16
REMARK    5  A    between atoms: C_16  and  C_17
REMARK    6  A    between atoms: C_17  and  C_18
REMARK    7  A    between atoms: C_18  and  C_19
REMARK    8  A    between atoms: N_21  and  C_22
REMARK    9  A    between atoms: C_25  and  S_26
REMARK   10  A    between atoms: S_26  and  N_27
REMARK                            x       y       z     vdW  Elec       q    Type
REMARK                         _______ _______ _______ _____ _____    ______ ____
ROOT
ATOM      1  C   UNL     1      -0.747  11.043  19.731  0.00  0.00    +0.000 C 
ENDROOT
BRANCH   1   7
ATOM      2  C   UNL     1       2.488  14.752  19.419  0.00  0.00    +0.000 C 
ATOM      3  C   UNL     1       2.036  13.494  19.271  0.00  0.00    +0.000 C 
ATOM      4  S   UNL     1       2.781  12.226  18.372  0.00  0.00    +0.000 S 
ATOM      5  C   UNL     1       1.405  11.165  18.565  0.00  0.00    +0.000 C 
ATOM      6  O   UNL     1       1.316  10.089  17.998  0.00  0.00    +0.000 OA
ATOM      7  N   UNL     1       0.476  11.740  19.390  0.00  0.00    +0.000 N 
ATOM      8  C   UNL     1       0.745  13.019  19.842  0.00  0.00    +0.000 C 
ATOM      9  O   UNL     1       0.033  13.690  20.573  0.00  0.00    +0.000 OA
BRANCH   2  11
ATOM     10  C   UNL     1       3.426  15.971  17.429  0.00  0.00    +0.000 C 
ATOM     11  C   UNL     1       3.664  15.323  18.765  0.00  0.00    +0.000 C 
ATOM     12  C   UNL     1       4.867  15.225  19.364  0.00  0.00    +0.000 C 
BRANCH  12  13
ATOM     13  C   UNL     1       6.125  15.775  18.859  0.00  0.00    +0.000 A 
ATOM     14  C   UNL     1       6.494  17.088  19.172  0.00  0.00    +0.000 A 
ATOM     15  C   UNL     1       7.728  17.589  18.752  0.00  0.00    +0.000 A 
ATOM     16  C   UNL     1       8.600  16.778  18.026  0.00  0.00    +0.000 A 
ATOM     17  C   UNL     1       8.226  15.476  17.693  0.00  0.00    +0.000 A 
ATOM     18  C   UNL     1       6.987  14.977  18.100  0.00  0.00    +0.000 A 
ENDBRANCH  12  13
ENDBRANCH   2  11
ENDBRANCH   1   7
BRANCH   1  19
ATOM     19  C   UNL     1      -0.851  10.669  21.202  0.00  0.00    +0.000 C 
BRANCH  19  20
ATOM     20  C   UNL     1       0.386  10.009  21.835  0.00  0.00    +0.000 C 
BRANCH  20  21
ATOM     21  C   UNL     1       0.459   8.583  21.317  0.00  0.00    +0.000 C 
ATOM     22  O   UNL     1      -0.511   7.837  21.440  0.00  0.00    +0.000 OA
ATOM     23  N   UNL     1       1.665   8.227  20.740  0.00  0.00    +0.000 N 
ATOM     24  H   UNL     1       2.467   8.828  20.891  0.00  0.00    +0.000 HD
BRANCH  23  25
ATOM     25  C   UNL     1       1.895   6.969  20.126  0.00  0.00    +0.000 A 
ATOM     26  C   UNL     1       1.626   5.767  20.797  0.00  0.00    +0.000 A 
ATOM     27  C   UNL     1       1.898   4.533  20.216  0.00  0.00    +0.000 A 
ATOM     28  C   UNL     1       2.421   4.492  18.933  0.00  0.00    +0.000 A 
ATOM     29  C   UNL     1       2.677   5.673  18.227  0.00  0.00    +0.000 A 
ATOM     30  C   UNL     1       2.401   6.914  18.824  0.00  0.00    +0.000 A 
BRANCH  28  31
ATOM     31  S   UNL     1       2.762   2.913  18.228  0.00  0.00    +0.000 S 
ATOM     32  O   UNL     1       2.323   1.877  19.143  0.00  0.00    +0.000 OA
ATOM     33  O   UNL     1       2.405   2.912  16.829  0.00  0.00    +0.000 OA
BRANCH  31  34
ATOM     34  N   UNL     1       4.441   2.895  18.281  0.00  0.00    +0.000 NA
ATOM     35  H   UNL     1       4.795   3.837  18.440  0.00  0.00    +0.000 HD
ATOM     36  H   UNL     1       4.763   2.201  18.954  0.00  0.00    +0.000 HD
ENDBRANCH  31  34
ENDBRANCH  28  31
ENDBRANCH  23  25
ENDBRANCH  20  21
ENDBRANCH  19  20
ENDBRANCH   1  19
TORSDOF 9
ENDMDL
MODEL 5
REMARK VINA RESULT:      -6.7      4.667      6.876
REMARK  Name = 
REMARK  10 active torsions:
REMARK  status: ('A' for Active; 'I' for Inactive)
REMARK    1  A    between atoms: C_1  and  C_2
REMARK    2  A    between atoms: C_2  and  C_10
REMARK    3  A    between atoms: C_3  and  C_4
REMARK    4  A    between atoms: N_15  and  C_16
REMARK    5  A    between atoms: C_16  and  C_17
REMARK    6  A    between atoms: C_17  and  C_18
REMARK    7  A    between atoms: C_18  and  C_19
REMARK    8  A    between atoms: N_21  and  C_22
REMARK    9  A    between atoms: C_25  and  S_26
REMARK   10  A    between atoms: S_26  and  N_27
REMARK                            x       y       z     vdW  Elec       q    Type
REMARK                         _______ _______ _______ _____ _____    ______ ____
ROOT
ATOM      1  C   UNL     1       1.544   6.686  20.912  0.00  0.00    +0.000 C 
ENDROOT
BRANCH   1   7
ATOM      2  C   UNL     1       4.735   4.378  17.945  0.00  0.00    +0.000 C 
ATOM      3  C   UNL     1       3.844   5.319  18.304  0.00  0.00    +0.000 C 
ATOM      4  S   UNL     1       3.481   6.776  17.457  0.00  0.00    +0.000 S 
ATOM      5  C   UNL     1       2.480   7.382  18.757  0.00  0.00    +0.000 C 
ATOM      6  O   UNL     1       2.014   8.509  18.761  0.00  0.00    +0.000 OA
ATOM      7  N   UNL     1       2.351   6.435  19.737  0.00  0.00    +0.000 N 
ATOM      8  C   UNL     1       3.056   5.257  19.566  0.00  0.00    +0.000 C 
ATOM      9  O   UNL     1       3.071   4.308  20.334  0.00  0.00    +0.000 OA
BRANCH   2  11
ATOM     10  C   UNL     1       7.095   4.670  17.129  0.00  0.00    +0.000 C 
ATOM     11  C   UNL     1       5.645   4.450  16.803  0.00  0.00    +0.000 C 
ATOM     12  C   UNL     1       5.149   4.339  15.554  0.00  0.00    +0.000 C 
BRANCH  12  13
ATOM     13  C   UNL     1       5.930   4.352  14.317  0.00  0.00    +0.000 A 
ATOM     14  C   UNL     1       7.070   5.156  14.214  0.00  0.00    +0.000 A 
ATOM     15  C   UNL     1       7.857   5.113  13.061  0.00  0.00    +0.000 A 
ATOM     16  C   UNL     1       7.511   4.262  12.012  0.00  0.00    +0.000 A 
ATOM     17  C   UNL     1       6.362   3.476  12.101  0.00  0.00    +0.000 A 
ATOM     18  C   UNL     1       5.567   3.527  13.248  0.00  0.00    +0.000 A 
ENDBRANCH  12  13
ENDBRANCH   2  11
ENDBRANCH   1   7
BRANCH   1  19
ATOM     19  C   UNL     1       1.452   8.157  21.291  0.00  0.00    +0.000 C 
BRANCH  19  20
ATOM     20  C   UNL     1       0.041   8.727  21.507  0.00  0.00    +0.000 C 
BRANCH  20  21
ATOM     21  C   UNL     1       0.143  10.241  21.439  0.00  0.00    +0.000 C 
ATOM     22  O   UNL     1       0.192  10.897  22.478  0.00  0.00    +0.000 OA
ATOM     23  N   UNL     1       0.157  10.774  20.163  0.00  0.00    +0.000 N 
ATOM     24  H   UNL     1      -0.117  10.179  19.389  0.00  0.00    +0.000 HD
BRANCH  23  25
ATOM     25  C   UNL     1       0.331  12.156  19.897  0.00  0.00    +0.000 A 
ATOM     26  C   UNL     1      -0.765  13.015  19.738  0.00  0.00    +0.000 A 
ATOM     27  C   UNL     1      -0.597  14.360  19.426  0.00  0.00    +0.000 A 
ATOM     28  C   UNL     1       0.686  14.868  19.297  0.00  0.00    +0.000 A 
ATOM     29  C   UNL     1       1.803  14.042  19.475  0.00  0.00    +0.000 A 
ATOM     30  C   UNL     1       1.621  12.685  19.788  0.00  0.00    +0.000 A 
BRANCH  28  31
ATOM     31  S   UNL     1       0.865  16.574  18.895  0.00  0.00    +0.000 S 
ATOM     32  O   UNL     1      -0.177  16.957  17.962  0.00  0.00    +0.000 OA
ATOM     33  O   UNL     1       1.152  17.333  20.089  0.00  0.00    +0.000 OA
BRANCH  31  34
ATOM     34  N   UNL     1       2.291  16.545  18.007  0.00  0.00    +0.000 NA
ATOM     35  H   UNL     1       2.882  15.776  18.320  0.00  0.00    +0.000 HD
ATOM     36  H   UNL     1       2.083  16.543  17.010  0.00  0.00    +0.000 HD
ENDBRANCH  31  34
ENDBRANCH  28  31
ENDBRANCH  23  25
ENDBRANCH  20  21
ENDBRANCH  19  20
ENDBRANCH   1  19
TORSDOF 9
ENDMDL
MODEL 6
REMARK VINA RESULT:      -6.7      3.512      7.251
REMARK  Name = 
REMARK  10 active torsions:
REMARK  status: ('A' for Active; 'I' for Inactive)
REMARK    1  A    between atoms: C_1  and  C_2
REMARK    2  A    between atoms: C_2  and  C_10
REMARK    3  A    between atoms: C_3  and  C_4
REMARK    4  A    between atoms: N_15  and  C_16
REMARK    5  A    between atoms: C_16  and  C_17
REMARK    6  A    between atoms: C_17  and  C_18
REMARK    7  A    between atoms: C_18  and  C_19
REMARK    8  A    between atoms: N_21  and  C_22
REMARK    9  A    between atoms: C_25  and  S_26
REMARK   10  A    between atoms: S_26  and  N_27
REMARK                            x       y       z     vdW  Elec       q    Type
REMARK                         _______ _______ _______ _____ _____    ______ ____
ROOT
ATOM      1  C   UNL     1       1.597  15.415  20.298  0.00  0.00    +0.000 C 
ENDROOT
BRANCH   1   7
ATOM      2  C   UNL     1       6.031  17.094  18.942  0.00  0.00    +0.000 C 
ATOM      3  C   UNL     1       5.153  16.366  19.655  0.00  0.00    +0.000 C 
ATOM      4  S   UNL     1       5.519  15.089  20.754  0.00  0.00    +0.000 S 
ATOM      5  C   UNL     1       3.836  14.654  20.942  0.00  0.00    +0.000 C 
ATOM      6  O   UNL     1       3.474  13.669  21.564  0.00  0.00    +0.000 OA
ATOM      7  N   UNL     1       3.039  15.543  20.272  0.00  0.00    +0.000 N 
ATOM      8  C   UNL     1       3.677  16.532  19.546  0.00  0.00    +0.000 C 
ATOM      9  O   UNL     1       3.135  17.403  18.882  0.00  0.00    +0.000 OA
BRANCH   2  11
ATOM     10  C   UNL     1       8.294  17.671  19.874  0.00  0.00    +0.000 C 
ATOM     11  C   UNL     1       7.476  16.882  18.890  0.00  0.00    +0.000 C 
ATOM     12  C   UNL     1       7.988  16.033  17.977  0.00  0.00    +0.000 C 
BRANCH  12  13
ATOM     13  C   UNL     1       9.402  15.688  17.823  0.00  0.00    +0.000 A 
ATOM     14  C   UNL     1      10.258  16.534  17.110  0.00  0.00    +0.000 A 
ATOM     15  C   UNL     1      11.621  16.243  17.026  0.00  0.00    +0.000 A 
ATOM     16  C   UNL     1      12.134  15.112  17.660  0.00  0.00    +0.000 A 
ATOM     17  C   UNL     1      11.279  14.254  18.353  0.00  0.00    +0.000 A 
ATOM     18  C   UNL     1       9.914  14.536  18.428  0.00  0.00    +0.000 A 
ENDBRANCH  12  13
ENDBRANCH   2  11
ENDBRANCH   1   7
BRANCH   1  19
ATOM     19  C   UNL     1       1.034  14.585  19.155  0.00  0.00    +0.000 C 
BRANCH  19  20
ATOM     20  C   UNL     1       0.235  13.329  19.542  0.00  0.00    +0.000 C 
BRANCH  20  21
ATOM     21  C   UNL     1       1.076  12.119  19.177  0.00  0.00    +0.000 C 
ATOM     22  O   UNL     1       2.215  12.276  18.739  0.00  0.00    +0.000 OA
ATOM     23  N   UNL     1       0.460  10.894  19.361  0.00  0.00    +0.000 N 
ATOM     24  H   UNL     1      -0.543  10.877  19.505  0.00  0.00    +0.000 HD
BRANCH  23  25
ATOM     25  C   UNL     1       1.115   9.653  19.156  0.00  0.00    +0.000 A 
ATOM     26  C   UNL     1       1.296   8.739  20.204  0.00  0.00    +0.000 A 
ATOM     27  C   UNL     1       1.983   7.544  20.017  0.00  0.00    +0.000 A 
ATOM     28  C   UNL     1       2.475   7.238  18.758  0.00  0.00    +0.000 A 
ATOM     29  C   UNL     1       2.289   8.118  17.685  0.00  0.00    +0.000 A 
ATOM     30  C   UNL     1       1.596   9.323  17.885  0.00  0.00    +0.000 A 
BRANCH  28  31
ATOM     31  S   UNL     1       3.347   5.721  18.556  0.00  0.00    +0.000 S 
ATOM     32  O   UNL     1       4.212   5.817  17.397  0.00  0.00    +0.000 OA
ATOM     33  O   UNL     1       3.818   5.251  19.838  0.00  0.00    +0.000 OA
BRANCH  31  34
ATOM     34  N   UNL     1       2.096   4.690  18.113  0.00  0.00    +0.000 NA
ATOM     35  H   UNL     1       1.338   5.223  17.688  0.00  0.00    +0.000 HD
ATOM     36  H   UNL     1       2.455   3.929  17.539  0.00  0.00    +0.000 HD
ENDBRANCH  31  34
ENDBRANCH  28  31
ENDBRANCH  23  25
ENDBRANCH  20  21
ENDBRANCH  19  20
ENDBRANCH   1  19
TORSDOF 9
ENDMDL
MODEL 7
REMARK VINA RESULT:      -6.6      3.618      8.083
REMARK  Name = 
REMARK  10 active torsions:
REMARK  status: ('A' for Active; 'I' for Inactive)
REMARK    1  A    between atoms: C_1  and  C_2
REMARK    2  A    between atoms: C_2  and  C_10
REMARK    3  A    between atoms: C_3  and  C_4
REMARK    4  A    between atoms: N_15  and  C_16
REMARK    5  A    between atoms: C_16  and  C_17
REMARK    6  A    between atoms: C_17  and  C_18
REMARK    7  A    between atoms: C_18  and  C_19
REMARK    8  A    between atoms: N_21  and  C_22
REMARK    9  A    between atoms: C_25  and  S_26
REMARK   10  A    between atoms: S_26  and  N_27
REMARK                            x       y       z     vdW  Elec       q    Type
REMARK                         _______ _______ _______ _____ _____    ______ ____
ROOT
ATOM      1  C   UNL     1       6.114   4.715  16.877  0.00  0.00    +0.000 C 
ENDROOT
BRANCH   1   7
ATOM      2  C   UNL     1       2.592   7.697  18.615  0.00  0.00    +0.000 C 
ATOM      3  C   UNL     1       3.363   6.596  18.568  0.00  0.00    +0.000 C 
ATOM      4  S   UNL     1       3.486   5.367  19.769  0.00  0.00    +0.000 S 
ATOM      5  C   UNL     1       4.824   4.587  18.956  0.00  0.00    +0.000 C 
ATOM      6  O   UNL     1       5.443   3.658  19.446  0.00  0.00    +0.000 OA
ATOM      7  N   UNL     1       5.068   5.197  17.755  0.00  0.00    +0.000 N 
ATOM      8  C   UNL     1       4.300   6.305  17.447  0.00  0.00    +0.000 C 
ATOM      9  O   UNL     1       4.381   6.979  16.432  0.00  0.00    +0.000 OA
BRANCH   2  11
ATOM     10  C   UNL     1       1.624   7.122  20.864  0.00  0.00    +0.000 C 
ATOM     11  C   UNL     1       1.766   8.117  19.746  0.00  0.00    +0.000 C 
ATOM     12  C   UNL     1       1.176   9.328  19.721  0.00  0.00    +0.000 C 
BRANCH  12  13
ATOM     13  C   UNL     1       0.355   9.906  20.785  0.00  0.00    +0.000 A 
ATOM     14  C   UNL     1       0.061   9.157  21.931  0.00  0.00    +0.000 A 
ATOM     15  C   UNL     1      -0.659   9.733  22.979  0.00  0.00    +0.000 A 
ATOM     16  C   UNL     1      -1.081  11.059  22.890  0.00  0.00    +0.000 A 
ATOM     17  C   UNL     1      -0.810  11.802  21.740  0.00  0.00    +0.000 A 
ATOM     18  C   UNL     1      -0.101  11.224  20.685  0.00  0.00    +0.000 A 
ENDBRANCH  12  13
ENDBRANCH   2  11
ENDBRANCH   1   7
BRANCH   1  19
ATOM     19  C   UNL     1       7.454   5.405  17.083  0.00  0.00    +0.000 C 
BRANCH  19  20
ATOM     20  C   UNL     1       7.648   6.151  18.414  0.00  0.00    +0.000 C 
BRANCH  20  21
ATOM     21  C   UNL     1       7.935   7.605  18.086  0.00  0.00    +0.000 C 
ATOM     22  O   UNL     1       7.565   8.074  17.011  0.00  0.00    +0.000 OA
ATOM     23  N   UNL     1       8.630   8.303  19.057  0.00  0.00    +0.000 N 
ATOM     24  H   UNL     1       9.085   7.778  19.795  0.00  0.00    +0.000 HD
BRANCH  23  25
ATOM     25  C   UNL     1       8.915   9.689  18.968  0.00  0.00    +0.000 A 
ATOM     26  C   UNL     1       8.308  10.501  17.998  0.00  0.00    +0.000 A 
ATOM     27  C   UNL     1       8.625  11.849  17.876  0.00  0.00    +0.000 A 
ATOM     28  C   UNL     1       9.541  12.410  18.752  0.00  0.00    +0.000 A 
ATOM     29  C   UNL     1      10.145  11.633  19.748  0.00  0.00    +0.000 A 
ATOM     30  C   UNL     1       9.820  10.272  19.861  0.00  0.00    +0.000 A 
BRANCH  28  31
ATOM     31  S   UNL     1       9.925  14.119  18.566  0.00  0.00    +0.000 S 
ATOM     32  O   UNL     1       9.109  14.680  17.507  0.00  0.00    +0.000 OA
ATOM     33  O   UNL     1      10.043  14.741  19.864  0.00  0.00    +0.000 OA
BRANCH  31  34
ATOM     34  N   UNL     1      11.485  14.030  17.949  0.00  0.00    +0.000 NA
ATOM     35  H   UNL     1      11.470  14.173  16.940  0.00  0.00    +0.000 HD
ATOM     36  H   UNL     1      12.101  14.662  18.459  0.00  0.00    +0.000 HD
ENDBRANCH  31  34
ENDBRANCH  28  31
ENDBRANCH  23  25
ENDBRANCH  20  21
ENDBRANCH  19  20
ENDBRANCH   1  19
TORSDOF 9
ENDMDL
MODEL 8
REMARK VINA RESULT:      -6.6      4.977     10.586
REMARK  Name = 
REMARK  10 active torsions:
REMARK  status: ('A' for Active; 'I' for Inactive)
REMARK    1  A    between atoms: C_1  and  C_2
REMARK    2  A    between atoms: C_2  and  C_10
REMARK    3  A    between atoms: C_3  and  C_4
REMARK    4  A    between atoms: N_15  and  C_16
REMARK    5  A    between atoms: C_16  and  C_17
REMARK    6  A    between atoms: C_17  and  C_18
REMARK    7  A    between atoms: C_18  and  C_19
REMARK    8  A    between atoms: N_21  and  C_22
REMARK    9  A    between atoms: C_25  and  S_26
REMARK   10  A    between atoms: S_26  and  N_27
REMARK                            x       y       z     vdW  Elec       q    Type
REMARK                         _______ _______ _______ _____ _____    ______ ____
ROOT
ATOM      1  C   UNL     1       1.160   8.560  21.421  0.00  0.00    +0.000 C 
ENDROOT
BRANCH   1   7
ATOM      2  C   UNL     1      -1.883  11.949  23.310  0.00  0.00    +0.000 C 
ATOM      3  C   UNL     1      -1.096  11.380  22.380  0.00  0.00    +0.000 C 
ATOM      4  S   UNL     1      -0.962  11.831  20.722  0.00  0.00    +0.000 S 
ATOM      5  C   UNL     1       0.027  10.442  20.336  0.00  0.00    +0.000 C 
ATOM      6  O   UNL     1       0.351  10.159  19.194  0.00  0.00    +0.000 OA
ATOM      7  N   UNL     1       0.326   9.742  21.473  0.00  0.00    +0.000 N 
ATOM      8  C   UNL     1      -0.237  10.194  22.653  0.00  0.00    +0.000 C 
ATOM      9  O   UNL     1      -0.093   9.695  23.759  0.00  0.00    +0.000 OA
BRANCH   2  11
ATOM     10  C   UNL     1      -2.321  14.417  23.118  0.00  0.00    +0.000 C 
ATOM     11  C   UNL     1      -2.857  13.014  23.075  0.00  0.00    +0.000 C 
ATOM     12  C   UNL     1      -4.148  12.694  22.857  0.00  0.00    +0.000 C 
BRANCH  12  13
ATOM     13  C   UNL     1      -5.229  13.637  22.570  0.00  0.00    +0.000 A 
ATOM     14  C   UNL     1      -5.977  14.188  23.616  0.00  0.00    +0.000 A 
ATOM     15  C   UNL     1      -6.959  15.144  23.348  0.00  0.00    +0.000 A 
ATOM     16  C   UNL     1      -7.192  15.556  22.036  0.00  0.00    +0.000 A 
ATOM     17  C   UNL     1      -6.464  14.992  20.988  0.00  0.00    +0.000 A 
ATOM     18  C   UNL     1      -5.490  14.027  21.253  0.00  0.00    +0.000 A 
ENDBRANCH  12  13
ENDBRANCH   2  11
ENDBRANCH   1   7
BRANCH   1  19
ATOM     19  C   UNL     1       0.610   7.459  20.526  0.00  0.00    +0.000 C 
BRANCH  19  20
ATOM     20  C   UNL     1       0.963   6.013  20.914  0.00  0.00    +0.000 C 
BRANCH  20  21
ATOM     21  C   UNL     1       2.221   5.629  20.157  0.00  0.00    +0.000 C 
ATOM     22  O   UNL     1       3.092   4.965  20.715  0.00  0.00    +0.000 OA
ATOM     23  N   UNL     1       2.290   6.093  18.855  0.00  0.00    +0.000 N 
ATOM     24  H   UNL     1       1.640   6.815  18.565  0.00  0.00    +0.000 HD
BRANCH  23  25
ATOM     25  C   UNL     1       3.346   5.766  17.966  0.00  0.00    +0.000 A 
ATOM     26  C   UNL     1       3.511   4.464  17.473  0.00  0.00    +0.000 A 
ATOM     27  C   UNL     1       4.575   4.130  16.642  0.00  0.00    +0.000 A 
ATOM     28  C   UNL     1       5.477   5.115  16.270  0.00  0.00    +0.000 A 
ATOM     29  C   UNL     1       5.325   6.431  16.725  0.00  0.00    +0.000 A 
ATOM     30  C   UNL     1       4.249   6.756  17.566  0.00  0.00    +0.000 A 
BRANCH  28  31
ATOM     31  S   UNL     1       6.817   4.658  15.223  0.00  0.00    +0.000 S 
ATOM     32  O   UNL     1       6.405   3.559  14.371  0.00  0.00    +0.000 OA
ATOM     33  O   UNL     1       7.461   5.841  14.703  0.00  0.00    +0.000 OA
BRANCH  31  34
ATOM     34  N   UNL     1       7.885   3.999  16.340  0.00  0.00    +0.000 NA
ATOM     35  H   UNL     1       7.721   2.998  16.433  0.00  0.00    +0.000 HD
ATOM     36  H   UNL     1       8.843   4.253  16.102  0.00  0.00    +0.000 HD
ENDBRANCH  31  34
ENDBRANCH  28  31
ENDBRANCH  23  25
ENDBRANCH  20  21
ENDBRANCH  19  20
ENDBRANCH   1  19
TORSDOF 9
ENDMDL
MODEL 9
REMARK VINA RESULT:      -6.6      4.640      8.380
REMARK  Name = 
REMARK  10 active torsions:
REMARK  status: ('A' for Active; 'I' for Inactive)
REMARK    1  A    between atoms: C_1  and  C_2
REMARK    2  A    between atoms: C_2  and  C_10
REMARK    3  A    between atoms: C_3  and  C_4
REMARK    4  A    between atoms: N_15  and  C_16
REMARK    5  A    between atoms: C_16  and  C_17
REMARK    6  A    between atoms: C_17  and  C_18
REMARK    7  A    between atoms: C_18  and  C_19
REMARK    8  A    between atoms: N_21  and  C_22
REMARK    9  A    between atoms: C_25  and  S_26
REMARK   10  A    between atoms: S_26  and  N_27
REMARK                            x       y       z     vdW  Elec       q    Type
REMARK                         _______ _______ _______ _____ _____    ______ ____
ROOT
ATOM      1  C   UNL     1       0.656  10.978  21.323  0.00  0.00    +0.000 C 
ENDROOT
BRANCH   1   7
ATOM      2  C   UNL     1       2.213   6.643  19.563  0.00  0.00    +0.000 C 
ATOM      3  C   UNL     1       1.771   7.912  19.502  0.00  0.00    +0.000 C 
ATOM      4  S   UNL     1       1.715   8.922  18.107  0.00  0.00    +0.000 S 
ATOM      5  C   UNL     1       1.271  10.332  19.041  0.00  0.00    +0.000 C 
ATOM      6  O   UNL     1       1.201  11.449  18.557  0.00  0.00    +0.000 OA
ATOM      7  N   UNL     1       1.064   9.987  20.349  0.00  0.00    +0.000 N 
ATOM      8  C   UNL     1       1.300   8.669  20.695  0.00  0.00    +0.000 C 
ATOM      9  O   UNL     1       1.179   8.183  21.809  0.00  0.00    +0.000 OA
BRANCH   2  11
ATOM     10  C   UNL     1       1.960   4.851  17.817  0.00  0.00    +0.000 C 
ATOM     11  C   UNL     1       2.825   5.895  18.466  0.00  0.00    +0.000 C 
ATOM     12  C   UNL     1       4.100   6.157  18.116  0.00  0.00    +0.000 C 
BRANCH  12  13
ATOM     13  C   UNL     1       4.837   5.525  17.022  0.00  0.00    +0.000 A 
ATOM     14  C   UNL     1       5.219   4.182  17.116  0.00  0.00    +0.000 A 
ATOM     15  C   UNL     1       5.857   3.558  16.042  0.00  0.00    +0.000 A 
ATOM     16  C   UNL     1       6.109   4.270  14.870  0.00  0.00    +0.000 A 
ATOM     17  C   UNL     1       5.750   5.616  14.781  0.00  0.00    +0.000 A 
ATOM     18  C   UNL     1       5.123   6.245  15.858  0.00  0.00    +0.000 A 
ENDBRANCH  12  13
ENDBRANCH   2  11
ENDBRANCH   1   7
BRANCH   1  19
ATOM     19  C   UNL     1      -0.823  11.326  21.263  0.00  0.00    +0.000 C 
BRANCH  19  20
ATOM     20  C   UNL     1      -1.176  12.805  21.033  0.00  0.00    +0.000 C 
BRANCH  20  21
ATOM     21  C   UNL     1       0.049  13.629  21.389  0.00  0.00    +0.000 C 
ATOM     22  O   UNL     1       0.249  13.954  22.557  0.00  0.00    +0.000 OA
ATOM     23  N   UNL     1       0.860  13.970  20.321  0.00  0.00    +0.000 N 
ATOM     24  H   UNL     1       0.495  13.855  19.382  0.00  0.00    +0.000 HD
BRANCH  23  25
ATOM     25  C   UNL     1       2.089  14.662  20.466  0.00  0.00    +0.000 A 
ATOM     26  C   UNL     1       2.187  16.040  20.224  0.00  0.00    +0.000 A 
ATOM     27  C   UNL     1       3.401  16.712  20.315  0.00  0.00    +0.000 A 
ATOM     28  C   UNL     1       4.537  16.006  20.681  0.00  0.00    +0.000 A 
ATOM     29  C   UNL     1       4.469  14.634  20.953  0.00  0.00    +0.000 A 
ATOM     30  C   UNL     1       3.238  13.966  20.856  0.00  0.00    +0.000 A 
BRANCH  28  31
ATOM     31  S   UNL     1       6.061  16.884  20.780  0.00  0.00    +0.000 S 
ATOM     32  O   UNL     1       6.031  17.764  21.932  0.00  0.00    +0.000 OA
ATOM     33  O   UNL     1       7.162  15.987  20.519  0.00  0.00    +0.000 OA
BRANCH  31  34
ATOM     34  N   UNL     1       5.943  17.881  19.433  0.00  0.00    +0.000 NA
ATOM     35  H   UNL     1       5.477  18.752  19.683  0.00  0.00    +0.000 HD
ATOM     36  H   UNL     1       6.859  17.998  19.002  0.00  0.00    +0.000 HD
ENDBRANCH  31  34
ENDBRANCH  28  31
ENDBRANCH  23  25
ENDBRANCH  20  21
ENDBRANCH  19  20
ENDBRANCH   1  19
TORSDOF 9
ENDMDL
