MODEL 1
REMARK VINA RESULT:      -8.5      0.000      0.000
REMARK  Name = 
REMARK  8 active torsions:
REMARK  status: ('A' for Active; 'I' for Inactive)
REMARK    1  A    between atoms: C_1  and  C_2
REMARK    2  A    between atoms: N_11  and  C_12
REMARK    3  A    between atoms: C_12  and  C_13
REMARK    4  A    between atoms: C_13  and  O_15
REMARK    5  A    between atoms: O_15  and  C_16
REMARK    6  A    between atoms: C_16  and  C_17
REMARK    7  A    between atoms: N_19  and  C_20
REMARK    8  A    between atoms: C_26  and  N_27
REMARK                            x       y       z     vdW  Elec       q    Type
REMARK                         _______ _______ _______ _____ _____    ______ ____
ROOT
ATOM      1  C   UNL     1       9.332  10.441  19.187  0.00  0.00    +0.000 C 
ATOM      2  O   UNL     1       9.818  10.539  20.305  0.00  0.00    +0.000 OA
ENDROOT
BRANCH   1   3
ATOM      3  C   UNL     1       9.828  11.166  17.940  0.00  0.00    +0.000 C 
BRANCH   3  14
ATOM      4  C   UNL     1      10.853  16.162  16.638  0.00  0.00    +0.000 C 
ATOM      5  C   UNL     1      10.424  16.159  18.107  0.00  0.00    +0.000 C 
ATOM      6  C   UNL     1      11.618  16.491  19.020  0.00  0.00    +0.000 C 
ATOM      7  C   UNL     1      11.231  16.508  20.500  0.00  0.00    +0.000 C 
ATOM      8  C   UNL     1      10.513  15.235  20.931  0.00  0.00    +0.000 C 
ATOM      9  C   UNL     1       9.315  14.938  20.033  0.00  0.00    +0.000 C 
ATOM     10  C   UNL     1       9.717  14.866  18.545  0.00  0.00    +0.000 C 
ATOM     11  N   UNL     1       8.555  14.538  17.744  0.00  0.00    +0.000 N 
ATOM     12  C   UNL     1       8.455  13.182  17.511  0.00  0.00    +0.000 C 
ATOM     13  O   UNL     1       7.547  12.661  16.889  0.00  0.00    +0.000 OA
ATOM     14  N   UNL     1       9.560  12.581  18.027  0.00  0.00    +0.000 N 
ATOM     15  C   UNL     1      10.482  13.539  18.338  0.00  0.00    +0.000 C 
ATOM     16  O   UNL     1      11.681  13.361  18.490  0.00  0.00    +0.000 OA
ATOM     17  H   UNL     1       7.825  15.173  17.447  0.00  0.00    +0.000 HD
ENDBRANCH   3  14
ENDBRANCH   1   3
BRANCH   1  18
ATOM     18  O   UNL     1       8.254   9.657  18.891  0.00  0.00    +0.000 OA
BRANCH  18  19
ATOM     19  C   UNL     1       8.371   8.892  17.682  0.00  0.00    +0.000 C 
BRANCH  19  20
ATOM     20  C   UNL     1       7.597   7.584  17.873  0.00  0.00    +0.000 C 
ATOM     21  O   UNL     1       8.002   6.729  18.660  0.00  0.00    +0.000 OA
ATOM     22  N   UNL     1       6.466   7.461  17.075  0.00  0.00    +0.000 N 
ATOM     23  H   UNL     1       6.349   8.144  16.323  0.00  0.00    +0.000 HD
BRANCH  22  24
ATOM     24  C   UNL     1       5.563   6.356  17.067  0.00  0.00    +0.000 A 
ATOM     25  C   UNL     1       4.263   6.497  17.581  0.00  0.00    +0.000 A 
ATOM     26  C   UNL     1       3.376   5.422  17.645  0.00  0.00    +0.000 A 
ATOM     27  C   UNL     1       3.767   4.182  17.170  0.00  0.00    +0.000 A 
ATOM     28  F   UNL     1       2.921   3.149  17.249  0.00  0.00    +0.000 F 
ATOM     29  C   UNL     1       5.023   4.000  16.612  0.00  0.00    +0.000 A 
ATOM     30  C   UNL     1       5.919   5.085  16.548  0.00  0.00    +0.000 A 
BRANCH  30  31
ATOM     31  N   UNL     1       7.241   4.830  15.949  0.00  0.00    +0.000 N 
ATOM     32  O   UNL     1       7.467   5.295  14.823  0.00  0.00    +0.000 OA
ATOM     33  O   UNL     1       8.049   4.150  16.601  0.00  0.00    +0.000 OA
ENDBRANCH  30  31
ENDBRANCH  22  24
ENDBRANCH  19  20
ENDBRANCH  18  19
ENDBRANCH   1  18
TORSDOF 7
ENDMDL
MODEL 2
REMARK VINA RESULT:      -8.3      7.100     11.161
REMARK  Name = 
REMARK  8 active torsions:
REMARK  status: ('A' for Active; 'I' for Inactive)
REMARK    1  A    between atoms: C_1  and  C_2
REMARK    2  A    between atoms: N_11  and  C_12
REMARK    3  A    between atoms: C_12  and  C_13
REMARK    4  A    between atoms: C_13  and  O_15
REMARK    5  A    between atoms: O_15  and  C_16
REMARK    6  A    between atoms: C_16  and  C_17
REMARK    7  A    between atoms: N_19  and  C_20
REMARK    8  A    between atoms: C_26  and  N_27
REMARK                            x       y       z     vdW  Elec       q    Type
REMARK                         _______ _______ _______ _____ _____    ______ ____
ROOT
ATOM      1  C   UNL     1       2.450   8.223  18.249  0.00  0.00    +0.000 C 
ATOM      2  O   UNL     1       2.148   8.050  19.421  0.00  0.00    +0.000 OA
ENDROOT
BRANCH   1   3
ATOM      3  C   UNL     1       3.346   7.308  17.421  0.00  0.00    +0.000 C 
BRANCH   3  14
ATOM      4  C   UNL     1       3.522   2.051  17.614  0.00  0.00    +0.000 C 
ATOM      5  C   UNL     1       3.055   2.536  18.988  0.00  0.00    +0.000 C 
ATOM      6  C   UNL     1       1.577   2.174  19.219  0.00  0.00    +0.000 C 
ATOM      7  C   UNL     1       1.072   2.633  20.587  0.00  0.00    +0.000 C 
ATOM      8  C   UNL     1       1.350   4.108  20.847  0.00  0.00    +0.000 C 
ATOM      9  C   UNL     1       2.825   4.443  20.645  0.00  0.00    +0.000 C 
ATOM     10  C   UNL     1       3.319   4.030  19.242  0.00  0.00    +0.000 C 
ATOM     11  N   UNL     1       4.709   4.410  19.086  0.00  0.00    +0.000 N 
ATOM     12  C   UNL     1       4.841   5.643  18.481  0.00  0.00    +0.000 C 
ATOM     13  O   UNL     1       5.909   6.189  18.270  0.00  0.00    +0.000 OA
ATOM     14  N   UNL     1       3.603   6.072  18.118  0.00  0.00    +0.000 N 
ATOM     15  C   UNL     1       2.724   5.033  18.229  0.00  0.00    +0.000 C 
ATOM     16  O   UNL     1       1.635   4.950  17.679  0.00  0.00    +0.000 OA
ATOM     17  H   UNL     1       5.516   3.916  19.444  0.00  0.00    +0.000 HD
ENDBRANCH   3  14
ENDBRANCH   1   3
BRANCH   1  18
ATOM     18  O   UNL     1       2.023   9.284  17.502  0.00  0.00    +0.000 OA
BRANCH  18  19
ATOM     19  C   UNL     1       2.090  10.559  18.159  0.00  0.00    +0.000 C 
BRANCH  19  20
ATOM     20  C   UNL     1       0.764  10.785  18.890  0.00  0.00    +0.000 C 
ATOM     21  O   UNL     1      -0.302  10.468  18.361  0.00  0.00    +0.000 OA
ATOM     22  N   UNL     1       0.886  11.388  20.135  0.00  0.00    +0.000 N 
ATOM     23  H   UNL     1       1.798  11.784  20.374  0.00  0.00    +0.000 HD
BRANCH  22  24
ATOM     24  C   UNL     1      -0.186  11.696  21.026  0.00  0.00    +0.000 A 
ATOM     25  C   UNL     1      -0.969  12.844  20.822  0.00  0.00    +0.000 A 
ATOM     26  C   UNL     1      -1.985  13.209  21.707  0.00  0.00    +0.000 A 
ATOM     27  C   UNL     1      -2.254  12.412  22.806  0.00  0.00    +0.000 A 
ATOM     28  F   UNL     1      -3.216  12.774  23.663  0.00  0.00    +0.000 F 
ATOM     29  C   UNL     1      -1.540  11.245  23.028  0.00  0.00    +0.000 A 
ATOM     30  C   UNL     1      -0.514  10.877  22.136  0.00  0.00    +0.000 A 
BRANCH  30  31
ATOM     31  N   UNL     1       0.214   9.629  22.427  0.00  0.00    +0.000 N 
ATOM     32  O   UNL     1       0.964   9.612  23.413  0.00  0.00    +0.000 OA
ATOM     33  O   UNL     1       0.046   8.670  21.658  0.00  0.00    +0.000 OA
ENDBRANCH  30  31
ENDBRANCH  22  24
ENDBRANCH  19  20
ENDBRANCH  18  19
ENDBRANCH   1  18
TORSDOF 7
ENDMDL
MODEL 3
REMARK VINA RESULT:      -8.3      3.473     10.376
REMARK  Name = 
REMARK  8 active torsions:
REMARK  status: ('A' for Active; 'I' for Inactive)
REMARK    1  A    between atoms: C_1  and  C_2
REMARK    2  A    between atoms: N_11  and  C_12
REMARK    3  A    between atoms: C_12  and  C_13
REMARK    4  A    between atoms: C_13  and  O_15
REMARK    5  A    between atoms: O_15  and  C_16
REMARK    6  A    between atoms: C_16  and  C_17
REMARK    7  A    between atoms: N_19  and  C_20
REMARK    8  A    between atoms: C_26  and  N_27
REMARK                            x       y       z     vdW  Elec       q    Type
REMARK                         _______ _______ _______ _____ _____    ______ ____
ROOT
ATOM      1  C   UNL     1       7.352   5.781  18.782  0.00  0.00    +0.000 C 
ATOM      2  O   UNL     1       7.485   5.467  19.956  0.00  0.00    +0.000 OA
ENDROOT
BRANCH   1   3
ATOM      3  C   UNL     1       6.680   4.931  17.708  0.00  0.00    +0.000 C 
BRANCH   3  14
ATOM      4  C   UNL     1       2.296   5.432  20.578  0.00  0.00    +0.000 C 
ATOM      5  C   UNL     1       1.994   4.422  19.469  0.00  0.00    +0.000 C 
ATOM      6  C   UNL     1       1.830   3.008  20.054  0.00  0.00    +0.000 C 
ATOM      7  C   UNL     1       1.518   1.966  18.979  0.00  0.00    +0.000 C 
ATOM      8  C   UNL     1       2.513   2.000  17.826  0.00  0.00    +0.000 C 
ATOM      9  C   UNL     1       2.640   3.403  17.238  0.00  0.00    +0.000 C 
ATOM     10  C   UNL     1       3.011   4.444  18.315  0.00  0.00    +0.000 C 
ATOM     11  N   UNL     1       3.164   5.746  17.699  0.00  0.00    +0.000 N 
ATOM     12  C   UNL     1       4.477   6.010  17.368  0.00  0.00    +0.000 C 
ATOM     13  O   UNL     1       4.850   7.026  16.812  0.00  0.00    +0.000 OA
ATOM     14  N   UNL     1       5.244   4.987  17.832  0.00  0.00    +0.000 N 
ATOM     15  C   UNL     1       4.496   4.222  18.680  0.00  0.00    +0.000 C 
ATOM     16  O   UNL     1       4.929   3.452  19.525  0.00  0.00    +0.000 OA
ATOM     17  H   UNL     1       2.422   6.382  17.434  0.00  0.00    +0.000 HD
ENDBRANCH   3  14
ENDBRANCH   1   3
BRANCH   1  18
ATOM     18  O   UNL     1       7.799   6.958  18.253  0.00  0.00    +0.000 OA
BRANCH  18  19
ATOM     19  C   UNL     1       8.568   7.776  19.147  0.00  0.00    +0.000 C 
BRANCH  19  20
ATOM     20  C   UNL     1       8.618   9.193  18.569  0.00  0.00    +0.000 C 
ATOM     21  O   UNL     1       7.878   9.513  17.638  0.00  0.00    +0.000 OA
ATOM     22  N   UNL     1       9.566  10.022  19.156  0.00  0.00    +0.000 N 
ATOM     23  H   UNL     1      10.251   9.583  19.774  0.00  0.00    +0.000 HD
BRANCH  22  24
ATOM     24  C   UNL     1       9.808  11.387  18.817  0.00  0.00    +0.000 A 
ATOM     25  C   UNL     1      10.381  11.719  17.577  0.00  0.00    +0.000 A 
ATOM     26  C   UNL     1      10.688  13.038  17.239  0.00  0.00    +0.000 A 
ATOM     27  C   UNL     1      10.403  14.058  18.129  0.00  0.00    +0.000 A 
ATOM     28  F   UNL     1      10.715  15.319  17.809  0.00  0.00    +0.000 F 
ATOM     29  C   UNL     1       9.796  13.789  19.346  0.00  0.00    +0.000 A 
ATOM     30  C   UNL     1       9.487  12.458  19.689  0.00  0.00    +0.000 A 
BRANCH  30  31
ATOM     31  N   UNL     1       8.848  12.233  20.998  0.00  0.00    +0.000 N 
ATOM     32  O   UNL     1       8.112  13.124  21.444  0.00  0.00    +0.000 OA
ATOM     33  O   UNL     1       9.096  11.168  21.586  0.00  0.00    +0.000 OA
ENDBRANCH  30  31
ENDBRANCH  22  24
ENDBRANCH  19  20
ENDBRANCH  18  19
ENDBRANCH   1  18
TORSDOF 7
ENDMDL
MODEL 4
REMARK VINA RESULT:      -8.1      7.200     10.339
REMARK  Name = 
REMARK  8 active torsions:
REMARK  status: ('A' for Active; 'I' for Inactive)
REMARK    1  A    between atoms: C_1  and  C_2
REMARK    2  A    between atoms: N_11  and  C_12
REMARK    3  A    between atoms: C_12  and  C_13
REMARK    4  A    between atoms: C_13  and  O_15
REMARK    5  A    between atoms: O_15  and  C_16
REMARK    6  A    between atoms: C_16  and  C_17
REMARK    7  A    between atoms: N_19  and  C_20
REMARK    8  A    between atoms: C_26  and  N_27
REMARK                            x       y       z     vdW  Elec       q    Type
REMARK                         _______ _______ _______ _____ _____    ______ ____
ROOT
ATOM      1  C   UNL     1       2.251   7.551  19.184  0.00  0.00    +0.000 C 
ATOM      2  O   UNL     1       2.169   7.519  20.404  0.00  0.00    +0.000 OA
ENDROOT
BRANCH   1   3
ATOM      3  C   UNL     1       2.128   6.347  18.257  0.00  0.00    +0.000 C 
BRANCH   3  14
ATOM      4  C   UNL     1       7.372   6.046  18.594  0.00  0.00    +0.000 C 
ATOM      5  C   UNL     1       6.934   5.061  17.507  0.00  0.00    +0.000 C 
ATOM      6  C   UNL     1       7.374   5.556  16.118  0.00  0.00    +0.000 C 
ATOM      7  C   UNL     1       6.964   4.595  15.001  0.00  0.00    +0.000 C 
ATOM      8  C   UNL     1       5.481   4.247  15.045  0.00  0.00    +0.000 C 
ATOM      9  C   UNL     1       5.069   3.729  16.421  0.00  0.00    +0.000 C 
ATOM     10  C   UNL     1       5.433   4.726  17.541  0.00  0.00    +0.000 C 
ATOM     11  N   UNL     1       4.981   4.209  18.817  0.00  0.00    +0.000 N 
ATOM     12  C   UNL     1       3.733   4.690  19.156  0.00  0.00    +0.000 C 
ATOM     13  O   UNL     1       3.131   4.374  20.166  0.00  0.00    +0.000 OA
ATOM     14  N   UNL     1       3.361   5.600  18.217  0.00  0.00    +0.000 N 
ATOM     15  C   UNL     1       4.445   5.910  17.445  0.00  0.00    +0.000 C 
ATOM     16  O   UNL     1       4.574   6.909  16.754  0.00  0.00    +0.000 OA
ATOM     17  H   UNL     1       5.440   3.506  19.382  0.00  0.00    +0.000 HD
ENDBRANCH   3  14
ENDBRANCH   1   3
BRANCH   1  18
ATOM     18  O   UNL     1       2.475   8.691  18.466  0.00  0.00    +0.000 OA
BRANCH  18  19
ATOM     19  C   UNL     1       1.296   9.324  17.945  0.00  0.00    +0.000 C 
BRANCH  19  20
ATOM     20  C   UNL     1       0.926  10.478  18.881  0.00  0.00    +0.000 C 
ATOM     21  O   UNL     1       1.592  11.513  18.888  0.00  0.00    +0.000 OA
ATOM     22  N   UNL     1      -0.166  10.228  19.702  0.00  0.00    +0.000 N 
ATOM     23  H   UNL     1      -0.506   9.264  19.745  0.00  0.00    +0.000 HD
BRANCH  22  24
ATOM     24  C   UNL     1      -0.726  11.135  20.651  0.00  0.00    +0.000 A 
ATOM     25  C   UNL     1      -1.288  12.350  20.224  0.00  0.00    +0.000 A 
ATOM     26  C   UNL     1      -1.788  13.288  21.129  0.00  0.00    +0.000 A 
ATOM     27  C   UNL     1      -1.758  13.014  22.485  0.00  0.00    +0.000 A 
ATOM     28  F   UNL     1      -2.222  13.923  23.351  0.00  0.00    +0.000 F 
ATOM     29  C   UNL     1      -1.255  11.811  22.955  0.00  0.00    +0.000 A 
ATOM     30  C   UNL     1      -0.749  10.865  22.043  0.00  0.00    +0.000 A 
BRANCH  30  31
ATOM     31  N   UNL     1      -0.223   9.607  22.602  0.00  0.00    +0.000 N 
ATOM     32  O   UNL     1      -0.493   8.553  22.010  0.00  0.00    +0.000 OA
ATOM     33  O   UNL     1       0.450   9.674  23.642  0.00  0.00    +0.000 OA
ENDBRANCH  30  31
ENDBRANCH  22  24
ENDBRANCH  19  20
ENDBRANCH  18  19
ENDBRANCH   1  18
TORSDOF 7
ENDMDL
MODEL 5
REMARK VINA RESULT:      -8.1      6.938     10.652
REMARK  Name = 
REMARK  8 active torsions:
REMARK  status: ('A' for Active; 'I' for Inactive)
REMARK    1  A    between atoms: C_1  and  C_2
REMARK    2  A    between atoms: N_11  and  C_12
REMARK    3  A    between atoms: C_12  and  C_13
REMARK    4  A    between atoms: C_13  and  O_15
REMARK    5  A    between atoms: O_15  and  C_16
REMARK    6  A    between atoms: C_16  and  C_17
REMARK    7  A    between atoms: N_19  and  C_20
REMARK    8  A    between atoms: C_26  and  N_27
REMARK                            x       y       z     vdW  Elec       q    Type
REMARK                         _______ _______ _______ _____ _____    ______ ____
ROOT
ATOM      1  C   UNL     1       4.935   7.175  17.005  0.00  0.00    +0.000 C 
ATOM      2  O   UNL     1       5.918   7.807  17.364  0.00  0.00    +0.000 OA
ENDROOT
BRANCH   1   3
ATOM      3  C   UNL     1       4.935   5.718  16.553  0.00  0.00    +0.000 C 
BRANCH   3  14
ATOM      4  C   UNL     1       3.544   1.063  18.576  0.00  0.00    +0.000 C 
ATOM      5  C   UNL     1       3.057   2.139  19.549  0.00  0.00    +0.000 C 
ATOM      6  C   UNL     1       1.520   2.229  19.533  0.00  0.00    +0.000 C 
ATOM      7  C   UNL     1       0.989   3.288  20.500  0.00  0.00    +0.000 C 
ATOM      8  C   UNL     1       1.646   4.647  20.295  0.00  0.00    +0.000 C 
ATOM      9  C   UNL     1       3.169   4.544  20.345  0.00  0.00    +0.000 C 
ATOM     10  C   UNL     1       3.707   3.515  19.329  0.00  0.00    +0.000 C 
ATOM     11  N   UNL     1       5.155   3.490  19.384  0.00  0.00    +0.000 N 
ATOM     12  C   UNL     1       5.722   4.324  18.442  0.00  0.00    +0.000 C 
ATOM     13  O   UNL     1       6.920   4.495  18.315  0.00  0.00    +0.000 OA
ATOM     14  N   UNL     1       4.723   4.833  17.672  0.00  0.00    +0.000 N 
ATOM     15  C   UNL     1       3.573   4.141  17.922  0.00  0.00    +0.000 C 
ATOM     16  O   UNL     1       2.593   4.087  17.194  0.00  0.00    +0.000 OA
ATOM     17  H   UNL     1       5.726   3.014  20.070  0.00  0.00    +0.000 HD
ENDBRANCH   3  14
ENDBRANCH   1   3
BRANCH   1  18
ATOM     18  O   UNL     1       3.673   7.695  16.952  0.00  0.00    +0.000 OA
BRANCH  18  19
ATOM     19  C   UNL     1       3.018   7.835  18.222  0.00  0.00    +0.000 C 
BRANCH  19  20
ATOM     20  C   UNL     1       2.035   9.005  18.121  0.00  0.00    +0.000 C 
ATOM     21  O   UNL     1       2.193   9.881  17.270  0.00  0.00    +0.000 OA
ATOM     22  N   UNL     1       1.019   8.988  19.068  0.00  0.00    +0.000 N 
ATOM     23  H   UNL     1       1.112   8.325  19.840  0.00  0.00    +0.000 HD
BRANCH  22  24
ATOM     24  C   UNL     1      -0.032   9.947  19.185  0.00  0.00    +0.000 A 
ATOM     25  C   UNL     1      -1.112   9.929  18.286  0.00  0.00    +0.000 A 
ATOM     26  C   UNL     1      -2.125  10.889  18.334  0.00  0.00    +0.000 A 
ATOM     27  C   UNL     1      -2.088  11.875  19.304  0.00  0.00    +0.000 A 
ATOM     28  F   UNL     1      -3.051  12.805  19.336  0.00  0.00    +0.000 F 
ATOM     29  C   UNL     1      -1.069  11.910  20.242  0.00  0.00    +0.000 A 
ATOM     30  C   UNL     1      -0.046  10.943  20.194  0.00  0.00    +0.000 A 
BRANCH  30  31
ATOM     31  N   UNL     1       1.014  11.035  21.214  0.00  0.00    +0.000 N 
ATOM     32  O   UNL     1       1.634  12.103  21.310  0.00  0.00    +0.000 OA
ATOM     33  O   UNL     1       1.234  10.031  21.910  0.00  0.00    +0.000 OA
ENDBRANCH  30  31
ENDBRANCH  22  24
ENDBRANCH  19  20
ENDBRANCH  18  19
ENDBRANCH   1  18
TORSDOF 7
ENDMDL
MODEL 6
REMARK VINA RESULT:      -8.1      3.557     10.269
REMARK  Name = 
REMARK  8 active torsions:
REMARK  status: ('A' for Active; 'I' for Inactive)
REMARK    1  A    between atoms: C_1  and  C_2
REMARK    2  A    between atoms: N_11  and  C_12
REMARK    3  A    between atoms: C_12  and  C_13
REMARK    4  A    between atoms: C_13  and  O_15
REMARK    5  A    between atoms: O_15  and  C_16
REMARK    6  A    between atoms: C_16  and  C_17
REMARK    7  A    between atoms: N_19  and  C_20
REMARK    8  A    between atoms: C_26  and  N_27
REMARK                            x       y       z     vdW  Elec       q    Type
REMARK                         _______ _______ _______ _____ _____    ______ ____
ROOT
ATOM      1  C   UNL     1       6.702   6.658  17.065  0.00  0.00    +0.000 C 
ATOM      2  O   UNL     1       6.681   6.070  15.992  0.00  0.00    +0.000 OA
ENDROOT
BRANCH   1   3
ATOM      3  C   UNL     1       6.226   6.088  18.397  0.00  0.00    +0.000 C 
BRANCH   3  14
ATOM      4  C   UNL     1       1.614   5.055  20.713  0.00  0.00    +0.000 C 
ATOM      5  C   UNL     1       1.712   4.150  19.484  0.00  0.00    +0.000 C 
ATOM      6  C   UNL     1       1.887   2.680  19.905  0.00  0.00    +0.000 C 
ATOM      7  C   UNL     1       1.980   1.738  18.704  0.00  0.00    +0.000 C 
ATOM      8  C   UNL     1       3.036   2.177  17.697  0.00  0.00    +0.000 C 
ATOM      9  C   UNL     1       2.829   3.627  17.267  0.00  0.00    +0.000 C 
ATOM     10  C   UNL     1       2.792   4.583  18.478  0.00  0.00    +0.000 C 
ATOM     11  N   UNL     1       2.640   5.947  18.013  0.00  0.00    +0.000 N 
ATOM     12  C   UNL     1       3.856   6.586  17.880  0.00  0.00    +0.000 C 
ATOM     13  O   UNL     1       3.987   7.727  17.476  0.00  0.00    +0.000 OA
ATOM     14  N   UNL     1       4.825   5.750  18.340  0.00  0.00    +0.000 N 
ATOM     15  C   UNL     1       4.237   4.714  19.008  0.00  0.00    +0.000 C 
ATOM     16  O   UNL     1       4.780   3.984  19.824  0.00  0.00    +0.000 OA
ATOM     17  H   UNL     1       1.781   6.394  17.717  0.00  0.00    +0.000 HD
ENDBRANCH   3  14
ENDBRANCH   1   3
BRANCH   1  18
ATOM     18  O   UNL     1       7.160   7.935  17.224  0.00  0.00    +0.000 OA
BRANCH  18  19
ATOM     19  C   UNL     1       8.339   8.063  18.033  0.00  0.00    +0.000 C 
BRANCH  19  20
ATOM     20  C   UNL     1       8.468   9.530  18.452  0.00  0.00    +0.000 C 
ATOM     21  O   UNL     1       7.919  10.417  17.797  0.00  0.00    +0.000 OA
ATOM     22  N   UNL     1       9.262   9.743  19.572  0.00  0.00    +0.000 N 
ATOM     23  H   UNL     1       9.823   8.955  19.903  0.00  0.00    +0.000 HD
BRANCH  22  24
ATOM     24  C   UNL     1       9.534  11.006  20.178  0.00  0.00    +0.000 A 
ATOM     25  C   UNL     1       8.916  11.360  21.389  0.00  0.00    +0.000 A 
ATOM     26  C   UNL     1       9.111  12.610  21.978  0.00  0.00    +0.000 A 
ATOM     27  C   UNL     1       9.954  13.527  21.374  0.00  0.00    +0.000 A 
ATOM     28  F   UNL     1      10.125  14.732  21.930  0.00  0.00    +0.000 F 
ATOM     29  C   UNL     1      10.623  13.211  20.202  0.00  0.00    +0.000 A 
ATOM     30  C   UNL     1      10.426  11.950  19.607  0.00  0.00    +0.000 A 
BRANCH  30  31
ATOM     31  N   UNL     1      11.160  11.673  18.359  0.00  0.00    +0.000 N 
ATOM     32  O   UNL     1      10.695  12.123  17.302  0.00  0.00    +0.000 OA
ATOM     33  O   UNL     1      12.194  10.992  18.436  0.00  0.00    +0.000 OA
ENDBRANCH  30  31
ENDBRANCH  22  24
ENDBRANCH  19  20
ENDBRANCH  18  19
ENDBRANCH   1  18
TORSDOF 7
ENDMDL
MODEL 7
REMARK VINA RESULT:      -8.1      7.134     11.291
REMARK  Name = 
REMARK  8 active torsions:
REMARK  status: ('A' for Active; 'I' for Inactive)
REMARK    1  A    between atoms: C_1  and  C_2
REMARK    2  A    between atoms: N_11  and  C_12
REMARK    3  A    between atoms: C_12  and  C_13
REMARK    4  A    between atoms: C_13  and  O_15
REMARK    5  A    between atoms: O_15  and  C_16
REMARK    6  A    between atoms: C_16  and  C_17
REMARK    7  A    between atoms: N_19  and  C_20
REMARK    8  A    between atoms: C_26  and  N_27
REMARK                            x       y       z     vdW  Elec       q    Type
REMARK                         _______ _______ _______ _____ _____    ______ ____
ROOT
ATOM      1  C   UNL     1       2.561   8.060  18.225  0.00  0.00    +0.000 C 
ATOM      2  O   UNL     1       2.239   7.963  19.401  0.00  0.00    +0.000 OA
ENDROOT
BRANCH   1   3
ATOM      3  C   UNL     1       3.557   7.160  17.502  0.00  0.00    +0.000 C 
BRANCH   3  14
ATOM      4  C   UNL     1       3.590   1.902  17.750  0.00  0.00    +0.000 C 
ATOM      5  C   UNL     1       3.073   2.412  19.097  0.00  0.00    +0.000 C 
ATOM      6  C   UNL     1       1.577   2.090  19.261  0.00  0.00    +0.000 C 
ATOM      7  C   UNL     1       1.020   2.575  20.599  0.00  0.00    +0.000 C 
ATOM      8  C   UNL     1       1.323   4.045  20.860  0.00  0.00    +0.000 C 
ATOM      9  C   UNL     1       2.815   4.341  20.723  0.00  0.00    +0.000 C 
ATOM     10  C   UNL     1       3.363   3.901  19.349  0.00  0.00    +0.000 C 
ATOM     11  N   UNL     1       4.767   4.246  19.255  0.00  0.00    +0.000 N 
ATOM     12  C   UNL     1       4.959   5.468  18.646  0.00  0.00    +0.000 C 
ATOM     13  O   UNL     1       6.049   5.985  18.480  0.00  0.00    +0.000 OA
ATOM     14  N   UNL     1       3.750   5.924  18.221  0.00  0.00    +0.000 N 
ATOM     15  C   UNL     1       2.840   4.909  18.300  0.00  0.00    +0.000 C 
ATOM     16  O   UNL     1       1.777   4.847  17.701  0.00  0.00    +0.000 OA
ATOM     17  H   UNL     1       5.544   3.734  19.654  0.00  0.00    +0.000 HD
ENDBRANCH   3  14
ENDBRANCH   1   3
BRANCH   1  18
ATOM     18  O   UNL     1       2.066   9.009  17.377  0.00  0.00    +0.000 OA
BRANCH  18  19
ATOM     19  C   UNL     1       2.048  10.345  17.900  0.00  0.00    +0.000 C 
BRANCH  19  20
ATOM     20  C   UNL     1       0.808  10.490  18.786  0.00  0.00    +0.000 C 
ATOM     21  O   UNL     1      -0.295  10.122  18.380  0.00  0.00    +0.000 OA
ATOM     22  N   UNL     1       1.045  11.084  20.019  0.00  0.00    +0.000 N 
ATOM     23  H   UNL     1       1.957  11.527  20.156  0.00  0.00    +0.000 HD
BRANCH  22  24
ATOM     24  C   UNL     1       0.072  11.323  21.035  0.00  0.00    +0.000 A 
ATOM     25  C   UNL     1      -0.121  10.389  22.067  0.00  0.00    +0.000 A 
ATOM     26  C   UNL     1      -1.105  10.562  23.041  0.00  0.00    +0.000 A 
ATOM     27  C   UNL     1      -1.905  11.691  23.015  0.00  0.00    +0.000 A 
ATOM     28  F   UNL     1      -2.860  11.844  23.939  0.00  0.00    +0.000 F 
ATOM     29  C   UNL     1      -1.726  12.665  22.044  0.00  0.00    +0.000 A 
ATOM     30  C   UNL     1      -0.733  12.491  21.060  0.00  0.00    +0.000 A 
BRANCH  30  31
ATOM     31  N   UNL     1      -0.593  13.556  20.051  0.00  0.00    +0.000 N 
ATOM     32  O   UNL     1      -0.111  14.638  20.415  0.00  0.00    +0.000 OA
ATOM     33  O   UNL     1      -0.981  13.314  18.898  0.00  0.00    +0.000 OA
ENDBRANCH  30  31
ENDBRANCH  22  24
ENDBRANCH  19  20
ENDBRANCH  18  19
ENDBRANCH   1  18
TORSDOF 7
ENDMDL
MODEL 8
REMARK VINA RESULT:      -8.0      1.434      2.449
REMARK  Name = 
REMARK  8 active torsions:
REMARK  status: ('A' for Active; 'I' for Inactive)
REMARK    1  A    between atoms: C_1  and  C_2
REMARK    2  A    between atoms: N_11  and  C_12
REMARK    3  A    between atoms: C_12  and  C_13
REMARK    4  A    between atoms: C_13  and  O_15
REMARK    5  A    between atoms: O_15  and  C_16
REMARK    6  A    between atoms: C_16  and  C_17
REMARK    7  A    between atoms: N_19  and  C_20
REMARK    8  A    between atoms: C_26  and  N_27
REMARK                            x       y       z     vdW  Elec       q    Type
REMARK                         _______ _______ _______ _____ _____    ______ ____
ROOT
ATOM      1  C   UNL     1       9.178  10.725  18.709  0.00  0.00    +0.000 C 
ATOM      2  O   UNL     1       9.354  11.352  17.674  0.00  0.00    +0.000 OA
ENDROOT
BRANCH   1   3
ATOM      3  C   UNL     1       9.468  11.237  20.116  0.00  0.00    +0.000 C 
BRANCH   3  14
ATOM      4  C   UNL     1      10.674  15.906  22.226  0.00  0.00    +0.000 C 
ATOM      5  C   UNL     1      10.513  16.122  20.719  0.00  0.00    +0.000 C 
ATOM      6  C   UNL     1       9.247  16.945  20.421  0.00  0.00    +0.000 C 
ATOM      7  C   UNL     1       9.052  17.192  18.925  0.00  0.00    +0.000 C 
ATOM      8  C   UNL     1       9.108  15.907  18.108  0.00  0.00    +0.000 C 
ATOM      9  C   UNL     1      10.384  15.119  18.393  0.00  0.00    +0.000 C 
ATOM     10  C   UNL     1      10.550  14.822  19.898  0.00  0.00    +0.000 C 
ATOM     11  N   UNL     1      11.749  14.035  20.108  0.00  0.00    +0.000 N 
ATOM     12  C   UNL     1      11.479  12.682  20.139  0.00  0.00    +0.000 C 
ATOM     13  O   UNL     1      12.328  11.820  20.272  0.00  0.00    +0.000 OA
ATOM     14  N   UNL     1      10.131  12.518  20.070  0.00  0.00    +0.000 N 
ATOM     15  C   UNL     1       9.526  13.725  20.268  0.00  0.00    +0.000 C 
ATOM     16  O   UNL     1       8.366  13.901  20.609  0.00  0.00    +0.000 OA
ATOM     17  H   UNL     1      12.700  14.378  20.138  0.00  0.00    +0.000 HD
ENDBRANCH   3  14
ENDBRANCH   1   3
BRANCH   1  18
ATOM     18  O   UNL     1       8.690   9.450  18.753  0.00  0.00    +0.000 OA
BRANCH  18  19
ATOM     19  C   UNL     1       8.227   8.931  17.497  0.00  0.00    +0.000 C 
BRANCH  19  20
ATOM     20  C   UNL     1       7.491   7.616  17.770  0.00  0.00    +0.000 C 
ATOM     21  O   UNL     1       7.919   6.825  18.611  0.00  0.00    +0.000 OA
ATOM     22  N   UNL     1       6.366   7.410  16.981  0.00  0.00    +0.000 N 
ATOM     23  H   UNL     1       6.232   8.039  16.187  0.00  0.00    +0.000 HD
BRANCH  22  24
ATOM     24  C   UNL     1       5.496   6.280  17.043  0.00  0.00    +0.000 A 
ATOM     25  C   UNL     1       4.196   6.413  17.560  0.00  0.00    +0.000 A 
ATOM     26  C   UNL     1       3.341   5.318  17.691  0.00  0.00    +0.000 A 
ATOM     27  C   UNL     1       3.765   4.065  17.283  0.00  0.00    +0.000 A 
ATOM     28  F   UNL     1       2.950   3.014  17.427  0.00  0.00    +0.000 F 
ATOM     29  C   UNL     1       5.021   3.888  16.725  0.00  0.00    +0.000 A 
ATOM     30  C   UNL     1       5.885   4.993  16.593  0.00  0.00    +0.000 A 
BRANCH  30  31
ATOM     31  N   UNL     1       7.210   4.742  15.998  0.00  0.00    +0.000 N 
ATOM     32  O   UNL     1       8.038   4.114  16.672  0.00  0.00    +0.000 OA
ATOM     33  O   UNL     1       7.426   5.188  14.860  0.00  0.00    +0.000 OA
ENDBRANCH  30  31
ENDBRANCH  22  24
ENDBRANCH  19  20
ENDBRANCH  18  19
ENDBRANCH   1  18
TORSDOF 7
ENDMDL
MODEL 9
REMARK VINA RESULT:      -8.0      3.506     10.316
REMARK  Name = 
REMARK  8 active torsions:
REMARK  status: ('A' for Active; 'I' for Inactive)
REMARK    1  A    between atoms: C_1  and  C_2
REMARK    2  A    between atoms: N_11  and  C_12
REMARK    3  A    between atoms: C_12  and  C_13
REMARK    4  A    between atoms: C_13  and  O_15
REMARK    5  A    between atoms: O_15  and  C_16
REMARK    6  A    between atoms: C_16  and  C_17
REMARK    7  A    between atoms: N_19  and  C_20
REMARK    8  A    between atoms: C_26  and  N_27
REMARK                            x       y       z     vdW  Elec       q    Type
REMARK                         _______ _______ _______ _____ _____    ______ ____
ROOT
ATOM      1  C   UNL     1       6.633   6.669  17.363  0.00  0.00    +0.000 C 
ATOM      2  O   UNL     1       6.065   6.906  16.306  0.00  0.00    +0.000 OA
ENDROOT
BRANCH   1   3
ATOM      3  C   UNL     1       6.841   5.283  17.964  0.00  0.00    +0.000 C 
BRANCH   3  14
ATOM      4  C   UNL     1       1.593   4.925  17.788  0.00  0.00    +0.000 C 
ATOM      5  C   UNL     1       2.094   3.767  18.655  0.00  0.00    +0.000 C 
ATOM      6  C   UNL     1       1.707   3.987  20.128  0.00  0.00    +0.000 C 
ATOM      7  C   UNL     1       2.181   2.847  21.030  0.00  0.00    +0.000 C 
ATOM      8  C   UNL     1       3.666   2.548  20.863  0.00  0.00    +0.000 C 
ATOM      9  C   UNL     1       4.025   2.302  19.400  0.00  0.00    +0.000 C 
ATOM     10  C   UNL     1       3.596   3.480  18.499  0.00  0.00    +0.000 C 
ATOM     11  N   UNL     1       4.000   3.217  17.133  0.00  0.00    +0.000 N 
ATOM     12  C   UNL     1       5.224   3.782  16.839  0.00  0.00    +0.000 C 
ATOM     13  O   UNL     1       5.786   3.672  15.764  0.00  0.00    +0.000 OA
ATOM     14  N   UNL     1       5.623   4.512  17.914  0.00  0.00    +0.000 N 
ATOM     15  C   UNL     1       4.570   4.648  18.772  0.00  0.00    +0.000 C 
ATOM     16  O   UNL     1       4.455   5.500  19.642  0.00  0.00    +0.000 OA
ATOM     17  H   UNL     1       3.527   2.621  16.466  0.00  0.00    +0.000 HD
ENDBRANCH   3  14
ENDBRANCH   1   3
BRANCH   1  18
ATOM     18  O   UNL     1       7.166   7.629  18.173  0.00  0.00    +0.000 OA
BRANCH  18  19
ATOM     19  C   UNL     1       8.371   8.238  17.685  0.00  0.00    +0.000 C 
BRANCH  19  20
ATOM     20  C   UNL     1       8.443   9.662  18.245  0.00  0.00    +0.000 C 
ATOM     21  O   UNL     1       7.804  10.572  17.717  0.00  0.00    +0.000 OA
ATOM     22  N   UNL     1       9.292   9.811  19.334  0.00  0.00    +0.000 N 
ATOM     23  H   UNL     1       9.916   9.031  19.549  0.00  0.00    +0.000 HD
BRANCH  22  24
ATOM     24  C   UNL     1       9.529  11.023  20.050  0.00  0.00    +0.000 A 
ATOM     25  C   UNL     1       9.015  11.193  21.347  0.00  0.00    +0.000 A 
ATOM     26  C   UNL     1       9.175  12.387  22.052  0.00  0.00    +0.000 A 
ATOM     27  C   UNL     1       9.879  13.431  21.478  0.00  0.00    +0.000 A 
ATOM     28  F   UNL     1      10.016  14.581  22.149  0.00  0.00    +0.000 F 
ATOM     29  C   UNL     1      10.446  13.299  20.220  0.00  0.00    +0.000 A 
ATOM     30  C   UNL     1      10.283  12.095  19.508  0.00  0.00    +0.000 A 
BRANCH  30  31
ATOM     31  N   UNL     1      10.903  12.015  18.173  0.00  0.00    +0.000 N 
ATOM     32  O   UNL     1      11.822  11.201  18.009  0.00  0.00    +0.000 OA
ATOM     33  O   UNL     1      10.477  12.779  17.292  0.00  0.00    +0.000 OA
ENDBRANCH  30  31
ENDBRANCH  22  24
ENDBRANCH  19  20
ENDBRANCH  18  19
ENDBRANCH   1  18
TORSDOF 7
ENDMDL
