MODEL 1
REMARK VINA RESULT:      -6.1      0.000      0.000
REMARK  Name = 
REMARK  6 active torsions:
REMARK  status: ('A' for Active; 'I' for Inactive)
REMARK    1  A    between atoms: C_2  and  C_4
REMARK    2  A    between atoms: C_4  and  C_5
REMARK    3  A    between atoms: C_7  and  C_8
REMARK    4  A    between atoms: C_15  and  C_16
REMARK    5  A    between atoms: N_23  and  C_24
REMARK    6  A    between atoms: C_24  and  C_25
REMARK                            x       y       z     vdW  Elec       q    Type
REMARK                         _______ _______ _______ _____ _____    ______ ____
ROOT
ATOM      1  C   UNL     1      -4.281  12.934  23.342  0.00  0.00    +0.000 C 
ATOM      2  C   UNL     1      -3.129  11.934  23.294  0.00  0.00    +0.000 C 
ATOM      3  C   UNL     1      -2.118  12.353  22.231  0.00  0.00    +0.000 C 
ATOM      4  C   UNL     1      -1.520  13.727  22.649  0.00  0.00    +0.000 C 
ATOM      5  N   UNL     1      -2.558  14.741  22.955  0.00  0.00    +0.000 N 
ATOM      6  C   UNL     1      -3.858  14.406  23.313  0.00  0.00    +0.000 C 
ATOM      7  O   UNL     1      -4.702  15.270  23.572  0.00  0.00    +0.000 OA
ENDROOT
BRANCH   3   8
ATOM      8  C   UNL     1      -1.079  11.261  21.997  0.00  0.00    +0.000 A 
ATOM      9  C   UNL     1      -0.635  10.487  23.080  0.00  0.00    +0.000 A 
ATOM     10  C   UNL     1       0.285   9.451  22.897  0.00  0.00    +0.000 A 
ATOM     11  C   UNL     1       0.778   9.175  21.626  0.00  0.00    +0.000 A 
ATOM     12  C   UNL     1       0.360   9.946  20.544  0.00  0.00    +0.000 A 
ATOM     13 CL   UNL     1       0.968   9.604  18.971  0.00  0.00    +0.000 Cl
ATOM     14  C   UNL     1      -0.556  10.987  20.721  0.00  0.00    +0.000 A 
ENDBRANCH   3   8
BRANCH   4  15
ATOM     15  C   UNL     1      -0.544  14.225  21.587  0.00  0.00    +0.000 A 
ATOM     16  C   UNL     1      -0.991  14.541  20.293  0.00  0.00    +0.000 A 
ATOM     17  C   UNL     1      -0.098  14.995  19.324  0.00  0.00    +0.000 A 
ATOM     18  C   UNL     1       1.249  15.138  19.643  0.00  0.00    +0.000 A 
ATOM     19 CL   UNL     1       2.351  15.702  18.447  0.00  0.00    +0.000 Cl
ATOM     20  C   UNL     1       1.712  14.835  20.921  0.00  0.00    +0.000 A 
ATOM     21  C   UNL     1       0.820  14.379  21.893  0.00  0.00    +0.000 A 
ENDBRANCH   4  15
BRANCH   1  22
ATOM     22  C   UNL     1      -5.135  12.716  24.605  0.00  0.00    +0.000 C 
BRANCH  22  24
ATOM     23  N   UNL     1      -7.307  13.792  24.456  0.00  0.00    +0.000 N 
ATOM     24  C   UNL     1      -6.614  12.629  24.323  0.00  0.00    +0.000 C 
ATOM     25  O   UNL     1      -7.170  11.593  23.973  0.00  0.00    +0.000 OA
ATOM     26  H   UNL     1      -8.312  13.734  24.352  0.00  0.00    +0.000 HD
ATOM     27  H   UNL     1      -6.930  14.581  24.965  0.00  0.00    +0.000 HD
ENDBRANCH  22  24
ENDBRANCH   1  22
BRANCH   5  28
ATOM     28  C   UNL     1      -2.108  16.083  23.367  0.00  0.00    +0.000 C 
BRANCH  28  29
ATOM     29  C   UNL     1      -1.300  16.119  24.633  0.00  0.00    +0.000 C 
ATOM     30  C   UNL     1      -0.105  17.014  24.851  0.00  0.00    +0.000 C 
ATOM     31  C   UNL     1      -1.411  17.341  25.517  0.00  0.00    +0.000 C 
ENDBRANCH  28  29
ENDBRANCH   5  28
TORSDOF 6
ENDMDL
MODEL 2
REMARK VINA RESULT:      -5.8      4.557      7.436
REMARK  Name = 
REMARK  6 active torsions:
REMARK  status: ('A' for Active; 'I' for Inactive)
REMARK    1  A    between atoms: C_2  and  C_4
REMARK    2  A    between atoms: C_4  and  C_5
REMARK    3  A    between atoms: C_7  and  C_8
REMARK    4  A    between atoms: C_15  and  C_16
REMARK    5  A    between atoms: N_23  and  C_24
REMARK    6  A    between atoms: C_24  and  C_25
REMARK                            x       y       z     vdW  Elec       q    Type
REMARK                         _______ _______ _______ _____ _____    ______ ____
ROOT
ATOM      1  C   UNL     1       3.563  14.899  18.909  0.00  0.00    +0.000 C 
ATOM      2  C   UNL     1       2.690  13.650  18.832  0.00  0.00    +0.000 C 
ATOM      3  C   UNL     1       1.619  13.694  19.918  0.00  0.00    +0.000 C 
ATOM      4  C   UNL     1       0.701  14.918  19.639  0.00  0.00    +0.000 C 
ATOM      5  N   UNL     1       1.457  16.181  19.459  0.00  0.00    +0.000 N 
ATOM      6  C   UNL     1       2.796  16.212  19.087  0.00  0.00    +0.000 C 
ATOM      7  O   UNL     1       3.401  17.278  18.935  0.00  0.00    +0.000 OA
ENDROOT
BRANCH   3   8
ATOM      8  C   UNL     1       0.879  12.365  20.018  0.00  0.00    +0.000 A 
ATOM      9  C   UNL     1       0.329  11.791  18.861  0.00  0.00    +0.000 A 
ATOM     10  C   UNL     1      -0.320  10.554  18.908  0.00  0.00    +0.000 A 
ATOM     11  C   UNL     1      -0.431   9.871  20.115  0.00  0.00    +0.000 A 
ATOM     12  C   UNL     1       0.096  10.436  21.274  0.00  0.00    +0.000 A 
ATOM     13 CL   UNL     1      -0.040   9.591  22.767  0.00  0.00    +0.000 Cl
ATOM     14  C   UNL     1       0.740  11.675  21.236  0.00  0.00    +0.000 A 
ENDBRANCH   3   8
BRANCH   4  15
ATOM     15  C   UNL     1      -0.356  15.048  20.732  0.00  0.00    +0.000 A 
ATOM     16  C   UNL     1       0.017  15.286  22.066  0.00  0.00    +0.000 A 
ATOM     17  C   UNL     1      -0.949  15.403  23.064  0.00  0.00    +0.000 A 
ATOM     18  C   UNL     1      -2.296  15.286  22.734  0.00  0.00    +0.000 A 
ATOM     19 CL   UNL     1      -3.489  15.434  23.966  0.00  0.00    +0.000 Cl
ATOM     20  C   UNL     1      -2.687  15.054  21.418  0.00  0.00    +0.000 A 
ATOM     21  C   UNL     1      -1.721  14.935  20.417  0.00  0.00    +0.000 A 
ENDBRANCH   4  15
BRANCH   1  22
ATOM     22  C   UNL     1       4.432  15.031  17.643  0.00  0.00    +0.000 C 
BRANCH  22  24
ATOM     23  N   UNL     1       6.387  16.104  18.603  0.00  0.00    +0.000 N 
ATOM     24  C   UNL     1       5.913  15.023  17.927  0.00  0.00    +0.000 C 
ATOM     25  O   UNL     1       6.653  14.103  17.598  0.00  0.00    +0.000 OA
ATOM     26  H   UNL     1       7.390  16.155  18.728  0.00  0.00    +0.000 HD
ATOM     27  H   UNL     1       5.860  16.965  18.669  0.00  0.00    +0.000 HD
ENDBRANCH  22  24
ENDBRANCH   1  22
BRANCH   5  28
ATOM     28  C   UNL     1       0.690  17.410  19.185  0.00  0.00    +0.000 C 
BRANCH  28  29
ATOM     29  C   UNL     1       0.045  17.465  17.829  0.00  0.00    +0.000 C 
ATOM     30  C   UNL     1      -0.770  18.629  17.323  0.00  0.00    +0.000 C 
ATOM     31  C   UNL     1       0.622  18.412  16.801  0.00  0.00    +0.000 C 
ENDBRANCH  28  29
ENDBRANCH   5  28
TORSDOF 6
ENDMDL
MODEL 3
REMARK VINA RESULT:      -5.7      0.998      1.401
REMARK  Name = 
REMARK  6 active torsions:
REMARK  status: ('A' for Active; 'I' for Inactive)
REMARK    1  A    between atoms: C_2  and  C_4
REMARK    2  A    between atoms: C_4  and  C_5
REMARK    3  A    between atoms: C_7  and  C_8
REMARK    4  A    between atoms: C_15  and  C_16
REMARK    5  A    between atoms: N_23  and  C_24
REMARK    6  A    between atoms: C_24  and  C_25
REMARK                            x       y       z     vdW  Elec       q    Type
REMARK                         _______ _______ _______ _____ _____    ______ ____
ROOT
ATOM      1  C   UNL     1      -4.194  13.376  22.935  0.00  0.00    +0.000 C 
ATOM      2  C   UNL     1      -3.168  12.302  22.582  0.00  0.00    +0.000 C 
ATOM      3  C   UNL     1      -2.179  12.842  21.554  0.00  0.00    +0.000 C 
ATOM      4  C   UNL     1      -1.406  14.025  22.203  0.00  0.00    +0.000 C 
ATOM      5  N   UNL     1      -2.301  15.044  22.801  0.00  0.00    +0.000 N 
ATOM      6  C   UNL     1      -3.608  14.769  23.184  0.00  0.00    +0.000 C 
ATOM      7  O   UNL     1      -4.331  15.634  23.687  0.00  0.00    +0.000 OA
ENDROOT
BRANCH   3   8
ATOM      8  C   UNL     1      -1.287  11.731  21.010  0.00  0.00    +0.000 A 
ATOM      9  C   UNL     1      -1.290  11.454  19.634  0.00  0.00    +0.000 A 
ATOM     10  C   UNL     1      -0.455  10.471  19.094  0.00  0.00    +0.000 A 
ATOM     11  C   UNL     1       0.395   9.747  19.924  0.00  0.00    +0.000 A 
ATOM     12  C   UNL     1       0.396  10.000  21.294  0.00  0.00    +0.000 A 
ATOM     13 CL   UNL     1       1.448   9.105  22.321  0.00  0.00    +0.000 Cl
ATOM     14  C   UNL     1      -0.440  10.976  21.842  0.00  0.00    +0.000 A 
ENDBRANCH   3   8
BRANCH   4  15
ATOM     15  C   UNL     1      -0.442  14.645  21.196  0.00  0.00    +0.000 A 
ATOM     16  C   UNL     1      -0.920  15.231  20.012  0.00  0.00    +0.000 A 
ATOM     17  C   UNL     1      -0.039  15.796  19.092  0.00  0.00    +0.000 A 
ATOM     18  C   UNL     1       1.328  15.781  19.351  0.00  0.00    +0.000 A 
ATOM     19 CL   UNL     1       2.416  16.482  18.216  0.00  0.00    +0.000 Cl
ATOM     20  C   UNL     1       1.823  15.208  20.520  0.00  0.00    +0.000 A 
ATOM     21  C   UNL     1       0.942  14.640  21.442  0.00  0.00    +0.000 A 
ENDBRANCH   4  15
BRANCH   1  22
ATOM     22  C   UNL     1      -4.993  12.971  24.187  0.00  0.00    +0.000 C 
BRANCH  22  24
ATOM     23  N   UNL     1      -7.290  13.617  24.642  0.00  0.00    +0.000 N 
ATOM     24  C   UNL     1      -6.469  12.798  23.929  0.00  0.00    +0.000 C 
ATOM     25  O   UNL     1      -6.917  11.994  23.119  0.00  0.00    +0.000 OA
ATOM     26  H   UNL     1      -8.284  13.456  24.543  0.00  0.00    +0.000 HD
ATOM     27  H   UNL     1      -6.970  14.102  25.469  0.00  0.00    +0.000 HD
ENDBRANCH  22  24
ENDBRANCH   1  22
BRANCH   5  28
ATOM     28  C   UNL     1      -1.678  16.212  23.450  0.00  0.00    +0.000 C 
BRANCH  28  29
ATOM     29  C   UNL     1      -0.926  15.907  24.714  0.00  0.00    +0.000 C 
ATOM     30  C   UNL     1      -0.152  16.930  25.509  0.00  0.00    +0.000 C 
ATOM     31  C   UNL     1      -1.476  16.437  26.019  0.00  0.00    +0.000 C 
ENDBRANCH  28  29
ENDBRANCH   5  28
TORSDOF 6
ENDMDL
MODEL 4
REMARK VINA RESULT:      -5.7      4.840      6.490
REMARK  Name = 
REMARK  6 active torsions:
REMARK  status: ('A' for Active; 'I' for Inactive)
REMARK    1  A    between atoms: C_2  and  C_4
REMARK    2  A    between atoms: C_4  and  C_5
REMARK    3  A    between atoms: C_7  and  C_8
REMARK    4  A    between atoms: C_15  and  C_16
REMARK    5  A    between atoms: N_23  and  C_24
REMARK    6  A    between atoms: C_24  and  C_25
REMARK                            x       y       z     vdW  Elec       q    Type
REMARK                         _______ _______ _______ _____ _____    ______ ____
ROOT
ATOM      1  C   UNL     1      -3.203  10.756  16.213  0.00  0.00    +0.000 C 
ATOM      2  C   UNL     1      -2.229   9.929  17.047  0.00  0.00    +0.000 C 
ATOM      3  C   UNL     1      -1.556  10.813  18.093  0.00  0.00    +0.000 C 
ATOM      4  C   UNL     1      -2.655  11.342  19.057  0.00  0.00    +0.000 C 
ATOM      5  N   UNL     1      -3.793  11.975  18.346  0.00  0.00    +0.000 N 
ATOM      6  C   UNL     1      -4.099  11.702  17.018  0.00  0.00    +0.000 C 
ATOM      7  O   UNL     1      -5.058  12.235  16.452  0.00  0.00    +0.000 OA
ENDROOT
BRANCH   3   8
ATOM      8  C   UNL     1      -0.415  10.076  18.787  0.00  0.00    +0.000 A 
ATOM      9  C   UNL     1      -0.477   9.853  20.171  0.00  0.00    +0.000 A 
ATOM     10  C   UNL     1       0.530   9.146  20.834  0.00  0.00    +0.000 A 
ATOM     11  C   UNL     1       1.619   8.653  20.121  0.00  0.00    +0.000 A 
ATOM     12  C   UNL     1       1.702   8.881  18.750  0.00  0.00    +0.000 A 
ATOM     13 CL   UNL     1       3.047   8.269  17.868  0.00  0.00    +0.000 Cl
ATOM     14  C   UNL     1       0.702   9.592  18.082  0.00  0.00    +0.000 A 
ENDBRANCH   3   8
BRANCH   4  15
ATOM     15  C   UNL     1      -2.046  12.285  20.091  0.00  0.00    +0.000 A 
ATOM     16  C   UNL     1      -1.205  13.338  19.694  0.00  0.00    +0.000 A 
ATOM     17  C   UNL     1      -0.648  14.198  20.639  0.00  0.00    +0.000 A 
ATOM     18  C   UNL     1      -0.930  14.010  21.989  0.00  0.00    +0.000 A 
ATOM     19 CL   UNL     1      -0.244  15.074  23.156  0.00  0.00    +0.000 Cl
ATOM     20  C   UNL     1      -1.763  12.975  22.403  0.00  0.00    +0.000 A 
ATOM     21  C   UNL     1      -2.321  12.112  21.458  0.00  0.00    +0.000 A 
ENDBRANCH   4  15
BRANCH   1  22
ATOM     22  C   UNL     1      -4.117   9.838  15.381  0.00  0.00    +0.000 C 
BRANCH  22  24
ATOM     23  N   UNL     1      -4.829   9.714  13.062  0.00  0.00    +0.000 N 
ATOM     24  C   UNL     1      -3.772   9.817  13.912  0.00  0.00    +0.000 C 
ATOM     25  O   UNL     1      -2.624   9.909  13.493  0.00  0.00    +0.000 OA
ATOM     26  H   UNL     1      -4.610   9.615  12.079  0.00  0.00    +0.000 HD
ATOM     27  H   UNL     1      -5.737   9.400  13.377  0.00  0.00    +0.000 HD
ENDBRANCH  22  24
ENDBRANCH   1  22
BRANCH   5  28
ATOM     28  C   UNL     1      -4.900  12.511  19.159  0.00  0.00    +0.000 C 
BRANCH  28  29
ATOM     29  C   UNL     1      -5.831  11.475  19.723  0.00  0.00    +0.000 C 
ATOM     30  C   UNL     1      -6.849  11.747  20.803  0.00  0.00    +0.000 C 
ATOM     31  C   UNL     1      -7.301  11.573  19.382  0.00  0.00    +0.000 C 
ENDBRANCH  28  29
ENDBRANCH   5  28
TORSDOF 6
ENDMDL
MODEL 5
REMARK VINA RESULT:      -5.6      1.457      1.903
REMARK  Name = 
REMARK  6 active torsions:
REMARK  status: ('A' for Active; 'I' for Inactive)
REMARK    1  A    between atoms: C_2  and  C_4
REMARK    2  A    between atoms: C_4  and  C_5
REMARK    3  A    between atoms: C_7  and  C_8
REMARK    4  A    between atoms: C_15  and  C_16
REMARK    5  A    between atoms: N_23  and  C_24
REMARK    6  A    between atoms: C_24  and  C_25
REMARK                            x       y       z     vdW  Elec       q    Type
REMARK                         _______ _______ _______ _____ _____    ______ ____
ROOT
ATOM      1  C   UNL     1      -3.168  13.052  23.059  0.00  0.00    +0.000 C 
ATOM      2  C   UNL     1      -2.184  11.905  22.850  0.00  0.00    +0.000 C 
ATOM      3  C   UNL     1      -1.217  12.245  21.720  0.00  0.00    +0.000 C 
ATOM      4  C   UNL     1      -0.391  13.490  22.152  0.00  0.00    +0.000 C 
ATOM      5  N   UNL     1      -1.238  14.619  22.608  0.00  0.00    +0.000 N 
ATOM      6  C   UNL     1      -2.538  14.448  23.068  0.00  0.00    +0.000 C 
ATOM      7  O   UNL     1      -3.221  15.404  23.450  0.00  0.00    +0.000 OA
ENDROOT
BRANCH   3   8
ATOM      8  C   UNL     1      -0.373  11.036  21.332  0.00  0.00    +0.000 A 
ATOM      9  C   UNL     1       0.070  10.154  22.330  0.00  0.00    +0.000 A 
ATOM     10  C   UNL     1       0.811   9.013  22.008  0.00  0.00    +0.000 A 
ATOM     11  C   UNL     1       1.122   8.737  20.680  0.00  0.00    +0.000 A 
ATOM     12  C   UNL     1       0.703   9.612  19.681  0.00  0.00    +0.000 A 
ATOM     13 CL   UNL     1       1.086   9.271  18.039  0.00  0.00    +0.000 Cl
ATOM     14  C   UNL     1      -0.032  10.758  19.996  0.00  0.00    +0.000 A 
ENDBRANCH   3   8
BRANCH   4  15
ATOM     15  C   UNL     1       0.554  13.915  21.032  0.00  0.00    +0.000 A 
ATOM     16  C   UNL     1       1.947  13.879  21.216  0.00  0.00    +0.000 A 
ATOM     17  C   UNL     1       2.810  14.267  20.193  0.00  0.00    +0.000 A 
ATOM     18  C   UNL     1       2.284  14.694  18.976  0.00  0.00    +0.000 A 
ATOM     19 CL   UNL     1       3.350  15.171  17.711  0.00  0.00    +0.000 Cl
ATOM     20  C   UNL     1       0.907  14.733  18.772  0.00  0.00    +0.000 A 
ATOM     21  C   UNL     1       0.042  14.346  19.796  0.00  0.00    +0.000 A 
ENDBRANCH   4  15
BRANCH   1  22
ATOM     22  C   UNL     1      -3.935  12.873  24.383  0.00  0.00    +0.000 C 
BRANCH  22  24
ATOM     23  N   UNL     1      -6.062  11.728  24.635  0.00  0.00    +0.000 N 
ATOM     24  C   UNL     1      -5.434  12.859  24.213  0.00  0.00    +0.000 C 
ATOM     25  O   UNL     1      -6.064  13.803  23.749  0.00  0.00    +0.000 OA
ATOM     26  H   UNL     1      -7.055  11.669  24.451  0.00  0.00    +0.000 HD
ATOM     27  H   UNL     1      -5.558  10.865  24.789  0.00  0.00    +0.000 HD
ENDBRANCH  22  24
ENDBRANCH   1  22
BRANCH   5  28
ATOM     28  C   UNL     1      -0.563  15.854  23.047  0.00  0.00    +0.000 C 
BRANCH  28  29
ATOM     29  C   UNL     1      -0.641  16.997  22.075  0.00  0.00    +0.000 C 
ATOM     30  C   UNL     1      -0.524  18.450  22.463  0.00  0.00    +0.000 C 
ATOM     31  C   UNL     1       0.625  17.769  21.778  0.00  0.00    +0.000 C 
ENDBRANCH  28  29
ENDBRANCH   5  28
TORSDOF 6
ENDMDL
MODEL 6
REMARK VINA RESULT:      -5.5      3.820      5.985
REMARK  Name = 
REMARK  6 active torsions:
REMARK  status: ('A' for Active; 'I' for Inactive)
REMARK    1  A    between atoms: C_2  and  C_4
REMARK    2  A    between atoms: C_4  and  C_5
REMARK    3  A    between atoms: C_7  and  C_8
REMARK    4  A    between atoms: C_15  and  C_16
REMARK    5  A    between atoms: N_23  and  C_24
REMARK    6  A    between atoms: C_24  and  C_25
REMARK                            x       y       z     vdW  Elec       q    Type
REMARK                         _______ _______ _______ _____ _____    ______ ____
ROOT
ATOM      1  C   UNL     1      -0.638  11.707  20.346  0.00  0.00    +0.000 C 
ATOM      2  C   UNL     1      -2.081  11.819  20.828  0.00  0.00    +0.000 C 
ATOM      3  C   UNL     1      -2.168  12.800  21.993  0.00  0.00    +0.000 C 
ATOM      4  C   UNL     1      -1.744  14.204  21.473  0.00  0.00    +0.000 C 
ATOM      5  N   UNL     1      -0.441  14.190  20.766  0.00  0.00    +0.000 N 
ATOM      6  C   UNL     1       0.098  13.042  20.197  0.00  0.00    +0.000 C 
ATOM      7  O   UNL     1       1.181  13.059  19.606  0.00  0.00    +0.000 OA
ENDROOT
BRANCH   3   8
ATOM      8  C   UNL     1      -3.545  12.763  22.646  0.00  0.00    +0.000 A 
ATOM      9  C   UNL     1      -3.654  12.465  24.013  0.00  0.00    +0.000 A 
ATOM     10  C   UNL     1      -4.895  12.461  24.655  0.00  0.00    +0.000 A 
ATOM     11  C   UNL     1      -6.051  12.754  23.936  0.00  0.00    +0.000 A 
ATOM     12  C   UNL     1      -5.960  13.035  22.575  0.00  0.00    +0.000 A 
ATOM     13 CL   UNL     1      -7.388  13.399  21.687  0.00  0.00    +0.000 Cl
ATOM     14  C   UNL     1      -4.723  13.034  21.926  0.00  0.00    +0.000 A 
ENDBRANCH   3   8
BRANCH   4  15
ATOM     15  C   UNL     1      -1.753  15.217  22.614  0.00  0.00    +0.000 A 
ATOM     16  C   UNL     1      -0.905  15.057  23.723  0.00  0.00    +0.000 A 
ATOM     17  C   UNL     1      -0.914  15.982  24.765  0.00  0.00    +0.000 A 
ATOM     18  C   UNL     1      -1.771  17.077  24.704  0.00  0.00    +0.000 A 
ATOM     19 CL   UNL     1      -1.781  18.221  25.990  0.00  0.00    +0.000 Cl
ATOM     20  C   UNL     1      -2.617  17.257  23.612  0.00  0.00    +0.000 A 
ATOM     21  C   UNL     1      -2.610  16.330  22.568  0.00  0.00    +0.000 A 
ENDBRANCH   4  15
BRANCH   1  22
ATOM     22  C   UNL     1      -0.576  10.983  18.988  0.00  0.00    +0.000 C 
BRANCH  22  24
ATOM     23  N   UNL     1      -1.164  12.672  17.345  0.00  0.00    +0.000 N 
ATOM     24  C   UNL     1      -1.549  11.527  17.971  0.00  0.00    +0.000 C 
ATOM     25  O   UNL     1      -2.610  10.977  17.698  0.00  0.00    +0.000 OA
ATOM     26  H   UNL     1      -1.840  13.095  16.722  0.00  0.00    +0.000 HD
ATOM     27  H   UNL     1      -0.431  13.261  17.715  0.00  0.00    +0.000 HD
ENDBRANCH  22  24
ENDBRANCH   1  22
BRANCH   5  28
ATOM     28  C   UNL     1       0.062  15.466  20.224  0.00  0.00    +0.000 C 
BRANCH  28  29
ATOM     29  C   UNL     1      -0.755  16.044  19.104  0.00  0.00    +0.000 C 
ATOM     30  C   UNL     1      -1.435  17.390  19.158  0.00  0.00    +0.000 C 
ATOM     31  C   UNL     1      -0.189  17.219  18.338  0.00  0.00    +0.000 C 
ENDBRANCH  28  29
ENDBRANCH   5  28
TORSDOF 6
ENDMDL
MODEL 7
REMARK VINA RESULT:      -5.5      4.714      6.953
REMARK  Name = 
REMARK  6 active torsions:
REMARK  status: ('A' for Active; 'I' for Inactive)
REMARK    1  A    between atoms: C_2  and  C_4
REMARK    2  A    between atoms: C_4  and  C_5
REMARK    3  A    between atoms: C_7  and  C_8
REMARK    4  A    between atoms: C_15  and  C_16
REMARK    5  A    between atoms: N_23  and  C_24
REMARK    6  A    between atoms: C_24  and  C_25
REMARK                            x       y       z     vdW  Elec       q    Type
REMARK                         _______ _______ _______ _____ _____    ______ ____
ROOT
ATOM      1  C   UNL     1      -2.955  10.090  18.322  0.00  0.00    +0.000 C 
ATOM      2  C   UNL     1      -4.141  11.050  18.345  0.00  0.00    +0.000 C 
ATOM      3  C   UNL     1      -4.218  11.752  19.697  0.00  0.00    +0.000 C 
ATOM      4  C   UNL     1      -2.929  12.605  19.872  0.00  0.00    +0.000 C 
ATOM      5  N   UNL     1      -1.685  11.830  19.642  0.00  0.00    +0.000 N 
ATOM      6  C   UNL     1      -1.653  10.659  18.895  0.00  0.00    +0.000 C 
ATOM      7  O   UNL     1      -0.603  10.037  18.711  0.00  0.00    +0.000 OA
ENDROOT
BRANCH   3   8
ATOM      8  C   UNL     1      -5.516  12.540  19.837  0.00  0.00    +0.000 A 
ATOM      9  C   UNL     1      -6.322  12.349  20.970  0.00  0.00    +0.000 A 
ATOM     10  C   UNL     1      -7.497  13.082  21.152  0.00  0.00    +0.000 A 
ATOM     11  C   UNL     1      -7.887  14.020  20.201  0.00  0.00    +0.000 A 
ATOM     12  C   UNL     1      -7.106  14.209  19.063  0.00  0.00    +0.000 A 
ATOM     13 CL   UNL     1      -7.587  15.369  17.887  0.00  0.00    +0.000 Cl
ATOM     14  C   UNL     1      -5.933  13.474  18.871  0.00  0.00    +0.000 A 
ENDBRANCH   3   8
BRANCH   4  15
ATOM     15  C   UNL     1      -2.923  13.285  21.238  0.00  0.00    +0.000 A 
ATOM     16  C   UNL     1      -2.945  14.686  21.343  0.00  0.00    +0.000 A 
ATOM     17  C   UNL     1      -2.939  15.306  22.591  0.00  0.00    +0.000 A 
ATOM     18  C   UNL     1      -2.912  14.527  23.744  0.00  0.00    +0.000 A 
ATOM     19 CL   UNL     1      -2.907  15.293  25.286  0.00  0.00    +0.000 Cl
ATOM     20  C   UNL     1      -2.893  13.137  23.663  0.00  0.00    +0.000 A 
ATOM     21  C   UNL     1      -2.898  12.515  22.414  0.00  0.00    +0.000 A 
ENDBRANCH   4  15
BRANCH   1  22
ATOM     22  C   UNL     1      -2.669   9.618  16.884  0.00  0.00    +0.000 C 
BRANCH  22  24
ATOM     23  N   UNL     1      -2.003  11.811  16.079  0.00  0.00    +0.000 N 
ATOM     24  C   UNL     1      -2.782  10.718  15.857  0.00  0.00    +0.000 C 
ATOM     25  O   UNL     1      -3.505  10.640  14.870  0.00  0.00    +0.000 OA
ATOM     26  H   UNL     1      -2.129  12.591  15.446  0.00  0.00    +0.000 HD
ATOM     27  H   UNL     1      -1.596  12.000  16.985  0.00  0.00    +0.000 HD
ENDBRANCH  22  24
ENDBRANCH   1  22
BRANCH   5  28
ATOM     28  C   UNL     1      -0.399  12.537  19.776  0.00  0.00    +0.000 C 
BRANCH  28  29
ATOM     29  C   UNL     1      -0.106  13.530  18.687  0.00  0.00    +0.000 C 
ATOM     30  C   UNL     1      -0.148  15.028  18.870  0.00  0.00    +0.000 C 
ATOM     31  C   UNL     1       1.177  14.327  18.772  0.00  0.00    +0.000 C 
ENDBRANCH  28  29
ENDBRANCH   5  28
TORSDOF 6
ENDMDL
MODEL 8
REMARK VINA RESULT:      -5.5      5.045      7.204
REMARK  Name = 
REMARK  6 active torsions:
REMARK  status: ('A' for Active; 'I' for Inactive)
REMARK    1  A    between atoms: C_2  and  C_4
REMARK    2  A    between atoms: C_4  and  C_5
REMARK    3  A    between atoms: C_7  and  C_8
REMARK    4  A    between atoms: C_15  and  C_16
REMARK    5  A    between atoms: N_23  and  C_24
REMARK    6  A    between atoms: C_24  and  C_25
REMARK                            x       y       z     vdW  Elec       q    Type
REMARK                         _______ _______ _______ _____ _____    ______ ____
ROOT
ATOM      1  C   UNL     1      -2.934   9.991  17.907  0.00  0.00    +0.000 C 
ATOM      2  C   UNL     1      -4.099  10.975  17.855  0.00  0.00    +0.000 C 
ATOM      3  C   UNL     1      -4.268  11.657  19.210  0.00  0.00    +0.000 C 
ATOM      4  C   UNL     1      -2.980  12.480  19.499  0.00  0.00    +0.000 C 
ATOM      5  N   UNL     1      -1.738  11.683  19.353  0.00  0.00    +0.000 N 
ATOM      6  C   UNL     1      -1.670  10.523  18.590  0.00  0.00    +0.000 C 
ATOM      7  O   UNL     1      -0.621   9.882  18.477  0.00  0.00    +0.000 OA
ENDROOT
BRANCH   3   8
ATOM      8  C   UNL     1      -5.557  12.470  19.263  0.00  0.00    +0.000 A 
ATOM      9  C   UNL     1      -6.357  12.422  20.414  0.00  0.00    +0.000 A 
ATOM     10  C   UNL     1      -7.524  13.185  20.515  0.00  0.00    +0.000 A 
ATOM     11  C   UNL     1      -7.910  14.007  19.461  0.00  0.00    +0.000 A 
ATOM     12  C   UNL     1      -7.135  14.052  18.305  0.00  0.00    +0.000 A 
ATOM     13 CL   UNL     1      -7.612  15.070  17.002  0.00  0.00    +0.000 Cl
ATOM     14  C   UNL     1      -5.970  13.287  18.195  0.00  0.00    +0.000 A 
ENDBRANCH   3   8
BRANCH   4  15
ATOM     15  C   UNL     1      -3.067  13.137  20.874  0.00  0.00    +0.000 A 
ATOM     16  C   UNL     1      -3.061  12.357  22.043  0.00  0.00    +0.000 A 
ATOM     17  C   UNL     1      -3.142  12.958  23.298  0.00  0.00    +0.000 A 
ATOM     18  C   UNL     1      -3.227  14.344  23.392  0.00  0.00    +0.000 A 
ATOM     19 CL   UNL     1      -3.324  15.085  24.943  0.00  0.00    +0.000 Cl
ATOM     20  C   UNL     1      -3.231  15.135  22.246  0.00  0.00    +0.000 A 
ATOM     21  C   UNL     1      -3.151  14.535  20.988  0.00  0.00    +0.000 A 
ENDBRANCH   4  15
BRANCH   1  22
ATOM     22  C   UNL     1      -2.546   9.537  16.488  0.00  0.00    +0.000 C 
BRANCH  22  24
ATOM     23  N   UNL     1      -4.087   9.882  14.642  0.00  0.00    +0.000 N 
ATOM     24  C   UNL     1      -3.097  10.426  15.400  0.00  0.00    +0.000 C 
ATOM     25  O   UNL     1      -2.707  11.573  15.211  0.00  0.00    +0.000 OA
ATOM     26  H   UNL     1      -4.409  10.433  13.857  0.00  0.00    +0.000 HD
ATOM     27  H   UNL     1      -4.252   8.884  14.618  0.00  0.00    +0.000 HD
ENDBRANCH  22  24
ENDBRANCH   1  22
BRANCH   5  28
ATOM     28  C   UNL     1      -0.452  12.360  19.599  0.00  0.00    +0.000 C 
BRANCH  28  29
ATOM     29  C   UNL     1      -0.093  13.420  18.597  0.00  0.00    +0.000 C 
ATOM     30  C   UNL     1       0.364  14.812  18.960  0.00  0.00    +0.000 C 
ATOM     31  C   UNL     1       1.362  13.808  18.457  0.00  0.00    +0.000 C 
ENDBRANCH  28  29
ENDBRANCH   5  28
TORSDOF 6
ENDMDL
MODEL 9
REMARK VINA RESULT:      -5.4      3.970      6.280
REMARK  Name = 
REMARK  6 active torsions:
REMARK  status: ('A' for Active; 'I' for Inactive)
REMARK    1  A    between atoms: C_2  and  C_4
REMARK    2  A    between atoms: C_4  and  C_5
REMARK    3  A    between atoms: C_7  and  C_8
REMARK    4  A    between atoms: C_15  and  C_16
REMARK    5  A    between atoms: N_23  and  C_24
REMARK    6  A    between atoms: C_24  and  C_25
REMARK                            x       y       z     vdW  Elec       q    Type
REMARK                         _______ _______ _______ _____ _____    ______ ____
ROOT
ATOM      1  C   UNL     1      -0.356  11.808  20.216  0.00  0.00    +0.000 C 
ATOM      2  C   UNL     1      -1.802  11.887  20.698  0.00  0.00    +0.000 C 
ATOM      3  C   UNL     1      -1.918  12.891  21.841  0.00  0.00    +0.000 C 
ATOM      4  C   UNL     1      -1.537  14.295  21.290  0.00  0.00    +0.000 C 
ATOM      5  N   UNL     1      -0.235  14.305  20.581  0.00  0.00    +0.000 N 
ATOM      6  C   UNL     1       0.338  13.162  20.037  0.00  0.00    +0.000 C 
ATOM      7  O   UNL     1       1.421  13.199  19.444  0.00  0.00    +0.000 OA
ENDROOT
BRANCH   3   8
ATOM      8  C   UNL     1      -3.293  12.825  22.496  0.00  0.00    +0.000 A 
ATOM      9  C   UNL     1      -3.393  12.534  23.865  0.00  0.00    +0.000 A 
ATOM     10  C   UNL     1      -4.633  12.506  24.509  0.00  0.00    +0.000 A 
ATOM     11  C   UNL     1      -5.796  12.767  23.791  0.00  0.00    +0.000 A 
ATOM     12  C   UNL     1      -5.714  13.042  22.428  0.00  0.00    +0.000 A 
ATOM     13 CL   UNL     1      -7.151  13.366  21.539  0.00  0.00    +0.000 Cl
ATOM     14  C   UNL     1      -4.477  13.065  21.776  0.00  0.00    +0.000 A 
ENDBRANCH   3   8
BRANCH   4  15
ATOM     15  C   UNL     1      -1.576  15.332  22.408  0.00  0.00    +0.000 A 
ATOM     16  C   UNL     1      -0.731  15.216  23.524  0.00  0.00    +0.000 A 
ATOM     17  C   UNL     1      -0.768  16.164  24.545  0.00  0.00    +0.000 A 
ATOM     18  C   UNL     1      -1.651  17.236  24.456  0.00  0.00    +0.000 A 
ATOM     19 CL   UNL     1      -1.694  18.408  25.716  0.00  0.00    +0.000 Cl
ATOM     20  C   UNL     1      -2.494  17.372  23.357  0.00  0.00    +0.000 A 
ATOM     21  C   UNL     1      -2.460  16.423  22.333  0.00  0.00    +0.000 A 
ENDBRANCH   4  15
BRANCH   1  22
ATOM     22  C   UNL     1      -0.273  11.057  18.874  0.00  0.00    +0.000 C 
BRANCH  22  24
ATOM     23  N   UNL     1       1.804  10.433  17.782  0.00  0.00    +0.000 N 
ATOM     24  C   UNL     1       0.919  10.138  18.772  0.00  0.00    +0.000 C 
ATOM     25  O   UNL     1       1.108   9.198  19.536  0.00  0.00    +0.000 OA
ATOM     26  H   UNL     1       2.565   9.779  17.646  0.00  0.00    +0.000 HD
ATOM     27  H   UNL     1       1.557  11.035  17.008  0.00  0.00    +0.000 HD
ENDBRANCH  22  24
ENDBRANCH   1  22
BRANCH   5  28
ATOM     28  C   UNL     1       0.229  15.583  20.010  0.00  0.00    +0.000 C 
BRANCH  28  29
ATOM     29  C   UNL     1      -0.594  16.101  18.865  0.00  0.00    +0.000 C 
ATOM     30  C   UNL     1      -1.335  17.415  18.878  0.00  0.00    +0.000 C 
ATOM     31  C   UNL     1      -0.068  17.284  18.084  0.00  0.00    +0.000 C 
ENDBRANCH  28  29
ENDBRANCH   5  28
TORSDOF 6
ENDMDL
