MODEL 1
REMARK VINA RESULT:      -6.5      0.000      0.000
REMARK  Name = 
REMARK  6 active torsions:
REMARK  status: ('A' for Active; 'I' for Inactive)
REMARK    1  A    between atoms: C_1  and  O_2
REMARK    2  A    between atoms: O_2  and  C_3
REMARK    3  A    between atoms: C_12  and  C_14
REMARK    4  A    between atoms: C_14  and  C_15
REMARK    5  A    between atoms: C_15  and  C_16
REMARK    6  A    between atoms: C_20  and  C_21
REMARK                            x       y       z     vdW  Elec       q    Type
REMARK                         _______ _______ _______ _____ _____    ______ ____
ROOT
ATOM      1  C   UNL     1      -1.102  11.325  19.133  0.00  0.00    +0.000 C 
ATOM      2  C   UNL     1      -0.991  12.530  18.193  0.00  0.00    +0.000 C 
ATOM      3  C   UNL     1       0.216  13.423  18.472  0.00  0.00    +0.000 C 
ATOM      4  C   UNL     1       1.481  12.666  18.861  0.00  0.00    +0.000 C 
ATOM      5  O   UNL     1       1.247  11.592  19.771  0.00  0.00    +0.000 OA
ATOM      6  C   UNL     1       0.272  10.625  19.334  0.00  0.00    +0.000 C 
ATOM      7  C   UNL     1       0.735   9.935  18.027  0.00  0.00    +0.000 C 
ATOM      8  C   UNL     1       2.051   9.197  18.238  0.00  0.00    +0.000 C 
ATOM      9  N   UNL     1       1.888   8.184  19.273  0.00  0.00    +0.000 N 
ATOM     10  C   UNL     1       2.396   6.911  19.028  0.00  0.00    +0.000 C 
ATOM     11  O   UNL     1       2.916   6.618  17.954  0.00  0.00    +0.000 OA
ATOM     12  C   UNL     1       1.437   8.705  20.566  0.00  0.00    +0.000 C 
ATOM     13  C   UNL     1       0.164   9.540  20.430  0.00  0.00    +0.000 C 
ENDROOT
BRANCH   1  15
ATOM     14  C   UNL     1      -2.907  12.517  20.287  0.00  0.00    +0.000 C 
ATOM     15  O   UNL     1      -1.811  11.619  20.348  0.00  0.00    +0.000 OA
ENDBRANCH   1  15
BRANCH  10  16
ATOM     16  C   UNL     1       2.212   5.856  20.103  0.00  0.00    +0.000 C 
BRANCH  16  17
ATOM     17  C   UNL     1       1.365   4.697  19.578  0.00  0.00    +0.000 C 
BRANCH  17  18
ATOM     18  C   UNL     1       2.217   3.527  19.193  0.00  0.00    +0.000 A 
ATOM     19  S   UNL     1       2.551   3.192  17.540  0.00  0.00    +0.000 S 
ATOM     20  C   UNL     1       3.485   1.843  18.016  0.00  0.00    +0.000 A 
ATOM     21  N   UNL     1       3.570   1.625  19.311  0.00  0.00    +0.000 NA
ATOM     22  C   UNL     1       2.835   2.583  19.997  0.00  0.00    +0.000 A 
ATOM     23  C   UNL     1       2.792   2.505  21.481  0.00  0.00    +0.000 C 
ENDBRANCH  17  18
ENDBRANCH  16  17
ENDBRANCH  10  16
TORSDOF 4
ENDMDL
MODEL 2
REMARK VINA RESULT:      -6.5      2.873      3.867
REMARK  Name = 
REMARK  6 active torsions:
REMARK  status: ('A' for Active; 'I' for Inactive)
REMARK    1  A    between atoms: C_1  and  O_2
REMARK    2  A    between atoms: O_2  and  C_3
REMARK    3  A    between atoms: C_12  and  C_14
REMARK    4  A    between atoms: C_14  and  C_15
REMARK    5  A    between atoms: C_15  and  C_16
REMARK    6  A    between atoms: C_20  and  C_21
REMARK                            x       y       z     vdW  Elec       q    Type
REMARK                         _______ _______ _______ _____ _____    ______ ____
ROOT
ATOM      1  C   UNL     1       1.246  12.442  19.839  0.00  0.00    +0.000 C 
ATOM      2  C   UNL     1       0.215  12.912  20.870  0.00  0.00    +0.000 C 
ATOM      3  C   UNL     1      -1.225  12.547  20.515  0.00  0.00    +0.000 C 
ATOM      4  C   UNL     1      -1.386  11.172  19.879  0.00  0.00    +0.000 C 
ATOM      5  O   UNL     1      -0.385  10.870  18.908  0.00  0.00    +0.000 OA
ATOM      6  C   UNL     1       0.973  10.982  19.378  0.00  0.00    +0.000 C 
ATOM      7  C   UNL     1       1.235   9.982  20.531  0.00  0.00    +0.000 C 
ATOM      8  C   UNL     1       1.027   8.547  20.065  0.00  0.00    +0.000 C 
ATOM      9  N   UNL     1       1.937   8.248  18.966  0.00  0.00    +0.000 N 
ATOM     10  C   UNL     1       2.643   7.048  19.009  0.00  0.00    +0.000 C 
ATOM     11  O   UNL     1       2.556   6.280  19.965  0.00  0.00    +0.000 OA
ATOM     12  C   UNL     1       1.802   9.135  17.808  0.00  0.00    +0.000 C 
ATOM     13  C   UNL     1       1.907  10.608  18.204  0.00  0.00    +0.000 C 
ENDROOT
BRANCH   1  15
ATOM     14  C   UNL     1       2.584  14.228  18.825  0.00  0.00    +0.000 C 
ATOM     15  O   UNL     1       1.447  13.382  18.771  0.00  0.00    +0.000 OA
ENDBRANCH   1  15
BRANCH  10  16
ATOM     16  C   UNL     1       3.598   6.748  17.870  0.00  0.00    +0.000 C 
BRANCH  16  17
ATOM     17  C   UNL     1       4.673   5.757  18.318  0.00  0.00    +0.000 C 
BRANCH  17  18
ATOM     18  C   UNL     1       5.654   5.480  17.221  0.00  0.00    +0.000 A 
ATOM     19  S   UNL     1       5.433   4.143  16.164  0.00  0.00    +0.000 S 
ATOM     20  C   UNL     1       6.864   4.577  15.338  0.00  0.00    +0.000 A 
ATOM     21  N   UNL     1       7.492   5.643  15.785  0.00  0.00    +0.000 NA
ATOM     22  C   UNL     1       6.808   6.165  16.876  0.00  0.00    +0.000 A 
ATOM     23  C   UNL     1       7.365   7.373  17.540  0.00  0.00    +0.000 C 
ENDBRANCH  17  18
ENDBRANCH  16  17
ENDBRANCH  10  16
TORSDOF 4
ENDMDL
MODEL 3
REMARK VINA RESULT:      -6.5      5.749      7.859
REMARK  Name = 
REMARK  6 active torsions:
REMARK  status: ('A' for Active; 'I' for Inactive)
REMARK    1  A    between atoms: C_1  and  O_2
REMARK    2  A    between atoms: O_2  and  C_3
REMARK    3  A    between atoms: C_12  and  C_14
REMARK    4  A    between atoms: C_14  and  C_15
REMARK    5  A    between atoms: C_15  and  C_16
REMARK    6  A    between atoms: C_20  and  C_21
REMARK                            x       y       z     vdW  Elec       q    Type
REMARK                         _______ _______ _______ _____ _____    ______ ____
ROOT
ATOM      1  C   UNL     1       1.661   4.183  18.970  0.00  0.00    +0.000 C 
ATOM      2  C   UNL     1       1.059   4.323  20.372  0.00  0.00    +0.000 C 
ATOM      3  C   UNL     1       1.544   3.265  21.362  0.00  0.00    +0.000 C 
ATOM      4  C   UNL     1       3.017   2.901  21.220  0.00  0.00    +0.000 C 
ATOM      5  O   UNL     1       3.443   2.763  19.866  0.00  0.00    +0.000 OA
ATOM      6  C   UNL     1       3.191   3.907  19.027  0.00  0.00    +0.000 C 
ATOM      7  C   UNL     1       3.955   5.148  19.552  0.00  0.00    +0.000 C 
ATOM      8  C   UNL     1       5.458   4.902  19.551  0.00  0.00    +0.000 C 
ATOM      9  N   UNL     1       5.910   4.609  18.197  0.00  0.00    +0.000 N 
ATOM     10  C   UNL     1       7.051   5.258  17.732  0.00  0.00    +0.000 C 
ATOM     11  O   UNL     1       7.638   6.099  18.411  0.00  0.00    +0.000 OA
ATOM     12  C   UNL     1       5.251   3.458  17.573  0.00  0.00    +0.000 C 
ATOM     13  C   UNL     1       3.728   3.582  17.614  0.00  0.00    +0.000 C 
ENDROOT
BRANCH   1  15
ATOM     14  C   UNL     1       0.493   2.050  18.660  0.00  0.00    +0.000 C 
ATOM     15  O   UNL     1       0.920   3.291  18.122  0.00  0.00    +0.000 OA
ENDBRANCH   1  15
BRANCH  10  16
ATOM     16  C   UNL     1       7.509   4.960  16.318  0.00  0.00    +0.000 C 
BRANCH  16  17
ATOM     17  C   UNL     1       6.538   5.563  15.301  0.00  0.00    +0.000 C 
BRANCH  17  18
ATOM     18  C   UNL     1       6.561   4.808  14.008  0.00  0.00    +0.000 A 
ATOM     19  S   UNL     1       5.396   3.586  13.685  0.00  0.00    +0.000 S 
ATOM     20  C   UNL     1       6.119   3.318  12.161  0.00  0.00    +0.000 A 
ATOM     21  N   UNL     1       7.159   4.070  11.872  0.00  0.00    +0.000 NA
ATOM     22  C   UNL     1       7.428   4.925  12.934  0.00  0.00    +0.000 A 
ATOM     23  C   UNL     1       8.582   5.855  12.811  0.00  0.00    +0.000 C 
ENDBRANCH  17  18
ENDBRANCH  16  17
ENDBRANCH  10  16
TORSDOF 4
ENDMDL
MODEL 4
REMARK VINA RESULT:      -6.4      1.151      1.506
REMARK  Name = 
REMARK  6 active torsions:
REMARK  status: ('A' for Active; 'I' for Inactive)
REMARK    1  A    between atoms: C_1  and  O_2
REMARK    2  A    between atoms: O_2  and  C_3
REMARK    3  A    between atoms: C_12  and  C_14
REMARK    4  A    between atoms: C_14  and  C_15
REMARK    5  A    between atoms: C_15  and  C_16
REMARK    6  A    between atoms: C_20  and  C_21
REMARK                            x       y       z     vdW  Elec       q    Type
REMARK                         _______ _______ _______ _____ _____    ______ ____
ROOT
ATOM      1  C   UNL     1      -1.355  11.421  18.987  0.00  0.00    +0.000 C 
ATOM      2  C   UNL     1      -1.252  12.604  18.019  0.00  0.00    +0.000 C 
ATOM      3  C   UNL     1      -0.119  13.574  18.347  0.00  0.00    +0.000 C 
ATOM      4  C   UNL     1       1.158  12.906  18.840  0.00  0.00    +0.000 C 
ATOM      5  O   UNL     1       0.928  11.845  19.765  0.00  0.00    +0.000 OA
ATOM      6  C   UNL     1       0.041  10.809  19.297  0.00  0.00    +0.000 C 
ATOM      7  C   UNL     1       0.629  10.113  18.045  0.00  0.00    +0.000 C 
ATOM      8  C   UNL     1       1.968   9.461  18.362  0.00  0.00    +0.000 C 
ATOM      9  N   UNL     1       1.796   8.468  19.416  0.00  0.00    +0.000 N 
ATOM     10  C   UNL     1       2.392   7.222  19.244  0.00  0.00    +0.000 C 
ATOM     11  O   UNL     1       2.998   6.931  18.214  0.00  0.00    +0.000 OA
ATOM     12  C   UNL     1       1.231   8.996  20.660  0.00  0.00    +0.000 C 
ATOM     13  C   UNL     1      -0.076   9.750  20.417  0.00  0.00    +0.000 C 
ENDROOT
BRANCH   1  15
ATOM     14  C   UNL     1      -3.332  12.482  19.974  0.00  0.00    +0.000 C 
ATOM     15  O   UNL     1      -2.158  11.704  20.144  0.00  0.00    +0.000 OA
ENDBRANCH   1  15
BRANCH  10  16
ATOM     16  C   UNL     1       2.199   6.188  20.336  0.00  0.00    +0.000 C 
BRANCH  16  17
ATOM     17  C   UNL     1       3.110   4.983  20.102  0.00  0.00    +0.000 C 
BRANCH  17  18
ATOM     18  C   UNL     1       2.389   3.881  19.389  0.00  0.00    +0.000 A 
ATOM     19  S   UNL     1       1.001   3.146  20.087  0.00  0.00    +0.000 S 
ATOM     20  C   UNL     1       0.871   2.127  18.721  0.00  0.00    +0.000 A 
ATOM     21  N   UNL     1       1.779   2.294  17.784  0.00  0.00    +0.000 NA
ATOM     22  C   UNL     1       2.664   3.296  18.163  0.00  0.00    +0.000 A 
ATOM     23  C   UNL     1       3.781   3.631  17.241  0.00  0.00    +0.000 C 
ENDBRANCH  17  18
ENDBRANCH  16  17
ENDBRANCH  10  16
TORSDOF 4
ENDMDL
MODEL 5
REMARK VINA RESULT:      -6.4      1.583      2.756
REMARK  Name = 
REMARK  6 active torsions:
REMARK  status: ('A' for Active; 'I' for Inactive)
REMARK    1  A    between atoms: C_1  and  O_2
REMARK    2  A    between atoms: O_2  and  C_3
REMARK    3  A    between atoms: C_12  and  C_14
REMARK    4  A    between atoms: C_14  and  C_15
REMARK    5  A    between atoms: C_15  and  C_16
REMARK    6  A    between atoms: C_20  and  C_21
REMARK                            x       y       z     vdW  Elec       q    Type
REMARK                         _______ _______ _______ _____ _____    ______ ____
ROOT
ATOM      1  C   UNL     1       1.581  13.151  19.317  0.00  0.00    +0.000 C 
ATOM      2  C   UNL     1       0.588  14.017  20.099  0.00  0.00    +0.000 C 
ATOM      3  C   UNL     1      -0.863  13.849  19.653  0.00  0.00    +0.000 C 
ATOM      4  C   UNL     1      -1.248  12.420  19.293  0.00  0.00    +0.000 C 
ATOM      5  O   UNL     1      -0.255  11.735  18.531  0.00  0.00    +0.000 OA
ATOM      6  C   UNL     1       1.056  11.699  19.130  0.00  0.00    +0.000 C 
ATOM      7  C   UNL     1       1.017  10.949  20.485  0.00  0.00    +0.000 C 
ATOM      8  C   UNL     1       0.560   9.509  20.296  0.00  0.00    +0.000 C 
ATOM      9  N   UNL     1       1.475   8.814  19.399  0.00  0.00    +0.000 N 
ATOM     10  C   UNL     1       1.916   7.546  19.768  0.00  0.00    +0.000 C 
ATOM     11  O   UNL     1       1.599   7.038  20.841  0.00  0.00    +0.000 OA
ATOM     12  C   UNL     1       1.616   9.432  18.078  0.00  0.00    +0.000 C 
ATOM     13  C   UNL     1       1.986  10.912  18.179  0.00  0.00    +0.000 C 
ENDROOT
BRANCH   1  15
ATOM     14  C   UNL     1       3.256  14.530  18.174  0.00  0.00    +0.000 C 
ATOM     15  O   UNL     1       2.054  13.779  18.114  0.00  0.00    +0.000 OA
ENDBRANCH   1  15
BRANCH  10  16
ATOM     16  C   UNL     1       2.879   6.833  18.838  0.00  0.00    +0.000 C 
BRANCH  16  17
ATOM     17  C   UNL     1       3.492   5.616  19.531  0.00  0.00    +0.000 C 
BRANCH  17  18
ATOM     18  C   UNL     1       3.020   4.337  18.911  0.00  0.00    +0.000 A 
ATOM     19  S   UNL     1       3.859   3.645  17.580  0.00  0.00    +0.000 S 
ATOM     20  C   UNL     1       2.733   2.360  17.556  0.00  0.00    +0.000 A 
ATOM     21  N   UNL     1       1.783   2.404  18.465  0.00  0.00    +0.000 NA
ATOM     22  C   UNL     1       1.933   3.544  19.244  0.00  0.00    +0.000 A 
ATOM     23  C   UNL     1       0.945   3.789  20.328  0.00  0.00    +0.000 C 
ENDBRANCH  17  18
ENDBRANCH  16  17
ENDBRANCH  10  16
TORSDOF 4
ENDMDL
MODEL 6
REMARK VINA RESULT:      -6.3      2.784      3.718
REMARK  Name = 
REMARK  6 active torsions:
REMARK  status: ('A' for Active; 'I' for Inactive)
REMARK    1  A    between atoms: C_1  and  O_2
REMARK    2  A    between atoms: O_2  and  C_3
REMARK    3  A    between atoms: C_12  and  C_14
REMARK    4  A    between atoms: C_14  and  C_15
REMARK    5  A    between atoms: C_15  and  C_16
REMARK    6  A    between atoms: C_20  and  C_21
REMARK                            x       y       z     vdW  Elec       q    Type
REMARK                         _______ _______ _______ _____ _____    ______ ____
ROOT
ATOM      1  C   UNL     1       1.296  12.728  20.018  0.00  0.00    +0.000 C 
ATOM      2  C   UNL     1       0.298  13.183  21.088  0.00  0.00    +0.000 C 
ATOM      3  C   UNL     1      -1.158  12.867  20.749  0.00  0.00    +0.000 C 
ATOM      4  C   UNL     1      -1.366  11.523  20.063  0.00  0.00    +0.000 C 
ATOM      5  O   UNL     1      -0.392  11.236  19.061  0.00  0.00    +0.000 OA
ATOM      6  C   UNL     1       0.977  11.295  19.506  0.00  0.00    +0.000 C 
ATOM      7  C   UNL     1       1.237  10.244  20.614  0.00  0.00    +0.000 C 
ATOM      8  C   UNL     1       0.983   8.834  20.096  0.00  0.00    +0.000 C 
ATOM      9  N   UNL     1       1.864   8.557  18.968  0.00  0.00    +0.000 N 
ATOM     10  C   UNL     1       2.539   7.339  18.949  0.00  0.00    +0.000 C 
ATOM     11  O   UNL     1       2.452   6.536  19.875  0.00  0.00    +0.000 OA
ATOM     12  C   UNL     1       1.729   9.493  17.849  0.00  0.00    +0.000 C 
ATOM     13  C   UNL     1       1.879  10.945  18.300  0.00  0.00    +0.000 C 
ENDROOT
BRANCH   1  15
ATOM     14  C   UNL     1       1.872  15.020  19.365  0.00  0.00    +0.000 C 
ATOM     15  O   UNL     1       1.501  13.705  18.985  0.00  0.00    +0.000 OA
ENDBRANCH   1  15
BRANCH  10  16
ATOM     16  C   UNL     1       3.465   7.061  17.780  0.00  0.00    +0.000 C 
BRANCH  16  17
ATOM     17  C   UNL     1       3.758   5.565  17.672  0.00  0.00    +0.000 C 
BRANCH  17  18
ATOM     18  C   UNL     1       5.228   5.301  17.558  0.00  0.00    +0.000 A 
ATOM     19  S   UNL     1       6.221   5.252  18.959  0.00  0.00    +0.000 S 
ATOM     20  C   UNL     1       7.576   4.928  17.971  0.00  0.00    +0.000 A 
ATOM     21  N   UNL     1       7.346   4.849  16.678  0.00  0.00    +0.000 NA
ATOM     22  C   UNL     1       5.998   5.072  16.428  0.00  0.00    +0.000 A 
ATOM     23  C   UNL     1       5.530   5.039  15.018  0.00  0.00    +0.000 C 
ENDBRANCH  17  18
ENDBRANCH  16  17
ENDBRANCH  10  16
TORSDOF 4
ENDMDL
MODEL 7
REMARK VINA RESULT:      -6.3      1.346      1.438
REMARK  Name = 
REMARK  6 active torsions:
REMARK  status: ('A' for Active; 'I' for Inactive)
REMARK    1  A    between atoms: C_1  and  O_2
REMARK    2  A    between atoms: O_2  and  C_3
REMARK    3  A    between atoms: C_12  and  C_14
REMARK    4  A    between atoms: C_14  and  C_15
REMARK    5  A    between atoms: C_15  and  C_16
REMARK    6  A    between atoms: C_20  and  C_21
REMARK                            x       y       z     vdW  Elec       q    Type
REMARK                         _______ _______ _______ _____ _____    ______ ____
ROOT
ATOM      1  C   UNL     1      -1.361  11.684  20.870  0.00  0.00    +0.000 C 
ATOM      2  C   UNL     1      -1.336  13.048  20.172  0.00  0.00    +0.000 C 
ATOM      3  C   UNL     1      -0.079  13.866  20.461  0.00  0.00    +0.000 C 
ATOM      4  C   UNL     1       1.203  13.046  20.533  0.00  0.00    +0.000 C 
ATOM      5  O   UNL     1       1.055  11.817  21.242  0.00  0.00    +0.000 OA
ATOM      6  C   UNL     1       0.008  10.955  20.756  0.00  0.00    +0.000 C 
ATOM      7  C   UNL     1       0.285  10.529  19.293  0.00  0.00    +0.000 C 
ATOM      8  C   UNL     1       1.597   9.762  19.189  0.00  0.00    +0.000 C 
ATOM      9  N   UNL     1       1.537   8.568  20.023  0.00  0.00    +0.000 N 
ATOM     10  C   UNL     1       1.975   7.365  19.476  0.00  0.00    +0.000 C 
ATOM     11  O   UNL     1       2.350   7.284  18.308  0.00  0.00    +0.000 OA
ATOM     12  C   UNL     1       1.264   8.829  21.439  0.00  0.00    +0.000 C 
ATOM     13  C   UNL     1       0.007   9.678  21.628  0.00  0.00    +0.000 C 
ENDROOT
BRANCH   1  15
ATOM     14  C   UNL     1      -3.000  12.607  22.443  0.00  0.00    +0.000 C 
ATOM     15  O   UNL     1      -1.906  11.738  22.199  0.00  0.00    +0.000 OA
ENDBRANCH   1  15
BRANCH  10  16
ATOM     16  C   UNL     1       1.899   6.123  20.343  0.00  0.00    +0.000 C 
BRANCH  16  17
ATOM     17  C   UNL     1       3.116   5.228  20.107  0.00  0.00    +0.000 C 
BRANCH  17  18
ATOM     18  C   UNL     1       2.738   3.966  19.395  0.00  0.00    +0.000 A 
ATOM     19  S   UNL     1       3.179   3.720  17.752  0.00  0.00    +0.000 S 
ATOM     20  C   UNL     1       2.418   2.191  17.791  0.00  0.00    +0.000 A 
ATOM     21  N   UNL     1       1.864   1.847  18.934  0.00  0.00    +0.000 NA
ATOM     22  C   UNL     1       2.035   2.867  19.862  0.00  0.00    +0.000 A 
ATOM     23  C   UNL     1       1.466   2.679  21.223  0.00  0.00    +0.000 C 
ENDBRANCH  17  18
ENDBRANCH  16  17
ENDBRANCH  10  16
TORSDOF 4
ENDMDL
MODEL 8
REMARK VINA RESULT:      -6.3      1.629      2.690
REMARK  Name = 
REMARK  6 active torsions:
REMARK  status: ('A' for Active; 'I' for Inactive)
REMARK    1  A    between atoms: C_1  and  O_2
REMARK    2  A    between atoms: O_2  and  C_3
REMARK    3  A    between atoms: C_12  and  C_14
REMARK    4  A    between atoms: C_14  and  C_15
REMARK    5  A    between atoms: C_15  and  C_16
REMARK    6  A    between atoms: C_20  and  C_21
REMARK                            x       y       z     vdW  Elec       q    Type
REMARK                         _______ _______ _______ _____ _____    ______ ____
ROOT
ATOM      1  C   UNL     1       1.311  13.012  19.601  0.00  0.00    +0.000 C 
ATOM      2  C   UNL     1       0.288  13.756  20.465  0.00  0.00    +0.000 C 
ATOM      3  C   UNL     1      -1.162  13.526  20.042  0.00  0.00    +0.000 C 
ATOM      4  C   UNL     1      -1.467  12.104  19.589  0.00  0.00    +0.000 C 
ATOM      5  O   UNL     1      -0.454  11.539  18.758  0.00  0.00    +0.000 OA
ATOM      6  C   UNL     1       0.872  11.546  19.323  0.00  0.00    +0.000 C 
ATOM      7  C   UNL     1       0.917  10.702  20.621  0.00  0.00    +0.000 C 
ATOM      8  C   UNL     1       0.546   9.252  20.340  0.00  0.00    +0.000 C 
ATOM      9  N   UNL     1       1.478   8.682  19.375  0.00  0.00    +0.000 N 
ATOM     10  C   UNL     1       2.007   7.422  19.642  0.00  0.00    +0.000 C 
ATOM     11  O   UNL     1       1.752   6.821  20.684  0.00  0.00    +0.000 OA
ATOM     12  C   UNL     1       1.544   9.398  18.099  0.00  0.00    +0.000 C 
ATOM     13  C   UNL     1       1.823  10.888  18.297  0.00  0.00    +0.000 C 
ENDROOT
BRANCH   1  15
ATOM     14  C   UNL     1       2.154  15.088  18.606  0.00  0.00    +0.000 C 
ATOM     15  O   UNL     1       1.711  13.751  18.436  0.00  0.00    +0.000 OA
ENDBRANCH   1  15
BRANCH  10  16
ATOM     16  C   UNL     1       2.986   6.839  18.642  0.00  0.00    +0.000 C 
BRANCH  16  17
ATOM     17  C   UNL     1       2.418   5.566  18.014  0.00  0.00    +0.000 C 
BRANCH  17  18
ATOM     18  C   UNL     1       2.964   4.338  18.676  0.00  0.00    +0.000 A 
ATOM     19  S   UNL     1       4.624   4.239  19.108  0.00  0.00    +0.000 S 
ATOM     20  C   UNL     1       4.355   2.672  19.732  0.00  0.00    +0.000 A 
ATOM     21  N   UNL     1       3.123   2.218  19.647  0.00  0.00    +0.000 NA
ATOM     22  C   UNL     1       2.316   3.166  19.032  0.00  0.00    +0.000 A 
ATOM     23  C   UNL     1       0.880   2.839  18.827  0.00  0.00    +0.000 C 
ENDBRANCH  17  18
ENDBRANCH  16  17
ENDBRANCH  10  16
TORSDOF 4
ENDMDL
MODEL 9
REMARK VINA RESULT:      -6.2      1.112      1.439
REMARK  Name = 
REMARK  6 active torsions:
REMARK  status: ('A' for Active; 'I' for Inactive)
REMARK    1  A    between atoms: C_1  and  O_2
REMARK    2  A    between atoms: O_2  and  C_3
REMARK    3  A    between atoms: C_12  and  C_14
REMARK    4  A    between atoms: C_14  and  C_15
REMARK    5  A    between atoms: C_15  and  C_16
REMARK    6  A    between atoms: C_20  and  C_21
REMARK                            x       y       z     vdW  Elec       q    Type
REMARK                         _______ _______ _______ _____ _____    ______ ____
ROOT
ATOM      1  C   UNL     1      -1.255  11.367  19.050  0.00  0.00    +0.000 C 
ATOM      2  C   UNL     1      -1.136  12.580  18.121  0.00  0.00    +0.000 C 
ATOM      3  C   UNL     1       0.045  13.493  18.445  0.00  0.00    +0.000 C 
ATOM      4  C   UNL     1       1.310  12.758  18.871  0.00  0.00    +0.000 C 
ATOM      5  O   UNL     1       1.066  11.674  19.767  0.00  0.00    +0.000 OA
ATOM      6  C   UNL     1       0.125  10.691  19.293  0.00  0.00    +0.000 C 
ATOM      7  C   UNL     1       0.643  10.018  17.998  0.00  0.00    +0.000 C 
ATOM      8  C   UNL     1       1.965   9.304  18.248  0.00  0.00    +0.000 C 
ATOM      9  N   UNL     1       1.787   8.281  19.272  0.00  0.00    +0.000 N 
ATOM     10  C   UNL     1       2.326   7.019  19.037  0.00  0.00    +0.000 C 
ATOM     11  O   UNL     1       2.887   6.742  17.979  0.00  0.00    +0.000 OA
ATOM     12  C   UNL     1       1.284   8.786  20.552  0.00  0.00    +0.000 C 
ATOM     13  C   UNL     1       0.001   9.598  20.379  0.00  0.00    +0.000 C 
ENDROOT
BRANCH   1  15
ATOM     14  C   UNL     1      -2.724  12.862  20.322  0.00  0.00    +0.000 C 
ATOM     15  O   UNL     1      -2.009  11.640  20.243  0.00  0.00    +0.000 OA
ENDBRANCH   1  15
BRANCH  10  16
ATOM     16  C   UNL     1       2.127   5.955  20.099  0.00  0.00    +0.000 C 
BRANCH  16  17
ATOM     17  C   UNL     1       1.852   4.597  19.453  0.00  0.00    +0.000 C 
BRANCH  17  18
ATOM     18  C   UNL     1       2.911   3.598  19.805  0.00  0.00    +0.000 A 
ATOM     19  S   UNL     1       2.828   2.714  21.277  0.00  0.00    +0.000 S 
ATOM     20  C   UNL     1       4.280   1.914  20.862  0.00  0.00    +0.000 A 
ATOM     21  N   UNL     1       4.819   2.252  19.711  0.00  0.00    +0.000 NA
ATOM     22  C   UNL     1       4.044   3.228  19.098  0.00  0.00    +0.000 A 
ATOM     23  C   UNL     1       4.492   3.758  17.783  0.00  0.00    +0.000 C 
ENDBRANCH  17  18
ENDBRANCH  16  17
ENDBRANCH  10  16
TORSDOF 4
ENDMDL
