MODEL 1
REMARK VINA RESULT:      -5.9      0.000      0.000
REMARK  Name = 
REMARK  3 active torsions:
REMARK  status: ('A' for Active; 'I' for Inactive)
REMARK    1  A    between atoms: C_1  and  C_2
REMARK    2  A    between atoms: C_2  and  C_4
REMARK    3  A    between atoms: C_7  and  N_8
REMARK                            x       y       z     vdW  Elec       q    Type
REMARK                         _______ _______ _______ _____ _____    ______ ____
ROOT
ATOM      1  C   UNL     1       3.278   4.222  18.254  0.00  0.00    +0.000 A 
ATOM      2  C   UNL     1       3.689   3.845  16.966  0.00  0.00    +0.000 A 
ATOM      3  C   UNL     1       5.001   4.077  16.545  0.00  0.00    +0.000 A 
ATOM      4  C   UNL     1       5.903   4.702  17.415  0.00  0.00    +0.000 A 
ATOM      5  C   UNL     1       5.499   5.085  18.703  0.00  0.00    +0.000 A 
ATOM      6  C   UNL     1       4.187   4.840  19.122  0.00  0.00    +0.000 A 
ENDROOT
BRANCH   1   8
ATOM      7  C   UNL     1       1.440   4.272  20.058  0.00  0.00    +0.000 C 
ATOM      8  C   UNL     1       1.865   3.967  18.645  0.00  0.00    +0.000 C 
ATOM      9  O   UNL     1       1.087   3.487  17.825  0.00  0.00    +0.000 OA
ENDBRANCH   1   8
BRANCH   4  10
ATOM     10  N   UNL     1       7.278   4.971  16.972  0.00  0.00    +0.000 N 
ATOM     11  O   UNL     1       7.461   5.934  16.215  0.00  0.00    +0.000 OA
ATOM     12  O   UNL     1       8.171   4.218  17.383  0.00  0.00    +0.000 OA
ENDBRANCH   4  10
TORSDOF 2
ENDMDL
MODEL 2
REMARK VINA RESULT:      -5.9      0.797      1.705
REMARK  Name = 
REMARK  3 active torsions:
REMARK  status: ('A' for Active; 'I' for Inactive)
REMARK    1  A    between atoms: C_1  and  C_2
REMARK    2  A    between atoms: C_2  and  C_4
REMARK    3  A    between atoms: C_7  and  N_8
REMARK                            x       y       z     vdW  Elec       q    Type
REMARK                         _______ _______ _______ _____ _____    ______ ____
ROOT
ATOM      1  C   UNL     1       3.234   4.327  18.190  0.00  0.00    +0.000 A 
ATOM      2  C   UNL     1       3.924   4.883  19.278  0.00  0.00    +0.000 A 
ATOM      3  C   UNL     1       5.303   5.097  19.208  0.00  0.00    +0.000 A 
ATOM      4  C   UNL     1       5.997   4.739  18.046  0.00  0.00    +0.000 A 
ATOM      5  C   UNL     1       5.315   4.180  16.954  0.00  0.00    +0.000 A 
ATOM      6  C   UNL     1       3.933   3.979  17.027  0.00  0.00    +0.000 A 
ENDROOT
BRANCH   1   8
ATOM      7  C   UNL     1       1.193   3.891  19.699  0.00  0.00    +0.000 C 
ATOM      8  C   UNL     1       1.768   4.105  18.324  0.00  0.00    +0.000 C 
ATOM      9  O   UNL     1       1.067   4.069  17.316  0.00  0.00    +0.000 OA
ENDBRANCH   1   8
BRANCH   4  10
ATOM     10  N   UNL     1       7.451   4.938  17.972  0.00  0.00    +0.000 N 
ATOM     11  O   UNL     1       8.089   4.229  17.182  0.00  0.00    +0.000 OA
ATOM     12  O   UNL     1       7.949   5.804  18.703  0.00  0.00    +0.000 OA
ENDBRANCH   4  10
TORSDOF 2
ENDMDL
MODEL 3
REMARK VINA RESULT:      -5.8      0.932      1.227
REMARK  Name = 
REMARK  3 active torsions:
REMARK  status: ('A' for Active; 'I' for Inactive)
REMARK    1  A    between atoms: C_1  and  C_2
REMARK    2  A    between atoms: C_2  and  C_4
REMARK    3  A    between atoms: C_7  and  N_8
REMARK                            x       y       z     vdW  Elec       q    Type
REMARK                         _______ _______ _______ _____ _____    ______ ____
ROOT
ATOM      1  C   UNL     1       3.147   4.675  17.730  0.00  0.00    +0.000 A 
ATOM      2  C   UNL     1       3.901   3.699  17.061  0.00  0.00    +0.000 A 
ATOM      3  C   UNL     1       5.220   3.960  16.680  0.00  0.00    +0.000 A 
ATOM      4  C   UNL     1       5.781   5.212  16.959  0.00  0.00    +0.000 A 
ATOM      5  C   UNL     1       5.034   6.195  17.625  0.00  0.00    +0.000 A 
ATOM      6  C   UNL     1       3.718   5.922  18.013  0.00  0.00    +0.000 A 
ENDROOT
BRANCH   1   8
ATOM      7  C   UNL     1       1.394   4.200  19.556  0.00  0.00    +0.000 C 
ATOM      8  C   UNL     1       1.742   4.350  18.098  0.00  0.00    +0.000 C 
ATOM      9  O   UNL     1       0.908   4.180  17.213  0.00  0.00    +0.000 OA
ENDBRANCH   1   8
BRANCH   4  10
ATOM     10  N   UNL     1       7.160   5.504  16.541  0.00  0.00    +0.000 N 
ATOM     11  O   UNL     1       7.905   4.543  16.307  0.00  0.00    +0.000 OA
ATOM     12  O   UNL     1       7.492   6.693  16.449  0.00  0.00    +0.000 OA
ENDBRANCH   4  10
TORSDOF 2
ENDMDL
MODEL 4
REMARK VINA RESULT:      -5.8      0.959      1.691
REMARK  Name = 
REMARK  3 active torsions:
REMARK  status: ('A' for Active; 'I' for Inactive)
REMARK    1  A    between atoms: C_1  and  C_2
REMARK    2  A    between atoms: C_2  and  C_4
REMARK    3  A    between atoms: C_7  and  N_8
REMARK                            x       y       z     vdW  Elec       q    Type
REMARK                         _______ _______ _______ _____ _____    ______ ____
ROOT
ATOM      1  C   UNL     1       3.180   4.616  17.708  0.00  0.00    +0.000 A 
ATOM      2  C   UNL     1       3.731   5.882  17.959  0.00  0.00    +0.000 A 
ATOM      3  C   UNL     1       5.025   6.190  17.531  0.00  0.00    +0.000 A 
ATOM      4  C   UNL     1       5.776   5.218  16.859  0.00  0.00    +0.000 A 
ATOM      5  C   UNL     1       5.235   3.949  16.605  0.00  0.00    +0.000 A 
ATOM      6  C   UNL     1       3.934   3.652  17.027  0.00  0.00    +0.000 A 
ENDROOT
BRANCH   1   8
ATOM      7  C   UNL     1       1.536   4.416  19.680  0.00  0.00    +0.000 C 
ATOM      8  C   UNL     1       1.804   4.336  18.200  0.00  0.00    +0.000 C 
ATOM      9  O   UNL     1       0.929   4.015  17.400  0.00  0.00    +0.000 OA
ENDBRANCH   1   8
BRANCH   4  10
ATOM     10  N   UNL     1       7.147   5.525  16.425  0.00  0.00    +0.000 N 
ATOM     11  O   UNL     1       7.849   4.584  16.030  0.00  0.00    +0.000 OA
ATOM     12  O   UNL     1       7.516   6.705  16.481  0.00  0.00    +0.000 OA
ENDBRANCH   4  10
TORSDOF 2
ENDMDL
MODEL 5
REMARK VINA RESULT:      -5.8      0.262      1.409
REMARK  Name = 
REMARK  3 active torsions:
REMARK  status: ('A' for Active; 'I' for Inactive)
REMARK    1  A    between atoms: C_1  and  C_2
REMARK    2  A    between atoms: C_2  and  C_4
REMARK    3  A    between atoms: C_7  and  N_8
REMARK                            x       y       z     vdW  Elec       q    Type
REMARK                         _______ _______ _______ _____ _____    ______ ____
ROOT
ATOM      1  C   UNL     1       3.284   4.052  18.257  0.00  0.00    +0.000 A 
ATOM      2  C   UNL     1       4.277   4.434  19.172  0.00  0.00    +0.000 A 
ATOM      3  C   UNL     1       5.575   4.710  18.734  0.00  0.00    +0.000 A 
ATOM      4  C   UNL     1       5.883   4.589  17.373  0.00  0.00    +0.000 A 
ATOM      5  C   UNL     1       4.897   4.205  16.452  0.00  0.00    +0.000 A 
ATOM      6  C   UNL     1       3.596   3.941  16.896  0.00  0.00    +0.000 A 
ENDROOT
BRANCH   1   8
ATOM      7  C   UNL     1       1.627   4.038  20.229  0.00  0.00    +0.000 C 
ATOM      8  C   UNL     1       1.922   3.754  18.779  0.00  0.00    +0.000 C 
ATOM      9  O   UNL     1       1.084   3.257  18.033  0.00  0.00    +0.000 OA
ENDBRANCH   1   8
BRANCH   4  10
ATOM     10  N   UNL     1       7.251   4.854  16.907  0.00  0.00    +0.000 N 
ATOM     11  O   UNL     1       7.401   5.708  16.022  0.00  0.00    +0.000 OA
ATOM     12  O   UNL     1       8.170   4.208  17.427  0.00  0.00    +0.000 OA
ENDBRANCH   4  10
TORSDOF 2
ENDMDL
MODEL 6
REMARK VINA RESULT:      -5.7      1.712      1.782
REMARK  Name = 
REMARK  3 active torsions:
REMARK  status: ('A' for Active; 'I' for Inactive)
REMARK    1  A    between atoms: C_1  and  C_2
REMARK    2  A    between atoms: C_2  and  C_4
REMARK    3  A    between atoms: C_7  and  N_8
REMARK                            x       y       z     vdW  Elec       q    Type
REMARK                         _______ _______ _______ _____ _____    ______ ____
ROOT
ATOM      1  C   UNL     1       2.451   4.327  18.252  0.00  0.00    +0.000 A 
ATOM      2  C   UNL     1       3.353   3.603  17.459  0.00  0.00    +0.000 A 
ATOM      3  C   UNL     1       4.400   4.255  16.802  0.00  0.00    +0.000 A 
ATOM      4  C   UNL     1       4.534   5.643  16.930  0.00  0.00    +0.000 A 
ATOM      5  C   UNL     1       3.635   6.375  17.719  0.00  0.00    +0.000 A 
ATOM      6  C   UNL     1       2.596   5.713  18.383  0.00  0.00    +0.000 A 
ENDROOT
BRANCH   1   8
ATOM      7  C   UNL     1       0.982   3.945  20.334  0.00  0.00    +0.000 C 
ATOM      8  C   UNL     1       1.344   3.585  18.917  0.00  0.00    +0.000 C 
ATOM      9  O   UNL     1       0.775   2.680  18.313  0.00  0.00    +0.000 OA
ENDBRANCH   1   8
BRANCH   4  10
ATOM     10  N   UNL     1       5.618   6.340  16.224  0.00  0.00    +0.000 N 
ATOM     11  O   UNL     1       5.778   6.087  15.022  0.00  0.00    +0.000 OA
ATOM     12  O   UNL     1       6.306   7.139  16.874  0.00  0.00    +0.000 OA
ENDBRANCH   4  10
TORSDOF 2
ENDMDL
MODEL 7
REMARK VINA RESULT:      -5.7      1.478      2.180
REMARK  Name = 
REMARK  3 active torsions:
REMARK  status: ('A' for Active; 'I' for Inactive)
REMARK    1  A    between atoms: C_1  and  C_2
REMARK    2  A    between atoms: C_2  and  C_4
REMARK    3  A    between atoms: C_7  and  N_8
REMARK                            x       y       z     vdW  Elec       q    Type
REMARK                         _______ _______ _______ _____ _____    ______ ____
ROOT
ATOM      1  C   UNL     1       2.375   4.005  18.200  0.00  0.00    +0.000 A 
ATOM      2  C   UNL     1       2.490   5.399  18.306  0.00  0.00    +0.000 A 
ATOM      3  C   UNL     1       3.523   6.076  17.652  0.00  0.00    +0.000 A 
ATOM      4  C   UNL     1       4.454   5.349  16.900  0.00  0.00    +0.000 A 
ATOM      5  C   UNL     1       4.348   3.955  16.791  0.00  0.00    +0.000 A 
ATOM      6  C   UNL     1       3.304   3.285  17.439  0.00  0.00    +0.000 A 
ENDROOT
BRANCH   1   8
ATOM      7  C   UNL     1       0.963   3.763  20.341  0.00  0.00    +0.000 C 
ATOM      8  C   UNL     1       1.265   3.332  18.930  0.00  0.00    +0.000 C 
ATOM      9  O   UNL     1       0.644   2.425  18.383  0.00  0.00    +0.000 OA
ENDBRANCH   1   8
BRANCH   4  10
ATOM     10  N   UNL     1       5.558   6.050  16.229  0.00  0.00    +0.000 N 
ATOM     11  O   UNL     1       6.712   5.796  16.601  0.00  0.00    +0.000 OA
ATOM     12  O   UNL     1       5.267   6.852  15.331  0.00  0.00    +0.000 OA
ENDBRANCH   4  10
TORSDOF 2
ENDMDL
MODEL 8
REMARK VINA RESULT:      -5.7      2.697      4.887
REMARK  Name = 
REMARK  3 active torsions:
REMARK  status: ('A' for Active; 'I' for Inactive)
REMARK    1  A    between atoms: C_1  and  C_2
REMARK    2  A    between atoms: C_2  and  C_4
REMARK    3  A    between atoms: C_7  and  N_8
REMARK                            x       y       z     vdW  Elec       q    Type
REMARK                         _______ _______ _______ _____ _____    ______ ____
ROOT
ATOM      1  C   UNL     1       6.420   4.584  15.446  0.00  0.00    +0.000 A 
ATOM      2  C   UNL     1       5.077   4.203  15.579  0.00  0.00    +0.000 A 
ATOM      3  C   UNL     1       4.511   4.031  16.846  0.00  0.00    +0.000 A 
ATOM      4  C   UNL     1       5.301   4.229  17.985  0.00  0.00    +0.000 A 
ATOM      5  C   UNL     1       6.646   4.607  17.861  0.00  0.00    +0.000 A 
ATOM      6  C   UNL     1       7.203   4.788  16.590  0.00  0.00    +0.000 A 
ENDROOT
BRANCH   1   8
ATOM      7  C   UNL     1       6.444   3.853  12.977  0.00  0.00    +0.000 C 
ATOM      8  C   UNL     1       6.976   4.737  14.074  0.00  0.00    +0.000 C 
ATOM      9  O   UNL     1       7.873   5.551  13.872  0.00  0.00    +0.000 OA
ENDBRANCH   1   8
BRANCH   4  10
ATOM     10  N   UNL     1       4.722   4.027  19.320  0.00  0.00    +0.000 N 
ATOM     11  O   UNL     1       4.110   4.976  19.830  0.00  0.00    +0.000 OA
ATOM     12  O   UNL     1       4.880   2.922  19.854  0.00  0.00    +0.000 OA
ENDBRANCH   4  10
TORSDOF 2
ENDMDL
MODEL 9
REMARK VINA RESULT:      -5.7      0.983      1.957
REMARK  Name = 
REMARK  3 active torsions:
REMARK  status: ('A' for Active; 'I' for Inactive)
REMARK    1  A    between atoms: C_1  and  C_2
REMARK    2  A    between atoms: C_2  and  C_4
REMARK    3  A    between atoms: C_7  and  N_8
REMARK                            x       y       z     vdW  Elec       q    Type
REMARK                         _______ _______ _______ _____ _____    ______ ____
ROOT
ATOM      1  C   UNL     1       3.410   4.496  18.639  0.00  0.00    +0.000 A 
ATOM      2  C   UNL     1       4.477   5.045  19.367  0.00  0.00    +0.000 A 
ATOM      3  C   UNL     1       5.736   5.191  18.779  0.00  0.00    +0.000 A 
ATOM      4  C   UNL     1       5.930   4.773  17.456  0.00  0.00    +0.000 A 
ATOM      5  C   UNL     1       4.869   4.222  16.722  0.00  0.00    +0.000 A 
ATOM      6  C   UNL     1       3.609   4.088  17.314  0.00  0.00    +0.000 A 
ENDROOT
BRANCH   1   8
ATOM      7  C   UNL     1       1.146   3.284  18.832  0.00  0.00    +0.000 C 
ATOM      8  C   UNL     1       2.095   4.348  19.320  0.00  0.00    +0.000 C 
ATOM      9  O   UNL     1       1.799   5.109  20.237  0.00  0.00    +0.000 OA
ENDBRANCH   1   8
BRANCH   4  10
ATOM     10  N   UNL     1       7.256   4.902  16.836  0.00  0.00    +0.000 N 
ATOM     11  O   UNL     1       8.172   4.202  17.288  0.00  0.00    +0.000 OA
ATOM     12  O   UNL     1       7.376   5.702  15.899  0.00  0.00    +0.000 OA
ENDBRANCH   4  10
TORSDOF 2
ENDMDL
