MODEL 1
REMARK VINA RESULT:      -8.4      0.000      0.000
REMARK  Name = 
REMARK  2 active torsions:
REMARK  status: ('A' for Active; 'I' for Inactive)
REMARK    1  A    between atoms: C_1  and  C_2
REMARK    2  A    between atoms: C_16  and  C_17
REMARK                            x       y       z     vdW  Elec       q    Type
REMARK                         _______ _______ _______ _____ _____    ______ ____
ROOT
ATOM      1  C   UNL     1       1.708   2.451  19.022  0.00  0.00    +0.000 C 
ATOM      2  C   UNL     1       2.488   3.731  19.253  0.00  0.00    +0.000 C 
ATOM      3  O   UNL     1       2.268   4.406  20.256  0.00  0.00    +0.000 OA
ATOM      4  N   UNL     1       3.396   4.072  18.272  0.00  0.00    +0.000 N 
ATOM      5  C   UNL     1       3.713   3.203  17.149  0.00  0.00    +0.000 C 
ATOM      6  C   UNL     1       4.396   4.092  16.140  0.00  0.00    +0.000 C 
ATOM      7  N   UNL     1       4.123   5.451  16.597  0.00  0.00    +0.000 N 
ATOM      8  C   UNL     1       5.171   6.309  16.264  0.00  0.00    +0.000 C 
ATOM      9  O   UNL     1       5.484   6.709  15.158  0.00  0.00    +0.000 OA
ATOM     10  C   UNL     1       6.030   6.362  17.449  0.00  0.00    +0.000 A 
ATOM     11  C   UNL     1       7.358   6.733  17.484  0.00  0.00    +0.000 A 
ATOM     12  C   UNL     1       8.069   6.408  18.633  0.00  0.00    +0.000 A 
ATOM     13  C   UNL     1       7.436   5.725  19.690  0.00  0.00    +0.000 A 
ATOM     14  C   UNL     1       6.084   5.347  19.626  0.00  0.00    +0.000 A 
ATOM     15  C   UNL     1       5.380   5.675  18.483  0.00  0.00    +0.000 A 
ATOM     16  C   UNL     1       3.936   5.428  18.068  0.00  0.00    +0.000 C 
ENDROOT
BRANCH  16  17
ATOM     17  C   UNL     1       2.995   6.573  18.537  0.00  0.00    +0.000 A 
ATOM     18  C   UNL     1       2.679   6.774  19.890  0.00  0.00    +0.000 A 
ATOM     19  C   UNL     1       1.886   7.855  20.296  0.00  0.00    +0.000 A 
ATOM     20  C   UNL     1       1.393   8.757  19.357  0.00  0.00    +0.000 A 
ATOM     21 CL   UNL     1       0.439  10.100  19.857  0.00  0.00    +0.000 Cl
ATOM     22  C   UNL     1       1.682   8.588  18.009  0.00  0.00    +0.000 A 
ATOM     23  C   UNL     1       2.480   7.512  17.608  0.00  0.00    +0.000 A 
ENDBRANCH  16  17
TORSDOF 1
ENDMDL
MODEL 2
REMARK VINA RESULT:      -8.1      6.665      8.659
REMARK  Name = 
REMARK  2 active torsions:
REMARK  status: ('A' for Active; 'I' for Inactive)
REMARK    1  A    between atoms: C_1  and  C_2
REMARK    2  A    between atoms: C_16  and  C_17
REMARK                            x       y       z     vdW  Elec       q    Type
REMARK                         _______ _______ _______ _____ _____    ______ ____
ROOT
ATOM      1  C   UNL     1       3.025  13.752  18.221  0.00  0.00    +0.000 C 
ATOM      2  C   UNL     1       2.134  12.592  18.624  0.00  0.00    +0.000 C 
ATOM      3  O   UNL     1       2.108  11.576  17.934  0.00  0.00    +0.000 OA
ATOM      4  N   UNL     1       1.369  12.782  19.756  0.00  0.00    +0.000 N 
ATOM      5  C   UNL     1       1.498  13.951  20.613  0.00  0.00    +0.000 C 
ATOM      6  C   UNL     1       0.246  13.965  21.455  0.00  0.00    +0.000 C 
ATOM      7  N   UNL     1      -0.653  13.021  20.800  0.00  0.00    +0.000 N 
ATOM      8  C   UNL     1      -1.485  12.397  21.729  0.00  0.00    +0.000 C 
ATOM      9  O   UNL     1      -2.404  12.889  22.355  0.00  0.00    +0.000 OA
ATOM     10  C   UNL     1      -0.824  11.133  22.065  0.00  0.00    +0.000 A 
ATOM     11  C   UNL     1      -1.029  10.375  23.199  0.00  0.00    +0.000 A 
ATOM     12  C   UNL     1      -0.082   9.397  23.479  0.00  0.00    +0.000 A 
ATOM     13  C   UNL     1       1.027   9.219  22.629  0.00  0.00    +0.000 A 
ATOM     14  C   UNL     1       1.221  10.012  21.485  0.00  0.00    +0.000 A 
ATOM     15  C   UNL     1       0.275  10.981  21.209  0.00  0.00    +0.000 A 
ATOM     16  C   UNL     1       0.162  12.005  20.088  0.00  0.00    +0.000 C 
ENDROOT
BRANCH  16  17
ATOM     17  C   UNL     1      -0.595  11.435  18.856  0.00  0.00    +0.000 A 
ATOM     18  C   UNL     1      -0.511  10.082  18.489  0.00  0.00    +0.000 A 
ATOM     19  C   UNL     1      -1.258   9.576  17.417  0.00  0.00    +0.000 A 
ATOM     20  C   UNL     1      -2.104  10.410  16.692  0.00  0.00    +0.000 A 
ATOM     21 CL   UNL     1      -3.041   9.783  15.391  0.00  0.00    +0.000 Cl
ATOM     22  C   UNL     1      -2.210  11.755  17.025  0.00  0.00    +0.000 A 
ATOM     23  C   UNL     1      -1.469  12.256  18.100  0.00  0.00    +0.000 A 
ENDBRANCH  16  17
TORSDOF 1
ENDMDL
MODEL 3
REMARK VINA RESULT:      -8.0      0.144      1.015
REMARK  Name = 
REMARK  2 active torsions:
REMARK  status: ('A' for Active; 'I' for Inactive)
REMARK    1  A    between atoms: C_1  and  C_2
REMARK    2  A    between atoms: C_16  and  C_17
REMARK                            x       y       z     vdW  Elec       q    Type
REMARK                         _______ _______ _______ _____ _____    ______ ____
ROOT
ATOM      1  C   UNL     1       1.588   2.638  19.145  0.00  0.00    +0.000 C 
ATOM      2  C   UNL     1       2.419   3.890  19.349  0.00  0.00    +0.000 C 
ATOM      3  O   UNL     1       2.244   4.582  20.349  0.00  0.00    +0.000 OA
ATOM      4  N   UNL     1       3.320   4.188  18.348  0.00  0.00    +0.000 N 
ATOM      5  C   UNL     1       3.582   3.298  17.227  0.00  0.00    +0.000 C 
ATOM      6  C   UNL     1       4.279   4.151  16.196  0.00  0.00    +0.000 C 
ATOM      7  N   UNL     1       4.067   5.523  16.645  0.00  0.00    +0.000 N 
ATOM      8  C   UNL     1       5.139   6.339  16.284  0.00  0.00    +0.000 C 
ATOM      9  O   UNL     1       5.446   6.716  15.169  0.00  0.00    +0.000 OA
ATOM     10  C   UNL     1       6.022   6.369  17.453  0.00  0.00    +0.000 A 
ATOM     11  C   UNL     1       7.364   6.690  17.459  0.00  0.00    +0.000 A 
ATOM     12  C   UNL     1       8.084   6.348  18.597  0.00  0.00    +0.000 A 
ATOM     13  C   UNL     1       7.446   5.699  19.673  0.00  0.00    +0.000 A 
ATOM     14  C   UNL     1       6.080   5.372  19.638  0.00  0.00    +0.000 A 
ATOM     15  C   UNL     1       5.367   5.716  18.505  0.00  0.00    +0.000 A 
ATOM     16  C   UNL     1       3.907   5.521  18.120  0.00  0.00    +0.000 C 
ENDROOT
BRANCH  16  17
ATOM     17  C   UNL     1       3.019   6.704  18.596  0.00  0.00    +0.000 A 
ATOM     18  C   UNL     1       2.452   7.621  17.697  0.00  0.00    +0.000 A 
ATOM     19  C   UNL     1       1.597   8.638  18.142  0.00  0.00    +0.000 A 
ATOM     20  C   UNL     1       1.292   8.758  19.495  0.00  0.00    +0.000 A 
ATOM     21 CL   UNL     1       0.221   9.992  20.039  0.00  0.00    +0.000 Cl
ATOM     22  C   UNL     1       1.837   7.871  20.414  0.00  0.00    +0.000 A 
ATOM     23  C   UNL     1       2.684   6.852  19.965  0.00  0.00    +0.000 A 
ENDBRANCH  16  17
TORSDOF 1
ENDMDL
MODEL 4
REMARK VINA RESULT:      -7.9      6.699      8.721
REMARK  Name = 
REMARK  2 active torsions:
REMARK  status: ('A' for Active; 'I' for Inactive)
REMARK    1  A    between atoms: C_1  and  C_2
REMARK    2  A    between atoms: C_16  and  C_17
REMARK                            x       y       z     vdW  Elec       q    Type
REMARK                         _______ _______ _______ _____ _____    ______ ____
ROOT
ATOM      1  C   UNL     1       2.863  13.756  18.150  0.00  0.00    +0.000 C 
ATOM      2  C   UNL     1       1.980  12.600  18.579  0.00  0.00    +0.000 C 
ATOM      3  O   UNL     1       1.917  11.591  17.882  0.00  0.00    +0.000 OA
ATOM      4  N   UNL     1       1.265  12.785  19.744  0.00  0.00    +0.000 N 
ATOM      5  C   UNL     1       1.438  13.946  20.604  0.00  0.00    +0.000 C 
ATOM      6  C   UNL     1       0.223  13.962  21.498  0.00  0.00    +0.000 C 
ATOM      7  N   UNL     1      -0.710  13.031  20.874  0.00  0.00    +0.000 N 
ATOM      8  C   UNL     1      -1.508  12.405  21.831  0.00  0.00    +0.000 C 
ATOM      9  O   UNL     1      -2.397  12.899  22.499  0.00  0.00    +0.000 OA
ATOM     10  C   UNL     1      -0.844  11.133  22.128  0.00  0.00    +0.000 A 
ATOM     11  C   UNL     1      -1.008  10.367  23.263  0.00  0.00    +0.000 A 
ATOM     12  C   UNL     1      -0.058   9.379  23.494  0.00  0.00    +0.000 A 
ATOM     13  C   UNL     1       1.013   9.200  22.597  0.00  0.00    +0.000 A 
ATOM     14  C   UNL     1       1.166  10.001  21.454  0.00  0.00    +0.000 A 
ATOM     15  C   UNL     1       0.217  10.981  21.225  0.00  0.00    +0.000 A 
ATOM     16  C   UNL     1       0.066  12.015  20.119  0.00  0.00    +0.000 C 
ENDROOT
BRANCH  16  17
ATOM     17  C   UNL     1      -0.746  11.462  18.915  0.00  0.00    +0.000 A 
ATOM     18  C   UNL     1      -1.535  12.290  18.101  0.00  0.00    +0.000 A 
ATOM     19  C   UNL     1      -2.202  11.781  16.979  0.00  0.00    +0.000 A 
ATOM     20  C   UNL     1      -2.093  10.433  16.648  0.00  0.00    +0.000 A 
ATOM     21 CL   UNL     1      -2.891   9.812  15.255  0.00  0.00    +0.000 Cl
ATOM     22  C   UNL     1      -1.324   9.583  17.432  0.00  0.00    +0.000 A 
ATOM     23  C   UNL     1      -0.654  10.096  18.547  0.00  0.00    +0.000 A 
ENDBRANCH  16  17
TORSDOF 1
ENDMDL
MODEL 5
REMARK VINA RESULT:      -7.6      8.754     10.762
REMARK  Name = 
REMARK  2 active torsions:
REMARK  status: ('A' for Active; 'I' for Inactive)
REMARK    1  A    between atoms: C_1  and  C_2
REMARK    2  A    between atoms: C_16  and  C_17
REMARK                            x       y       z     vdW  Elec       q    Type
REMARK                         _______ _______ _______ _____ _____    ______ ____
ROOT
ATOM      1  C   UNL     1      11.249  17.664  17.810  0.00  0.00    +0.000 C 
ATOM      2  C   UNL     1      10.275  16.502  17.841  0.00  0.00    +0.000 C 
ATOM      3  O   UNL     1       9.453  16.371  16.937  0.00  0.00    +0.000 OA
ATOM      4  N   UNL     1      10.365  15.665  18.934  0.00  0.00    +0.000 N 
ATOM      5  C   UNL     1      11.415  15.780  19.935  0.00  0.00    +0.000 C 
ATOM      6  C   UNL     1      10.921  14.989  21.121  0.00  0.00    +0.000 C 
ATOM      7  N   UNL     1       9.504  14.764  20.853  0.00  0.00    +0.000 N 
ATOM      8  C   UNL     1       9.079  13.553  21.398  0.00  0.00    +0.000 C 
ATOM      9  O   UNL     1       8.935  13.274  22.573  0.00  0.00    +0.000 OA
ATOM     10  C   UNL     1       9.171  12.576  20.309  0.00  0.00    +0.000 A 
ATOM     11  C   UNL     1       9.252  11.206  20.442  0.00  0.00    +0.000 A 
ATOM     12  C   UNL     1       9.655  10.492  19.320  0.00  0.00    +0.000 A 
ATOM     13  C   UNL     1       9.967  11.166  18.123  0.00  0.00    +0.000 A 
ATOM     14  C   UNL     1       9.888  12.565  18.016  0.00  0.00    +0.000 A 
ATOM     15  C   UNL     1       9.484  13.271  19.134  0.00  0.00    +0.000 A 
ATOM     16  C   UNL     1       9.293  14.761  19.385  0.00  0.00    +0.000 C 
ENDROOT
BRANCH  16  17
ATOM     17  C   UNL     1       7.858  15.231  19.018  0.00  0.00    +0.000 A 
ATOM     18  C   UNL     1       7.045  14.519  18.121  0.00  0.00    +0.000 A 
ATOM     19  C   UNL     1       5.729  14.923  17.860  0.00  0.00    +0.000 A 
ATOM     20  C   UNL     1       5.199  16.045  18.490  0.00  0.00    +0.000 A 
ATOM     21 CL   UNL     1       3.574  16.527  18.189  0.00  0.00    +0.000 Cl
ATOM     22  C   UNL     1       5.975  16.775  19.382  0.00  0.00    +0.000 A 
ATOM     23  C   UNL     1       7.286  16.366  19.646  0.00  0.00    +0.000 A 
ENDBRANCH  16  17
TORSDOF 1
ENDMDL
MODEL 6
REMARK VINA RESULT:      -7.5      5.028      7.945
REMARK  Name = 
REMARK  2 active torsions:
REMARK  status: ('A' for Active; 'I' for Inactive)
REMARK    1  A    between atoms: C_1  and  C_2
REMARK    2  A    between atoms: C_16  and  C_17
REMARK                            x       y       z     vdW  Elec       q    Type
REMARK                         _______ _______ _______ _____ _____    ______ ____
ROOT
ATOM      1  C   UNL     1       0.603  15.105  18.813  0.00  0.00    +0.000 C 
ATOM      2  C   UNL     1       0.232  13.663  18.527  0.00  0.00    +0.000 C 
ATOM      3  O   UNL     1      -0.425  13.389  17.526  0.00  0.00    +0.000 OA
ATOM      4  N   UNL     1       0.647  12.735  19.460  0.00  0.00    +0.000 N 
ATOM      5  C   UNL     1       1.513  13.071  20.580  0.00  0.00    +0.000 C 
ATOM      6  C   UNL     1       1.381  11.917  21.544  0.00  0.00    +0.000 C 
ATOM      7  N   UNL     1       0.212  11.178  21.080  0.00  0.00    +0.000 N 
ATOM      8  C   UNL     1       0.342   9.816  21.351  0.00  0.00    +0.000 C 
ATOM      9  O   UNL     1       0.301   9.265  22.434  0.00  0.00    +0.000 OA
ATOM     10  C   UNL     1       0.881   9.219  20.126  0.00  0.00    +0.000 A 
ATOM     11  C   UNL     1       1.548   8.016  20.025  0.00  0.00    +0.000 A 
ATOM     12  C   UNL     1       2.253   7.788  18.849  0.00  0.00    +0.000 A 
ATOM     13  C   UNL     1       2.272   8.763  17.832  0.00  0.00    +0.000 A 
ATOM     14  C   UNL     1       1.595   9.987  17.964  0.00  0.00    +0.000 A 
ATOM     15  C   UNL     1       0.892  10.208  19.134  0.00  0.00    +0.000 A 
ATOM     16  C   UNL     1       0.064  11.391  19.618  0.00  0.00    +0.000 C 
ENDROOT
BRANCH  16  17
ATOM     17  C   UNL     1      -1.421  11.277  19.177  0.00  0.00    +0.000 A 
ATOM     18  C   UNL     1      -2.429  12.081  19.732  0.00  0.00    +0.000 A 
ATOM     19  C   UNL     1      -3.749  12.011  19.268  0.00  0.00    +0.000 A 
ATOM     20  C   UNL     1      -4.088  11.136  18.239  0.00  0.00    +0.000 A 
ATOM     21 CL   UNL     1      -5.704  11.068  17.652  0.00  0.00    +0.000 Cl
ATOM     22  C   UNL     1      -3.117  10.324  17.668  0.00  0.00    +0.000 A 
ATOM     23  C   UNL     1      -1.799  10.401  18.129  0.00  0.00    +0.000 A 
ENDBRANCH  16  17
TORSDOF 1
ENDMDL
MODEL 7
REMARK VINA RESULT:      -7.4      5.021      7.971
REMARK  Name = 
REMARK  2 active torsions:
REMARK  status: ('A' for Active; 'I' for Inactive)
REMARK    1  A    between atoms: C_1  and  C_2
REMARK    2  A    between atoms: C_16  and  C_17
REMARK                            x       y       z     vdW  Elec       q    Type
REMARK                         _______ _______ _______ _____ _____    ______ ____
ROOT
ATOM      1  C   UNL     1       0.728  15.130  18.901  0.00  0.00    +0.000 C 
ATOM      2  C   UNL     1       0.350  13.701  18.559  0.00  0.00    +0.000 C 
ATOM      3  O   UNL     1      -0.254  13.463  17.517  0.00  0.00    +0.000 OA
ATOM      4  N   UNL     1       0.696  12.744  19.490  0.00  0.00    +0.000 N 
ATOM      5  C   UNL     1       1.504  13.037  20.665  0.00  0.00    +0.000 C 
ATOM      6  C   UNL     1       1.298  11.864  21.591  0.00  0.00    +0.000 C 
ATOM      7  N   UNL     1       0.145  11.157  21.044  0.00  0.00    +0.000 N 
ATOM      8  C   UNL     1       0.237   9.787  21.288  0.00  0.00    +0.000 C 
ATOM      9  O   UNL     1       0.126   9.211  22.353  0.00  0.00    +0.000 OA
ATOM     10  C   UNL     1       0.834   9.210  20.081  0.00  0.00    +0.000 A 
ATOM     11  C   UNL     1       1.485   7.997  19.987  0.00  0.00    +0.000 A 
ATOM     12  C   UNL     1       2.251   7.785  18.847  0.00  0.00    +0.000 A 
ATOM     13  C   UNL     1       2.344   8.784  17.858  0.00  0.00    +0.000 A 
ATOM     14  C   UNL     1       1.681  10.017  17.982  0.00  0.00    +0.000 A 
ATOM     15  C   UNL     1       0.917  10.222  19.116  0.00  0.00    +0.000 A 
ATOM     16  C   UNL     1       0.083  11.407  19.582  0.00  0.00    +0.000 C 
ENDROOT
BRANCH  16  17
ATOM     17  C   UNL     1      -1.377  11.331  19.056  0.00  0.00    +0.000 A 
ATOM     18  C   UNL     1      -1.758  10.445  18.036  0.00  0.00    +0.000 A 
ATOM     19  C   UNL     1      -3.094  10.344  17.626  0.00  0.00    +0.000 A 
ATOM     20  C   UNL     1      -4.076  11.126  18.229  0.00  0.00    +0.000 A 
ATOM     21 CL   UNL     1      -5.721  10.984  17.743  0.00  0.00    +0.000 Cl
ATOM     22  C   UNL     1      -3.735  12.016  19.239  0.00  0.00    +0.000 A 
ATOM     23  C   UNL     1      -2.401  12.110  19.650  0.00  0.00    +0.000 A 
ENDBRANCH  16  17
TORSDOF 1
ENDMDL
MODEL 8
REMARK VINA RESULT:      -7.4      8.702     10.692
REMARK  Name = 
REMARK  2 active torsions:
REMARK  status: ('A' for Active; 'I' for Inactive)
REMARK    1  A    between atoms: C_1  and  C_2
REMARK    2  A    between atoms: C_16  and  C_17
REMARK                            x       y       z     vdW  Elec       q    Type
REMARK                         _______ _______ _______ _____ _____    ______ ____
ROOT
ATOM      1  C   UNL     1      11.045  17.614  17.474  0.00  0.00    +0.000 C 
ATOM      2  C   UNL     1      10.088  16.446  17.610  0.00  0.00    +0.000 C 
ATOM      3  O   UNL     1       9.192  16.292  16.785  0.00  0.00    +0.000 OA
ATOM      4  N   UNL     1      10.282  15.629  18.705  0.00  0.00    +0.000 N 
ATOM      5  C   UNL     1      11.414  15.770  19.608  0.00  0.00    +0.000 C 
ATOM      6  C   UNL     1      11.034  14.996  20.846  0.00  0.00    +0.000 C 
ATOM      7  N   UNL     1       9.601  14.756  20.708  0.00  0.00    +0.000 N 
ATOM      8  C   UNL     1       9.236  13.551  21.309  0.00  0.00    +0.000 C 
ATOM      9  O   UNL     1       9.199  13.293  22.497  0.00  0.00    +0.000 OA
ATOM     10  C   UNL     1       9.242  12.556  20.233  0.00  0.00    +0.000 A 
ATOM     11  C   UNL     1       9.346  11.189  20.381  0.00  0.00    +0.000 A 
ATOM     12  C   UNL     1       9.656  10.458  19.240  0.00  0.00    +0.000 A 
ATOM     13  C   UNL     1       9.855  11.113  18.009  0.00  0.00    +0.000 A 
ATOM     14  C   UNL     1       9.755  12.509  17.886  0.00  0.00    +0.000 A 
ATOM     15  C   UNL     1       9.443  13.232  19.022  0.00  0.00    +0.000 A 
ATOM     16  C   UNL     1       9.262  14.725  19.264  0.00  0.00    +0.000 C 
ENDROOT
BRANCH  16  17
ATOM     17  C   UNL     1       7.796  15.177  19.017  0.00  0.00    +0.000 A 
ATOM     18  C   UNL     1       7.262  16.336  19.603  0.00  0.00    +0.000 A 
ATOM     19  C   UNL     1       5.961  16.763  19.309  0.00  0.00    +0.000 A 
ATOM     20  C   UNL     1       5.166  16.040  18.424  0.00  0.00    +0.000 A 
ATOM     21 CL   UNL     1       3.576  16.578  18.043  0.00  0.00    +0.000 Cl
ATOM     22  C   UNL     1       5.659  14.886  17.827  0.00  0.00    +0.000 A 
ATOM     23  C   UNL     1       6.962  14.467  18.117  0.00  0.00    +0.000 A 
ENDBRANCH  16  17
TORSDOF 1
ENDMDL
MODEL 9
REMARK VINA RESULT:      -7.4      6.051      8.935
REMARK  Name = 
REMARK  2 active torsions:
REMARK  status: ('A' for Active; 'I' for Inactive)
REMARK    1  A    between atoms: C_1  and  C_2
REMARK    2  A    between atoms: C_16  and  C_17
REMARK                            x       y       z     vdW  Elec       q    Type
REMARK                         _______ _______ _______ _____ _____    ______ ____
ROOT
ATOM      1  C   UNL     1       0.302  15.309  18.614  0.00  0.00    +0.000 C 
ATOM      2  C   UNL     1      -0.152  13.862  18.646  0.00  0.00    +0.000 C 
ATOM      3  O   UNL     1      -0.641  13.354  17.640  0.00  0.00    +0.000 OA
ATOM      4  N   UNL     1      -0.005  13.208  19.851  0.00  0.00    +0.000 N 
ATOM      5  C   UNL     1       0.674  13.798  20.995  0.00  0.00    +0.000 C 
ATOM      6  C   UNL     1       0.258  12.961  22.179  0.00  0.00    +0.000 C 
ATOM      7  N   UNL     1      -0.875  12.177  21.700  0.00  0.00    +0.000 N 
ATOM      8  C   UNL     1      -0.931  10.938  22.337  0.00  0.00    +0.000 C 
ATOM      9  O   UNL     1      -1.221  10.708  23.496  0.00  0.00    +0.000 OA
ATOM     10  C   UNL     1      -0.242  10.003  21.443  0.00  0.00    +0.000 A 
ATOM     11  C   UNL     1       0.310   8.789  21.794  0.00  0.00    +0.000 A 
ATOM     12  C   UNL     1       1.190   8.215  20.884  0.00  0.00    +0.000 A 
ATOM     13  C   UNL     1       1.488   8.871  19.674  0.00  0.00    +0.000 A 
ATOM     14  C   UNL     1       0.922  10.114  19.344  0.00  0.00    +0.000 A 
ATOM     15  C   UNL     1       0.045  10.680  20.251  0.00  0.00    +0.000 A 
ATOM     16  C   UNL     1      -0.736  11.987  20.235  0.00  0.00    +0.000 C 
ENDROOT
BRANCH  16  17
ATOM     17  C   UNL     1      -2.121  11.825  19.550  0.00  0.00    +0.000 A 
ATOM     18  C   UNL     1      -2.337  10.912  18.506  0.00  0.00    +0.000 A 
ATOM     19  C   UNL     1      -3.611  10.733  17.952  0.00  0.00    +0.000 A 
ATOM     20  C   UNL     1      -4.696  11.463  18.430  0.00  0.00    +0.000 A 
ATOM     21 CL   UNL     1      -6.266  11.224  17.767  0.00  0.00    +0.000 Cl
ATOM     22  C   UNL     1      -4.519  12.378  19.460  0.00  0.00    +0.000 A 
ATOM     23  C   UNL     1      -3.248  12.549  20.016  0.00  0.00    +0.000 A 
ENDBRANCH  16  17
TORSDOF 1
ENDMDL
