MODEL 1
REMARK VINA RESULT:      -8.1      0.000      0.000
REMARK  Name = 
REMARK  5 active torsions:
REMARK  status: ('A' for Active; 'I' for Inactive)
REMARK    1  A    between atoms: C_6  and  N_7
REMARK    2  A    between atoms: N_7  and  C_8
REMARK    3  A    between atoms: C_8  and  C_9
REMARK    4  A    between atoms: C_12  and  C_13
REMARK    5  A    between atoms: C_13  and  N_14
REMARK                            x       y       z     vdW  Elec       q    Type
REMARK                         _______ _______ _______ _____ _____    ______ ____
ROOT
ATOM      1  C   UNL     1       7.459   7.480  17.831  0.00  0.00    +0.000 A 
ATOM      2  C   UNL     1       6.305   7.310  17.056  0.00  0.00    +0.000 A 
ATOM      3  C   UNL     1       5.624   6.089  17.053  0.00  0.00    +0.000 A 
ATOM      4  C   UNL     1       6.069   5.020  17.848  0.00  0.00    +0.000 A 
ATOM      5  C   UNL     1       7.213   5.195  18.636  0.00  0.00    +0.000 A 
ATOM      6  C   UNL     1       7.894   6.416  18.636  0.00  0.00    +0.000 A 
ENDROOT
BRANCH   1   7
ATOM      7  C   UNL     1       8.253   8.760  17.765  0.00  0.00    +0.000 C 
BRANCH   7   8
ATOM      8  N   UNL     1       8.777   9.140  19.052  0.00  0.00    +0.000 N 
ATOM      9  H   UNL     1       8.560   8.589  19.874  0.00  0.00    +0.000 HD
BRANCH   8  15
ATOM     10 CL   UNL     1      10.972  12.987  16.992  0.00  0.00    +0.000 Cl
ATOM     11  C   UNL     1      10.441  12.199  18.421  0.00  0.00    +0.000 A 
ATOM     12  C   UNL     1      10.638  12.786  19.657  0.00  0.00    +0.000 A 
ATOM     13  C   UNL     1      10.191  12.091  20.766  0.00  0.00    +0.000 A 
ATOM     14  C   UNL     1       9.573  10.854  20.585  0.00  0.00    +0.000 A 
ATOM     15  C   UNL     1       9.405  10.335  19.301  0.00  0.00    +0.000 A 
ATOM     16  N   UNL     1       9.841  11.005  18.218  0.00  0.00    +0.000 NA
ENDBRANCH   8  15
ENDBRANCH   7   8
ENDBRANCH   1   7
BRANCH   4  17
ATOM     17  C   UNL     1       5.315   3.712  17.857  0.00  0.00    +0.000 C 
BRANCH  17  18
ATOM     18  N   UNL     1       4.962   3.338  19.212  0.00  0.00    +0.000 N 
ATOM     19  C   UNL     1       3.589   3.202  19.388  0.00  0.00    +0.000 A 
ATOM     20  N   UNL     1       2.829   2.755  18.375  0.00  0.00    +0.000 NA
ATOM     21  C   UNL     1       1.507   2.650  18.592  0.00  0.00    +0.000 A 
ATOM     22  C   UNL     1       0.911   2.978  19.782  0.00  0.00    +0.000 A 
ATOM     23  C   UNL     1       1.770   3.427  20.758  0.00  0.00    +0.000 A 
ATOM     24  N   UNL     1       3.100   3.553  20.584  0.00  0.00    +0.000 NA
ATOM     25  H   UNL     1       5.287   3.965  19.936  0.00  0.00    +0.000 HD
ENDBRANCH  17  18
ENDBRANCH   4  17
TORSDOF 5
ENDMDL
MODEL 2
REMARK VINA RESULT:      -8.1      0.479      1.118
REMARK  Name = 
REMARK  5 active torsions:
REMARK  status: ('A' for Active; 'I' for Inactive)
REMARK    1  A    between atoms: C_6  and  N_7
REMARK    2  A    between atoms: N_7  and  C_8
REMARK    3  A    between atoms: C_8  and  C_9
REMARK    4  A    between atoms: C_12  and  C_13
REMARK    5  A    between atoms: C_13  and  N_14
REMARK                            x       y       z     vdW  Elec       q    Type
REMARK                         _______ _______ _______ _____ _____    ______ ____
ROOT
ATOM      1  C   UNL     1       7.591   7.830  17.827  0.00  0.00    +0.000 A 
ATOM      2  C   UNL     1       8.128   6.780  18.583  0.00  0.00    +0.000 A 
ATOM      3  C   UNL     1       7.505   5.528  18.604  0.00  0.00    +0.000 A 
ATOM      4  C   UNL     1       6.345   5.294  17.848  0.00  0.00    +0.000 A 
ATOM      5  C   UNL     1       5.818   6.339  17.079  0.00  0.00    +0.000 A 
ATOM      6  C   UNL     1       6.441   7.590  17.061  0.00  0.00    +0.000 A 
ENDROOT
BRANCH   1   7
ATOM      7  C   UNL     1       8.201   9.209  17.876  0.00  0.00    +0.000 C 
BRANCH   7   8
ATOM      8  N   UNL     1       8.934   9.433  19.096  0.00  0.00    +0.000 N 
ATOM      9  H   UNL     1       8.847   8.786  19.870  0.00  0.00    +0.000 HD
BRANCH   8  15
ATOM     10 CL   UNL     1      11.635  13.034  17.195  0.00  0.00    +0.000 Cl
ATOM     11  C   UNL     1      10.876  12.345  18.573  0.00  0.00    +0.000 A 
ATOM     12  C   UNL     1      10.960  12.972  19.803  0.00  0.00    +0.000 A 
ATOM     13  C   UNL     1      10.332  12.356  20.871  0.00  0.00    +0.000 A 
ATOM     14  C   UNL     1       9.654  11.157  20.656  0.00  0.00    +0.000 A 
ATOM     15  C   UNL     1       9.610  10.594  19.380  0.00  0.00    +0.000 A 
ATOM     16  N   UNL     1      10.223  11.186  18.338  0.00  0.00    +0.000 NA
ENDBRANCH   8  15
ENDBRANCH   7   8
ENDBRANCH   1   7
BRANCH   4  17
ATOM     17  C   UNL     1       5.692   3.933  17.858  0.00  0.00    +0.000 C 
BRANCH  17  18
ATOM     18  N   UNL     1       5.220   3.606  19.189  0.00  0.00    +0.000 N 
ATOM     19  C   UNL     1       3.894   3.186  19.197  0.00  0.00    +0.000 A 
ATOM     20  N   UNL     1       3.405   2.501  18.151  0.00  0.00    +0.000 NA
ATOM     21  C   UNL     1       2.116   2.125  18.203  0.00  0.00    +0.000 A 
ATOM     22  C   UNL     1       1.291   2.413  19.259  0.00  0.00    +0.000 A 
ATOM     23  C   UNL     1       1.880   3.120  20.281  0.00  0.00    +0.000 A 
ATOM     24  N   UNL     1       3.166   3.521  20.270  0.00  0.00    +0.000 NA
ATOM     25  H   UNL     1       5.295   4.347  19.873  0.00  0.00    +0.000 HD
ENDBRANCH  17  18
ENDBRANCH   4  17
TORSDOF 5
ENDMDL
MODEL 3
REMARK VINA RESULT:      -8.1      3.245      9.480
REMARK  Name = 
REMARK  5 active torsions:
REMARK  status: ('A' for Active; 'I' for Inactive)
REMARK    1  A    between atoms: C_6  and  N_7
REMARK    2  A    between atoms: N_7  and  C_8
REMARK    3  A    between atoms: C_8  and  C_9
REMARK    4  A    between atoms: C_12  and  C_13
REMARK    5  A    between atoms: C_13  and  N_14
REMARK                            x       y       z     vdW  Elec       q    Type
REMARK                         _______ _______ _______ _____ _____    ______ ____
ROOT
ATOM      1  C   UNL     1       6.872   5.551  17.917  0.00  0.00    +0.000 A 
ATOM      2  C   UNL     1       7.831   5.885  18.882  0.00  0.00    +0.000 A 
ATOM      3  C   UNL     1       8.364   7.177  18.937  0.00  0.00    +0.000 A 
ATOM      4  C   UNL     1       7.928   8.168  18.043  0.00  0.00    +0.000 A 
ATOM      5  C   UNL     1       6.956   7.838  17.090  0.00  0.00    +0.000 A 
ATOM      6  C   UNL     1       6.426   6.546  17.036  0.00  0.00    +0.000 A 
ENDROOT
BRANCH   1   7
ATOM      7  C   UNL     1       6.364   4.136  17.789  0.00  0.00    +0.000 C 
BRANCH   7   8
ATOM      8  N   UNL     1       5.510   3.766  18.888  0.00  0.00    +0.000 N 
ATOM      9  H   UNL     1       5.902   3.344  19.721  0.00  0.00    +0.000 HD
BRANCH   8  15
ATOM     10 CL   UNL     1       1.410   2.827  21.373  0.00  0.00    +0.000 Cl
ATOM     11  C   UNL     1       2.148   3.355  19.916  0.00  0.00    +0.000 A 
ATOM     12  C   UNL     1       1.372   3.740  18.839  0.00  0.00    +0.000 A 
ATOM     13  C   UNL     1       2.035   4.147  17.695  0.00  0.00    +0.000 A 
ATOM     14  C   UNL     1       3.429   4.151  17.687  0.00  0.00    +0.000 A 
ATOM     15  C   UNL     1       4.139   3.755  18.821  0.00  0.00    +0.000 A 
ATOM     16  N   UNL     1       3.499   3.354  19.936  0.00  0.00    +0.000 NA
ENDBRANCH   8  15
ENDBRANCH   7   8
ENDBRANCH   1   7
BRANCH   4  17
ATOM     17  C   UNL     1       8.491   9.566  18.124  0.00  0.00    +0.000 C 
BRANCH  17  18
ATOM     18  N   UNL     1       9.212   9.754  19.367  0.00  0.00    +0.000 N 
ATOM     19  C   UNL     1       9.789  11.015  19.465  0.00  0.00    +0.000 A 
ATOM     20  N   UNL     1       9.179  12.073  18.907  0.00  0.00    +0.000 NA
ATOM     21  C   UNL     1       9.780  13.268  19.021  0.00  0.00    +0.000 A 
ATOM     22  C   UNL     1      10.975  13.450  19.669  0.00  0.00    +0.000 A 
ATOM     23  C   UNL     1      11.525  12.310  20.206  0.00  0.00    +0.000 A 
ATOM     24  N   UNL     1      10.960  11.091  20.112  0.00  0.00    +0.000 NA
ATOM     25  H   UNL     1       9.947   9.082  19.550  0.00  0.00    +0.000 HD
ENDBRANCH  17  18
ENDBRANCH   4  17
TORSDOF 5
ENDMDL
MODEL 4
REMARK VINA RESULT:      -8.0      0.629      1.135
REMARK  Name = 
REMARK  5 active torsions:
REMARK  status: ('A' for Active; 'I' for Inactive)
REMARK    1  A    between atoms: C_6  and  N_7
REMARK    2  A    between atoms: N_7  and  C_8
REMARK    3  A    between atoms: C_8  and  C_9
REMARK    4  A    between atoms: C_12  and  C_13
REMARK    5  A    between atoms: C_13  and  N_14
REMARK                            x       y       z     vdW  Elec       q    Type
REMARK                         _______ _______ _______ _____ _____    ______ ____
ROOT
ATOM      1  C   UNL     1       7.390   7.579  17.828  0.00  0.00    +0.000 A 
ATOM      2  C   UNL     1       6.202   7.411  17.104  0.00  0.00    +0.000 A 
ATOM      3  C   UNL     1       5.533   6.183  17.114  0.00  0.00    +0.000 A 
ATOM      4  C   UNL     1       6.024   5.106  17.869  0.00  0.00    +0.000 A 
ATOM      5  C   UNL     1       7.202   5.280  18.606  0.00  0.00    +0.000 A 
ATOM      6  C   UNL     1       7.871   6.507  18.594  0.00  0.00    +0.000 A 
ENDROOT
BRANCH   1   7
ATOM      7  C   UNL     1       8.169   8.868  17.746  0.00  0.00    +0.000 C 
BRANCH   7   8
ATOM      8  N   UNL     1       8.851   9.168  18.980  0.00  0.00    +0.000 N 
ATOM      9  H   UNL     1       8.784   8.534  19.767  0.00  0.00    +0.000 HD
BRANCH   8  15
ATOM     10 CL   UNL     1      10.952  13.111  17.003  0.00  0.00    +0.000 Cl
ATOM     11  C   UNL     1      10.429  12.285  18.414  0.00  0.00    +0.000 A 
ATOM     12  C   UNL     1      10.595  12.859  19.662  0.00  0.00    +0.000 A 
ATOM     13  C   UNL     1      10.157  12.133  20.755  0.00  0.00    +0.000 A 
ATOM     14  C   UNL     1       9.578  10.882  20.547  0.00  0.00    +0.000 A 
ATOM     15  C   UNL     1       9.440  10.377  19.253  0.00  0.00    +0.000 A 
ATOM     16  N   UNL     1       9.867  11.077  18.186  0.00  0.00    +0.000 NA
ENDBRANCH   8  15
ENDBRANCH   7   8
ENDBRANCH   1   7
BRANCH   4  17
ATOM     17  C   UNL     1       5.283   3.791  17.891  0.00  0.00    +0.000 C 
BRANCH  17  18
ATOM     18  N   UNL     1       3.949   3.950  17.347  0.00  0.00    +0.000 N 
ATOM     19  C   UNL     1       2.955   3.642  18.270  0.00  0.00    +0.000 A 
ATOM     20  N   UNL     1       3.155   3.894  19.573  0.00  0.00    +0.000 NA
ATOM     21  C   UNL     1       2.169   3.571  20.426  0.00  0.00    +0.000 A 
ATOM     22  C   UNL     1       0.988   2.999  20.029  0.00  0.00    +0.000 A 
ATOM     23  C   UNL     1       0.876   2.777  18.677  0.00  0.00    +0.000 A 
ATOM     24  N   UNL     1       1.840   3.080  17.786  0.00  0.00    +0.000 NA
ATOM     25  H   UNL     1       3.751   3.409  16.515  0.00  0.00    +0.000 HD
ENDBRANCH  17  18
ENDBRANCH   4  17
TORSDOF 5
ENDMDL
MODEL 5
REMARK VINA RESULT:      -8.0      1.550      2.009
REMARK  Name = 
REMARK  5 active torsions:
REMARK  status: ('A' for Active; 'I' for Inactive)
REMARK    1  A    between atoms: C_6  and  N_7
REMARK    2  A    between atoms: N_7  and  C_8
REMARK    3  A    between atoms: C_8  and  C_9
REMARK    4  A    between atoms: C_12  and  C_13
REMARK    5  A    between atoms: C_13  and  N_14
REMARK                            x       y       z     vdW  Elec       q    Type
REMARK                         _______ _______ _______ _____ _____    ______ ____
ROOT
ATOM      1  C   UNL     1       7.758   7.878  17.941  0.00  0.00    +0.000 A 
ATOM      2  C   UNL     1       8.197   6.814  18.740  0.00  0.00    +0.000 A 
ATOM      3  C   UNL     1       7.551   5.575  18.691  0.00  0.00    +0.000 A 
ATOM      4  C   UNL     1       6.467   5.367  17.822  0.00  0.00    +0.000 A 
ATOM      5  C   UNL     1       6.039   6.426  17.012  0.00  0.00    +0.000 A 
ATOM      6  C   UNL     1       6.685   7.665  17.063  0.00  0.00    +0.000 A 
ENDROOT
BRANCH   1   7
ATOM      7  C   UNL     1       8.387   9.244  18.059  0.00  0.00    +0.000 C 
BRANCH   7   8
ATOM      8  N   UNL     1       9.017   9.441  19.339  0.00  0.00    +0.000 N 
ATOM      9  H   UNL     1       8.939   8.735  20.061  0.00  0.00    +0.000 HD
BRANCH   8  15
ATOM     10 CL   UNL     1       8.963  12.861  22.828  0.00  0.00    +0.000 Cl
ATOM     11  C   UNL     1       9.625  12.289  21.351  0.00  0.00    +0.000 A 
ATOM     12  C   UNL     1      10.626  12.999  20.712  0.00  0.00    +0.000 A 
ATOM     13  C   UNL     1      11.106  12.482  19.522  0.00  0.00    +0.000 A 
ATOM     14  C   UNL     1      10.568  11.291  19.036  0.00  0.00    +0.000 A 
ATOM     15  C   UNL     1       9.565  10.632  19.747  0.00  0.00    +0.000 A 
ATOM     16  N   UNL     1       9.091  11.131  20.904  0.00  0.00    +0.000 NA
ENDBRANCH   8  15
ENDBRANCH   7   8
ENDBRANCH   1   7
BRANCH   4  17
ATOM     17  C   UNL     1       5.789   4.020  17.759  0.00  0.00    +0.000 C 
BRANCH  17  18
ATOM     18  N   UNL     1       5.347   3.611  19.077  0.00  0.00    +0.000 N 
ATOM     19  C   UNL     1       4.031   3.162  19.083  0.00  0.00    +0.000 A 
ATOM     20  N   UNL     1       3.540   2.521  18.010  0.00  0.00    +0.000 NA
ATOM     21  C   UNL     1       2.261   2.114  18.060  0.00  0.00    +0.000 A 
ATOM     22  C   UNL     1       1.447   2.326  19.143  0.00  0.00    +0.000 A 
ATOM     23  C   UNL     1       2.036   2.991  20.192  0.00  0.00    +0.000 A 
ATOM     24  N   UNL     1       3.313   3.421  20.184  0.00  0.00    +0.000 NA
ATOM     25  H   UNL     1       5.416   4.317  19.799  0.00  0.00    +0.000 HD
ENDBRANCH  17  18
ENDBRANCH   4  17
TORSDOF 5
ENDMDL
MODEL 6
REMARK VINA RESULT:      -8.0      1.480      1.678
REMARK  Name = 
REMARK  5 active torsions:
REMARK  status: ('A' for Active; 'I' for Inactive)
REMARK    1  A    between atoms: C_6  and  N_7
REMARK    2  A    between atoms: N_7  and  C_8
REMARK    3  A    between atoms: C_8  and  C_9
REMARK    4  A    between atoms: C_12  and  C_13
REMARK    5  A    between atoms: C_13  and  N_14
REMARK                            x       y       z     vdW  Elec       q    Type
REMARK                         _______ _______ _______ _____ _____    ______ ____
ROOT
ATOM      1  C   UNL     1       7.637   7.781  17.914  0.00  0.00    +0.000 A 
ATOM      2  C   UNL     1       6.503   7.609  17.110  0.00  0.00    +0.000 A 
ATOM      3  C   UNL     1       5.881   6.360  17.017  0.00  0.00    +0.000 A 
ATOM      4  C   UNL     1       6.366   5.263  17.747  0.00  0.00    +0.000 A 
ATOM      5  C   UNL     1       7.490   5.440  18.564  0.00  0.00    +0.000 A 
ATOM      6  C   UNL     1       8.111   6.688  18.655  0.00  0.00    +0.000 A 
ENDROOT
BRANCH   1   7
ATOM      7  C   UNL     1       8.370   9.099  17.944  0.00  0.00    +0.000 C 
BRANCH   7   8
ATOM      8  N   UNL     1       9.051   9.311  19.196  0.00  0.00    +0.000 N 
ATOM      9  H   UNL     1       9.039   8.594  19.911  0.00  0.00    +0.000 HD
BRANCH   8  15
ATOM     10 CL   UNL     1       9.098  12.639  22.772  0.00  0.00    +0.000 Cl
ATOM     11  C   UNL     1       9.667  12.140  21.231  0.00  0.00    +0.000 A 
ATOM     12  C   UNL     1      10.573  12.919  20.535  0.00  0.00    +0.000 A 
ATOM     13  C   UNL     1      10.982  12.458  19.296  0.00  0.00    +0.000 A 
ATOM     14  C   UNL     1      10.472  11.251  18.822  0.00  0.00    +0.000 A 
ATOM     15  C   UNL     1       9.566  10.520  19.591  0.00  0.00    +0.000 A 
ATOM     16  N   UNL     1       9.161  10.965  20.796  0.00  0.00    +0.000 NA
ENDBRANCH   8  15
ENDBRANCH   7   8
ENDBRANCH   1   7
BRANCH   4  17
ATOM     17  C   UNL     1       5.676   3.923  17.659  0.00  0.00    +0.000 C 
BRANCH  17  18
ATOM     18  N   UNL     1       5.289   3.463  18.977  0.00  0.00    +0.000 N 
ATOM     19  C   UNL     1       3.944   3.117  19.050  0.00  0.00    +0.000 A 
ATOM     20  N   UNL     1       3.332   2.591  17.976  0.00  0.00    +0.000 NA
ATOM     21  C   UNL     1       2.030   2.282  18.093  0.00  0.00    +0.000 A 
ATOM     22  C   UNL     1       1.310   2.484  19.242  0.00  0.00    +0.000 A 
ATOM     23  C   UNL     1       2.020   3.028  20.285  0.00  0.00    +0.000 A 
ATOM     24  N   UNL     1       3.324   3.357  20.212  0.00  0.00    +0.000 NA
ATOM     25  H   UNL     1       5.464   4.111  19.734  0.00  0.00    +0.000 HD
ENDBRANCH  17  18
ENDBRANCH   4  17
TORSDOF 5
ENDMDL
MODEL 7
REMARK VINA RESULT:      -7.9      7.100      9.783
REMARK  Name = 
REMARK  5 active torsions:
REMARK  status: ('A' for Active; 'I' for Inactive)
REMARK    1  A    between atoms: C_6  and  N_7
REMARK    2  A    between atoms: N_7  and  C_8
REMARK    3  A    between atoms: C_8  and  C_9
REMARK    4  A    between atoms: C_12  and  C_13
REMARK    5  A    between atoms: C_13  and  N_14
REMARK                            x       y       z     vdW  Elec       q    Type
REMARK                         _______ _______ _______ _____ _____    ______ ____
ROOT
ATOM      1  C   UNL     1       2.332   7.803  19.038  0.00  0.00    +0.000 A 
ATOM      2  C   UNL     1       1.742   8.160  20.257  0.00  0.00    +0.000 A 
ATOM      3  C   UNL     1       0.831   9.218  20.323  0.00  0.00    +0.000 A 
ATOM      4  C   UNL     1       0.470   9.924  19.164  0.00  0.00    +0.000 A 
ATOM      5  C   UNL     1       1.047   9.556  17.942  0.00  0.00    +0.000 A 
ATOM      6  C   UNL     1       1.960   8.499  17.879  0.00  0.00    +0.000 A 
ENDROOT
BRANCH   1   7
ATOM      7  C   UNL     1       3.388   6.727  18.976  0.00  0.00    +0.000 C 
BRANCH   7   8
ATOM      8  N   UNL     1       3.234   5.756  20.028  0.00  0.00    +0.000 N 
ATOM      9  H   UNL     1       3.733   5.868  20.903  0.00  0.00    +0.000 HD
BRANCH   8  15
ATOM     10 CL   UNL     1       3.733   1.193  18.357  0.00  0.00    +0.000 Cl
ATOM     11  C   UNL     1       2.747   2.369  19.125  0.00  0.00    +0.000 A 
ATOM     12  C   UNL     1       1.467   2.047  19.536  0.00  0.00    +0.000 A 
ATOM     13  C   UNL     1       0.726   3.047  20.141  0.00  0.00    +0.000 A 
ATOM     14  C   UNL     1       1.299   4.307  20.305  0.00  0.00    +0.000 A 
ATOM     15  C   UNL     1       2.602   4.548  19.868  0.00  0.00    +0.000 A 
ATOM     16  N   UNL     1       3.326   3.580  19.276  0.00  0.00    +0.000 NA
ENDBRANCH   8  15
ENDBRANCH   7   8
ENDBRANCH   1   7
BRANCH   4  17
ATOM     17  C   UNL     1      -0.532  11.051  19.239  0.00  0.00    +0.000 C 
BRANCH  17  18
ATOM     18  N   UNL     1      -0.862  11.527  17.911  0.00  0.00    +0.000 N 
ATOM     19  C   UNL     1      -2.227  11.471  17.647  0.00  0.00    +0.000 A 
ATOM     20  N   UNL     1      -3.106  11.671  18.642  0.00  0.00    +0.000 NA
ATOM     21  C   UNL     1      -4.413  11.598  18.340  0.00  0.00    +0.000 A 
ATOM     22  C   UNL     1      -4.879  11.328  17.079  0.00  0.00    +0.000 A 
ATOM     23  C   UNL     1      -3.905  11.137  16.128  0.00  0.00    +0.000 A 
ATOM     24  N   UNL     1      -2.584  11.196  16.387  0.00  0.00    +0.000 NA
ATOM     25  H   UNL     1      -0.400  11.048  17.148  0.00  0.00    +0.000 HD
ENDBRANCH  17  18
ENDBRANCH   4  17
TORSDOF 5
ENDMDL
MODEL 8
REMARK VINA RESULT:      -7.9      7.155      9.781
REMARK  Name = 
REMARK  5 active torsions:
REMARK  status: ('A' for Active; 'I' for Inactive)
REMARK    1  A    between atoms: C_6  and  N_7
REMARK    2  A    between atoms: N_7  and  C_8
REMARK    3  A    between atoms: C_8  and  C_9
REMARK    4  A    between atoms: C_12  and  C_13
REMARK    5  A    between atoms: C_13  and  N_14
REMARK                            x       y       z     vdW  Elec       q    Type
REMARK                         _______ _______ _______ _____ _____    ______ ____
ROOT
ATOM      1  C   UNL     1       2.311   7.921  18.983  0.00  0.00    +0.000 A 
ATOM      2  C   UNL     1       1.958   8.657  17.845  0.00  0.00    +0.000 A 
ATOM      3  C   UNL     1       1.002   9.674  17.926  0.00  0.00    +0.000 A 
ATOM      4  C   UNL     1       0.398   9.993  19.153  0.00  0.00    +0.000 A 
ATOM      5  C   UNL     1       0.764   9.267  20.294  0.00  0.00    +0.000 A 
ATOM      6  C   UNL     1       1.718   8.250  20.211  0.00  0.00    +0.000 A 
ENDROOT
BRANCH   1   7
ATOM      7  C   UNL     1       3.268   6.759  18.886  0.00  0.00    +0.000 C 
BRANCH   7   8
ATOM      8  N   UNL     1       3.156   5.869  20.013  0.00  0.00    +0.000 N 
ATOM      9  H   UNL     1       3.657   6.066  20.871  0.00  0.00    +0.000 HD
BRANCH   8  15
ATOM     10 CL   UNL     1       3.658   1.291  18.383  0.00  0.00    +0.000 Cl
ATOM     11  C   UNL     1       2.718   2.443  19.242  0.00  0.00    +0.000 A 
ATOM     12  C   UNL     1       1.513   2.076  19.812  0.00  0.00    +0.000 A 
ATOM     13  C   UNL     1       0.806   3.058  20.482  0.00  0.00    +0.000 A 
ATOM     14  C   UNL     1       1.336   4.345  20.551  0.00  0.00    +0.000 A 
ATOM     15  C   UNL     1       2.565   4.631  19.955  0.00  0.00    +0.000 A 
ATOM     16  N   UNL     1       3.256   3.681  19.298  0.00  0.00    +0.000 NA
ENDBRANCH   8  15
ENDBRANCH   7   8
ENDBRANCH   1   7
BRANCH   4  17
ATOM     17  C   UNL     1      -0.617  11.108  19.236  0.00  0.00    +0.000 C 
BRANCH  17  18
ATOM     18  N   UNL     1      -0.986  11.559  17.909  0.00  0.00    +0.000 N 
ATOM     19  C   UNL     1      -2.358  11.509  17.691  0.00  0.00    +0.000 A 
ATOM     20  N   UNL     1      -3.204  11.737  18.709  0.00  0.00    +0.000 NA
ATOM     21  C   UNL     1      -4.520  11.669  18.450  0.00  0.00    +0.000 A 
ATOM     22  C   UNL     1      -5.028  11.377  17.210  0.00  0.00    +0.000 A 
ATOM     23  C   UNL     1      -4.087  11.158  16.233  0.00  0.00    +0.000 A 
ATOM     24  N   UNL     1      -2.758  11.211  16.448  0.00  0.00    +0.000 NA
ATOM     25  H   UNL     1      -0.551  11.061  17.143  0.00  0.00    +0.000 HD
ENDBRANCH  17  18
ENDBRANCH   4  17
TORSDOF 5
ENDMDL
MODEL 9
REMARK VINA RESULT:      -7.8      5.085      7.369
REMARK  Name = 
REMARK  5 active torsions:
REMARK  status: ('A' for Active; 'I' for Inactive)
REMARK    1  A    between atoms: C_6  and  N_7
REMARK    2  A    between atoms: N_7  and  C_8
REMARK    3  A    between atoms: C_8  and  C_9
REMARK    4  A    between atoms: C_12  and  C_13
REMARK    5  A    between atoms: C_13  and  N_14
REMARK                            x       y       z     vdW  Elec       q    Type
REMARK                         _______ _______ _______ _____ _____    ______ ____
ROOT
ATOM      1  C   UNL     1       3.265   4.797  19.061  0.00  0.00    +0.000 A 
ATOM      2  C   UNL     1       3.266   4.096  17.848  0.00  0.00    +0.000 A 
ATOM      3  C   UNL     1       4.446   3.952  17.112  0.00  0.00    +0.000 A 
ATOM      4  C   UNL     1       5.656   4.485  17.588  0.00  0.00    +0.000 A 
ATOM      5  C   UNL     1       5.657   5.171  18.809  0.00  0.00    +0.000 A 
ATOM      6  C   UNL     1       4.476   5.315  19.543  0.00  0.00    +0.000 A 
ENDROOT
BRANCH   1   7
ATOM      7  C   UNL     1       1.980   5.040  19.812  0.00  0.00    +0.000 C 
BRANCH   7   8
ATOM      8  N   UNL     1       2.102   6.118  20.761  0.00  0.00    +0.000 N 
ATOM      9  H   UNL     1       2.445   5.937  21.697  0.00  0.00    +0.000 HD
BRANCH   8  15
ATOM     10 CL   UNL     1       1.979   9.923  17.700  0.00  0.00    +0.000 Cl
ATOM     11  C   UNL     1       1.455   9.214  19.173  0.00  0.00    +0.000 A 
ATOM     12  C   UNL     1       0.584   9.893  20.005  0.00  0.00    +0.000 A 
ATOM     13  C   UNL     1       0.211   9.263  21.179  0.00  0.00    +0.000 A 
ATOM     14  C   UNL     1       0.722   7.996  21.458  0.00  0.00    +0.000 A 
ATOM     15  C   UNL     1       1.591   7.375  20.560  0.00  0.00    +0.000 A 
ATOM     16  N   UNL     1       1.960   7.984  19.418  0.00  0.00    +0.000 NA
ENDBRANCH   8  15
ENDBRANCH   7   8
ENDBRANCH   1   7
BRANCH   4  17
ATOM     17  C   UNL     1       6.930   4.305  16.798  0.00  0.00    +0.000 C 
BRANCH  17  18
ATOM     18  N   UNL     1       7.105   5.396  15.861  0.00  0.00    +0.000 N 
ATOM     19  C   UNL     1       7.078   4.972  14.536  0.00  0.00    +0.000 A 
ATOM     20  N   UNL     1       6.300   3.936  14.184  0.00  0.00    +0.000 NA
ATOM     21  C   UNL     1       6.316   3.559  12.895  0.00  0.00    +0.000 A 
ATOM     22  C   UNL     1       7.085   4.174  11.940  0.00  0.00    +0.000 A 
ATOM     23  C   UNL     1       7.849   5.222  12.396  0.00  0.00    +0.000 A 
ATOM     24  N   UNL     1       7.868   5.632  13.679  0.00  0.00    +0.000 NA
ATOM     25  H   UNL     1       7.952   5.938  15.976  0.00  0.00    +0.000 HD
ENDBRANCH  17  18
ENDBRANCH   4  17
TORSDOF 5
ENDMDL
