MODEL 1
REMARK VINA RESULT:      -7.2      0.000      0.000
REMARK  Name = 
REMARK  8 active torsions:
REMARK  status: ('A' for Active; 'I' for Inactive)
REMARK    1  A    between atoms: O_1  and  C_2
REMARK    2  A    between atoms: C_2  and  C_3
REMARK    3  A    between atoms: C_3  and  N_4
REMARK    4  A    between atoms: N_4  and  C_5
REMARK    5  A    between atoms: C_5  and  C_6
REMARK    6  A    between atoms: C_6  and  C_7
REMARK    7  A    between atoms: C_7  and  N_8
REMARK    8  A    between atoms: N_8  and  C_9
REMARK                            x       y       z     vdW  Elec       q    Type
REMARK                         _______ _______ _______ _____ _____    ______ ____
ROOT
ATOM      1  C   UNL     1       5.906   5.266  19.101  0.00  0.00    +0.000 C 
ENDROOT
BRANCH   1   2
ATOM      2  C   UNL     1       4.780   4.717  18.162  0.00  0.00    +0.000 C 
ATOM      3  C   UNL     1       4.281   5.745  17.124  0.00  0.00    +0.000 C 
ATOM      4  C   UNL     1       3.591   6.921  17.795  0.00  0.00    +0.000 C 
ATOM      5  C   UNL     1       2.511   6.470  18.783  0.00  0.00    +0.000 C 
ATOM      6  N   UNL     1       2.903   5.371  19.686  0.00  0.00    +0.000 NA
ATOM      7  C   UNL     1       1.714   4.926  20.438  0.00  0.00    +0.000 C 
ATOM      8  C   UNL     1       2.041   3.805  21.422  0.00  0.00    +0.000 C 
ATOM      9  C   UNL     1       2.667   2.618  20.708  0.00  0.00    +0.000 C 
ATOM     10  C   UNL     1       3.883   3.076  19.914  0.00  0.00    +0.000 C 
ATOM     11  C   UNL     1       3.533   4.238  18.960  0.00  0.00    +0.000 C 
BRANCH   2  12
ATOM     12  O   UNL     1       5.341   3.628  17.406  0.00  0.00    +0.000 OA
ATOM     13  H   UNL     1       5.579   4.024  16.542  0.00  0.00    +0.000 HD
ENDBRANCH   2  12
ENDBRANCH   1   2
BRANCH   1  14
ATOM     14  N   UNL     1       7.177   5.306  18.361  0.00  0.00    +0.000 NA
ATOM     15  H   UNL     1       6.932   5.264  17.376  0.00  0.00    +0.000 HD
BRANCH  14  16
ATOM     16  C   UNL     1       7.924   6.545  18.594  0.00  0.00    +0.000 C 
BRANCH  16  17
ATOM     17  C   UNL     1       7.412   7.642  17.647  0.00  0.00    +0.000 C 
BRANCH  17  18
ATOM     18  C   UNL     1       8.314   8.877  17.702  0.00  0.00    +0.000 C 
BRANCH  18  19
ATOM     19  N   UNL     1       8.794   9.151  19.053  0.00  0.00    +0.000 N 
ATOM     20  H   UNL     1       9.461   8.446  19.365  0.00  0.00    +0.000 HD
BRANCH  19  21
ATOM     21  C   UNL     1       9.338  10.446  19.223  0.00  0.00    +0.000 A 
ATOM     22  C   UNL     1       9.795  10.928  20.455  0.00  0.00    +0.000 A 
ATOM     23  C   UNL     1      10.366  12.196  20.558  0.00  0.00    +0.000 A 
ATOM     24  C   UNL     1      10.495  12.947  19.405  0.00  0.00    +0.000 A 
ATOM     25  N   UNL     1      10.117  12.516  18.187  0.00  0.00    +0.000 NA
ATOM     26  C   UNL     1       9.570  11.276  18.124  0.00  0.00    +0.000 A 
ENDBRANCH  19  21
ENDBRANCH  18  19
ENDBRANCH  17  18
ENDBRANCH  16  17
ENDBRANCH  14  16
ENDBRANCH   1  14
TORSDOF 8
ENDMDL
MODEL 2
REMARK VINA RESULT:      -7.0      3.831      5.523
REMARK  Name = 
REMARK  8 active torsions:
REMARK  status: ('A' for Active; 'I' for Inactive)
REMARK    1  A    between atoms: O_1  and  C_2
REMARK    2  A    between atoms: C_2  and  C_3
REMARK    3  A    between atoms: C_3  and  N_4
REMARK    4  A    between atoms: N_4  and  C_5
REMARK    5  A    between atoms: C_5  and  C_6
REMARK    6  A    between atoms: C_6  and  C_7
REMARK    7  A    between atoms: C_7  and  N_8
REMARK    8  A    between atoms: N_8  and  C_9
REMARK                            x       y       z     vdW  Elec       q    Type
REMARK                         _______ _______ _______ _____ _____    ______ ____
ROOT
ATOM      1  C   UNL     1       5.157   4.763  18.960  0.00  0.00    +0.000 C 
ENDROOT
BRANCH   1   2
ATOM      2  C   UNL     1       3.833   4.829  18.127  0.00  0.00    +0.000 C 
ATOM      3  C   UNL     1       3.382   6.267  17.792  0.00  0.00    +0.000 C 
ATOM      4  C   UNL     1       3.008   7.038  19.047  0.00  0.00    +0.000 C 
ATOM      5  C   UNL     1       2.014   6.270  19.922  0.00  0.00    +0.000 C 
ATOM      6  N   UNL     1       2.329   4.844  20.131  0.00  0.00    +0.000 NA
ATOM      7  C   UNL     1       1.198   4.203  20.826  0.00  0.00    +0.000 C 
ATOM      8  C   UNL     1       1.457   2.725  21.109  0.00  0.00    +0.000 C 
ATOM      9  C   UNL     1       1.760   1.970  19.824  0.00  0.00    +0.000 C 
ATOM     10  C   UNL     1       2.915   2.640  19.092  0.00  0.00    +0.000 C 
ATOM     11  C   UNL     1       2.645   4.141  18.860  0.00  0.00    +0.000 C 
BRANCH   2  12
ATOM     12  O   UNL     1       4.084   4.186  16.864  0.00  0.00    +0.000 OA
ATOM     13  H   UNL     1       4.218   4.924  16.234  0.00  0.00    +0.000 HD
ENDBRANCH   2  12
ENDBRANCH   1   2
BRANCH   1  14
ATOM     14  N   UNL     1       6.153   3.969  18.223  0.00  0.00    +0.000 NA
ATOM     15  H   UNL     1       5.780   3.848  17.286  0.00  0.00    +0.000 HD
BRANCH  14  16
ATOM     16  C   UNL     1       7.446   4.650  18.116  0.00  0.00    +0.000 C 
BRANCH  16  17
ATOM     17  C   UNL     1       7.222   6.129  17.760  0.00  0.00    +0.000 C 
BRANCH  17  18
ATOM     18  C   UNL     1       7.255   6.337  16.243  0.00  0.00    +0.000 C 
BRANCH  18  19
ATOM     19  N   UNL     1       6.100   5.741  15.579  0.00  0.00    +0.000 N 
ATOM     20  H   UNL     1       5.370   6.431  15.402  0.00  0.00    +0.000 HD
BRANCH  19  21
ATOM     21  C   UNL     1       6.413   5.045  14.388  0.00  0.00    +0.000 A 
ATOM     22  C   UNL     1       5.587   4.056  13.839  0.00  0.00    +0.000 A 
ATOM     23  C   UNL     1       5.921   3.434  12.637  0.00  0.00    +0.000 A 
ATOM     24  C   UNL     1       7.070   3.845  11.988  0.00  0.00    +0.000 A 
ATOM     25  N   UNL     1       7.875   4.823  12.443  0.00  0.00    +0.000 NA
ATOM     26  C   UNL     1       7.518   5.409  13.614  0.00  0.00    +0.000 A 
ENDBRANCH  19  21
ENDBRANCH  18  19
ENDBRANCH  17  18
ENDBRANCH  16  17
ENDBRANCH  14  16
ENDBRANCH   1  14
TORSDOF 8
ENDMDL
MODEL 3
REMARK VINA RESULT:      -6.9      1.054      1.099
REMARK  Name = 
REMARK  8 active torsions:
REMARK  status: ('A' for Active; 'I' for Inactive)
REMARK    1  A    between atoms: O_1  and  C_2
REMARK    2  A    between atoms: C_2  and  C_3
REMARK    3  A    between atoms: C_3  and  N_4
REMARK    4  A    between atoms: N_4  and  C_5
REMARK    5  A    between atoms: C_5  and  C_6
REMARK    6  A    between atoms: C_6  and  C_7
REMARK    7  A    between atoms: C_7  and  N_8
REMARK    8  A    between atoms: N_8  and  C_9
REMARK                            x       y       z     vdW  Elec       q    Type
REMARK                         _______ _______ _______ _____ _____    ______ ____
ROOT
ATOM      1  C   UNL     1       6.384   5.198  18.528  0.00  0.00    +0.000 C 
ENDROOT
BRANCH   1   2
ATOM      2  C   UNL     1       5.178   4.761  17.630  0.00  0.00    +0.000 C 
ATOM      3  C   UNL     1       4.723   5.845  16.630  0.00  0.00    +0.000 C 
ATOM      4  C   UNL     1       4.161   7.061  17.347  0.00  0.00    +0.000 C 
ATOM      5  C   UNL     1       3.089   6.682  18.374  0.00  0.00    +0.000 C 
ATOM      6  N   UNL     1       3.426   5.540  19.244  0.00  0.00    +0.000 NA
ATOM      7  C   UNL     1       2.238   5.180  20.039  0.00  0.00    +0.000 C 
ATOM      8  C   UNL     1       2.511   4.019  20.992  0.00  0.00    +0.000 C 
ATOM      9  C   UNL     1       3.006   2.797  20.234  0.00  0.00    +0.000 C 
ATOM     10  C   UNL     1       4.222   3.168  19.396  0.00  0.00    +0.000 C 
ATOM     11  C   UNL     1       3.930   4.372  18.475  0.00  0.00    +0.000 C 
BRANCH   2  12
ATOM     12  O   UNL     1       5.614   3.643  16.836  0.00  0.00    +0.000 OA
ATOM     13  H   UNL     1       5.990   3.011  17.484  0.00  0.00    +0.000 HD
ENDBRANCH   2  12
ENDBRANCH   1   2
BRANCH   1  14
ATOM     14  N   UNL     1       7.305   6.024  17.732  0.00  0.00    +0.000 NA
ATOM     15  H   UNL     1       6.725   6.547  17.082  0.00  0.00    +0.000 HD
BRANCH  14  16
ATOM     16  C   UNL     1       8.052   6.983  18.552  0.00  0.00    +0.000 C 
BRANCH  16  17
ATOM     17  C   UNL     1       7.949   8.384  17.928  0.00  0.00    +0.000 C 
BRANCH  17  18
ATOM     18  C   UNL     1       8.791   9.395  18.712  0.00  0.00    +0.000 C 
BRANCH  18  19
ATOM     19  N   UNL     1       8.988  10.639  17.974  0.00  0.00    +0.000 N 
ATOM     20  H   UNL     1       8.143  11.210  17.967  0.00  0.00    +0.000 HD
BRANCH  19  21
ATOM     21  C   UNL     1      10.091  11.405  18.418  0.00  0.00    +0.000 A 
ATOM     22  C   UNL     1      10.552  11.391  19.740  0.00  0.00    +0.000 A 
ATOM     23  C   UNL     1      11.673  12.131  20.113  0.00  0.00    +0.000 A 
ATOM     24  C   UNL     1      12.333  12.851  19.136  0.00  0.00    +0.000 A 
ATOM     25  N   UNL     1      11.964  12.865  17.841  0.00  0.00    +0.000 NA
ATOM     26  C   UNL     1      10.871  12.130  17.513  0.00  0.00    +0.000 A 
ENDBRANCH  19  21
ENDBRANCH  18  19
ENDBRANCH  17  18
ENDBRANCH  16  17
ENDBRANCH  14  16
ENDBRANCH   1  14
TORSDOF 8
ENDMDL
MODEL 4
REMARK VINA RESULT:      -6.9      3.614      5.445
REMARK  Name = 
REMARK  8 active torsions:
REMARK  status: ('A' for Active; 'I' for Inactive)
REMARK    1  A    between atoms: O_1  and  C_2
REMARK    2  A    between atoms: C_2  and  C_3
REMARK    3  A    between atoms: C_3  and  N_4
REMARK    4  A    between atoms: N_4  and  C_5
REMARK    5  A    between atoms: C_5  and  C_6
REMARK    6  A    between atoms: C_6  and  C_7
REMARK    7  A    between atoms: C_7  and  N_8
REMARK    8  A    between atoms: N_8  and  C_9
REMARK                            x       y       z     vdW  Elec       q    Type
REMARK                         _______ _______ _______ _____ _____    ______ ____
ROOT
ATOM      1  C   UNL     1       5.138   5.289  19.338  0.00  0.00    +0.000 C 
ENDROOT
BRANCH   1   2
ATOM      2  C   UNL     1       3.916   5.235  18.361  0.00  0.00    +0.000 C 
ATOM      3  C   UNL     1       3.321   6.621  18.033  0.00  0.00    +0.000 C 
ATOM      4  C   UNL     1       2.715   7.271  19.266  0.00  0.00    +0.000 C 
ATOM      5  C   UNL     1       1.739   6.338  19.989  0.00  0.00    +0.000 C 
ATOM      6  N   UNL     1       2.211   4.954  20.176  0.00  0.00    +0.000 NA
ATOM      7  C   UNL     1       1.103   4.140  20.710  0.00  0.00    +0.000 C 
ATOM      8  C   UNL     1       1.520   2.692  20.961  0.00  0.00    +0.000 C 
ATOM      9  C   UNL     1       2.057   2.052  19.691  0.00  0.00    +0.000 C 
ATOM     10  C   UNL     1       3.189   2.899  19.125  0.00  0.00    +0.000 C 
ATOM     11  C   UNL     1       2.753   4.366  18.923  0.00  0.00    +0.000 C 
BRANCH   2  12
ATOM     12  O   UNL     1       4.385   4.697  17.111  0.00  0.00    +0.000 OA
ATOM     13  H   UNL     1       4.171   5.387  16.450  0.00  0.00    +0.000 HD
ENDBRANCH   2  12
ENDBRANCH   1   2
BRANCH   1  14
ATOM     14  N   UNL     1       6.247   4.508  18.770  0.00  0.00    +0.000 NA
ATOM     15  H   UNL     1       5.967   4.268  17.823  0.00  0.00    +0.000 HD
BRANCH  14  16
ATOM     16  C   UNL     1       7.494   5.274  18.697  0.00  0.00    +0.000 C 
BRANCH  16  17
ATOM     17  C   UNL     1       7.239   6.607  17.975  0.00  0.00    +0.000 C 
BRANCH  17  18
ATOM     18  C   UNL     1       7.122   6.396  16.463  0.00  0.00    +0.000 C 
BRANCH  18  19
ATOM     19  N   UNL     1       7.315   5.000  16.084  0.00  0.00    +0.000 N 
ATOM     20  H   UNL     1       6.739   4.373  16.647  0.00  0.00    +0.000 HD
BRANCH  19  21
ATOM     21  C   UNL     1       7.113   4.740  14.708  0.00  0.00    +0.000 A 
ATOM     22  C   UNL     1       7.847   5.370  13.694  0.00  0.00    +0.000 A 
ATOM     23  C   UNL     1       7.640   5.043  12.355  0.00  0.00    +0.000 A 
ATOM     24  C   UNL     1       6.715   4.059  12.061  0.00  0.00    +0.000 A 
ATOM     25  N   UNL     1       6.016   3.387  12.994  0.00  0.00    +0.000 NA
ATOM     26  C   UNL     1       6.246   3.729  14.288  0.00  0.00    +0.000 A 
ENDBRANCH  19  21
ENDBRANCH  18  19
ENDBRANCH  17  18
ENDBRANCH  16  17
ENDBRANCH  14  16
ENDBRANCH   1  14
TORSDOF 8
ENDMDL
MODEL 5
REMARK VINA RESULT:      -6.8      4.059      5.822
REMARK  Name = 
REMARK  8 active torsions:
REMARK  status: ('A' for Active; 'I' for Inactive)
REMARK    1  A    between atoms: O_1  and  C_2
REMARK    2  A    between atoms: C_2  and  C_3
REMARK    3  A    between atoms: C_3  and  N_4
REMARK    4  A    between atoms: N_4  and  C_5
REMARK    5  A    between atoms: C_5  and  C_6
REMARK    6  A    between atoms: C_6  and  C_7
REMARK    7  A    between atoms: C_7  and  N_8
REMARK    8  A    between atoms: N_8  and  C_9
REMARK                            x       y       z     vdW  Elec       q    Type
REMARK                         _______ _______ _______ _____ _____    ______ ____
ROOT
ATOM      1  C   UNL     1       4.626   5.692  19.459  0.00  0.00    +0.000 C 
ENDROOT
BRANCH   1   2
ATOM      2  C   UNL     1       3.337   5.956  18.611  0.00  0.00    +0.000 C 
ATOM      3  C   UNL     1       2.406   7.029  19.216  0.00  0.00    +0.000 C 
ATOM      4  C   UNL     1       1.825   6.575  20.545  0.00  0.00    +0.000 C 
ATOM      5  C   UNL     1       1.185   5.186  20.452  0.00  0.00    +0.000 C 
ATOM      6  N   UNL     1       1.982   4.173  19.734  0.00  0.00    +0.000 NA
ATOM      7  C   UNL     1       1.164   2.957  19.565  0.00  0.00    +0.000 C 
ATOM      8  C   UNL     1       1.928   1.843  18.853  0.00  0.00    +0.000 C 
ATOM      9  C   UNL     1       2.435   2.309  17.498  0.00  0.00    +0.000 C 
ATOM     10  C   UNL     1       3.264   3.576  17.665  0.00  0.00    +0.000 C 
ATOM     11  C   UNL     1       2.483   4.668  18.426  0.00  0.00    +0.000 C 
BRANCH   2  12
ATOM     12  O   UNL     1       3.758   6.468  17.334  0.00  0.00    +0.000 OA
ATOM     13  H   UNL     1       4.366   5.784  16.983  0.00  0.00    +0.000 HD
ENDBRANCH   2  12
ENDBRANCH   1   2
BRANCH   1  14
ATOM     14  N   UNL     1       5.813   6.005  18.648  0.00  0.00    +0.000 NA
ATOM     15  H   UNL     1       5.871   7.019  18.615  0.00  0.00    +0.000 HD
BRANCH  14  16
ATOM     16  C   UNL     1       7.051   5.495  19.243  0.00  0.00    +0.000 C 
BRANCH  16  17
ATOM     17  C   UNL     1       7.986   4.989  18.132  0.00  0.00    +0.000 C 
BRANCH  17  18
ATOM     18  C   UNL     1       7.186   4.543  16.905  0.00  0.00    +0.000 C 
BRANCH  18  19
ATOM     19  N   UNL     1       7.272   5.504  15.810  0.00  0.00    +0.000 N 
ATOM     20  H   UNL     1       8.173   5.984  15.801  0.00  0.00    +0.000 HD
BRANCH  19  21
ATOM     21  C   UNL     1       7.000   4.954  14.535  0.00  0.00    +0.000 A 
ATOM     22  C   UNL     1       7.752   5.259  13.393  0.00  0.00    +0.000 A 
ATOM     23  C   UNL     1       7.469   4.653  12.170  0.00  0.00    +0.000 A 
ATOM     24  C   UNL     1       6.449   3.722  12.125  0.00  0.00    +0.000 A 
ATOM     25  N   UNL     1       5.724   3.355  13.199  0.00  0.00    +0.000 NA
ATOM     26  C   UNL     1       6.030   3.962  14.374  0.00  0.00    +0.000 A 
ENDBRANCH  19  21
ENDBRANCH  18  19
ENDBRANCH  17  18
ENDBRANCH  16  17
ENDBRANCH  14  16
ENDBRANCH   1  14
TORSDOF 8
ENDMDL
MODEL 6
REMARK VINA RESULT:      -6.7      4.872      8.075
REMARK  Name = 
REMARK  8 active torsions:
REMARK  status: ('A' for Active; 'I' for Inactive)
REMARK    1  A    between atoms: O_1  and  C_2
REMARK    2  A    between atoms: C_2  and  C_3
REMARK    3  A    between atoms: C_3  and  N_4
REMARK    4  A    between atoms: N_4  and  C_5
REMARK    5  A    between atoms: C_5  and  C_6
REMARK    6  A    between atoms: C_6  and  C_7
REMARK    7  A    between atoms: C_7  and  N_8
REMARK    8  A    between atoms: N_8  and  C_9
REMARK                            x       y       z     vdW  Elec       q    Type
REMARK                         _______ _______ _______ _____ _____    ______ ____
ROOT
ATOM      1  C   UNL     1       2.228   6.813  18.121  0.00  0.00    +0.000 C 
ENDROOT
BRANCH   1   2
ATOM      2  C   UNL     1       3.247   5.930  18.917  0.00  0.00    +0.000 C 
ATOM      3  C   UNL     1       4.635   5.831  18.250  0.00  0.00    +0.000 C 
ATOM      4  C   UNL     1       4.561   5.107  16.916  0.00  0.00    +0.000 C 
ATOM      5  C   UNL     1       3.835   3.763  17.027  0.00  0.00    +0.000 C 
ATOM      6  N   UNL     1       2.579   3.788  17.800  0.00  0.00    +0.000 NA
ATOM      7  C   UNL     1       2.101   2.404  17.976  0.00  0.00    +0.000 C 
ATOM      8  C   UNL     1       0.782   2.343  18.745  0.00  0.00    +0.000 C 
ATOM      9  C   UNL     1       0.912   3.015  20.103  0.00  0.00    +0.000 C 
ATOM     10  C   UNL     1       1.424   4.438  19.927  0.00  0.00    +0.000 C 
ATOM     11  C   UNL     1       2.733   4.473  19.110  0.00  0.00    +0.000 C 
BRANCH   2  12
ATOM     12  O   UNL     1       3.461   6.560  20.193  0.00  0.00    +0.000 OA
ATOM     13  H   UNL     1       2.574   6.580  20.609  0.00  0.00    +0.000 HD
ENDBRANCH   2  12
ENDBRANCH   1   2
BRANCH   1  14
ATOM     14  N   UNL     1       2.836   8.124  17.845  0.00  0.00    +0.000 NA
ATOM     15  H   UNL     1       3.378   8.010  16.994  0.00  0.00    +0.000 HD
BRANCH  14  16
ATOM     16  C   UNL     1       1.836   9.170  17.613  0.00  0.00    +0.000 C 
BRANCH  16  17
ATOM     17  C   UNL     1       1.276   9.656  18.960  0.00  0.00    +0.000 C 
BRANCH  17  18
ATOM     18  C   UNL     1      -0.153  10.182  18.802  0.00  0.00    +0.000 C 
BRANCH  18  19
ATOM     19  N   UNL     1      -0.691   9.924  17.470  0.00  0.00    +0.000 N 
ATOM     20  H   UNL     1      -0.712   8.926  17.259  0.00  0.00    +0.000 HD
BRANCH  19  21
ATOM     21  C   UNL     1      -1.963  10.497  17.238  0.00  0.00    +0.000 A 
ATOM     22  C   UNL     1      -2.621  10.430  16.003  0.00  0.00    +0.000 A 
ATOM     23  C   UNL     1      -3.895  10.972  15.843  0.00  0.00    +0.000 A 
ATOM     24  C   UNL     1      -4.501  11.546  16.944  0.00  0.00    +0.000 A 
ATOM     25  N   UNL     1      -3.938  11.597  18.166  0.00  0.00    +0.000 NA
ATOM     26  C   UNL     1      -2.699  11.056  18.286  0.00  0.00    +0.000 A 
ENDBRANCH  19  21
ENDBRANCH  18  19
ENDBRANCH  17  18
ENDBRANCH  16  17
ENDBRANCH  14  16
ENDBRANCH   1  14
TORSDOF 8
ENDMDL
MODEL 7
REMARK VINA RESULT:      -6.7      1.989      3.116
REMARK  Name = 
REMARK  8 active torsions:
REMARK  status: ('A' for Active; 'I' for Inactive)
REMARK    1  A    between atoms: O_1  and  C_2
REMARK    2  A    between atoms: C_2  and  C_3
REMARK    3  A    between atoms: C_3  and  N_4
REMARK    4  A    between atoms: N_4  and  C_5
REMARK    5  A    between atoms: C_5  and  C_6
REMARK    6  A    between atoms: C_6  and  C_7
REMARK    7  A    between atoms: C_7  and  N_8
REMARK    8  A    between atoms: N_8  and  C_9
REMARK                            x       y       z     vdW  Elec       q    Type
REMARK                         _______ _______ _______ _____ _____    ______ ____
ROOT
ATOM      1  C   UNL     1       6.692   6.896  17.756  0.00  0.00    +0.000 C 
ENDROOT
BRANCH   1   2
ATOM      2  C   UNL     1       6.772   5.417  18.262  0.00  0.00    +0.000 C 
ATOM      3  C   UNL     1       7.620   4.497  17.359  0.00  0.00    +0.000 C 
ATOM      4  C   UNL     1       6.988   4.330  15.986  0.00  0.00    +0.000 C 
ATOM      5  C   UNL     1       5.516   3.918  16.075  0.00  0.00    +0.000 C 
ATOM      6  N   UNL     1       4.708   4.672  17.052  0.00  0.00    +0.000 NA
ATOM      7  C   UNL     1       3.378   4.044  17.157  0.00  0.00    +0.000 C 
ATOM      8  C   UNL     1       2.465   4.785  18.132  0.00  0.00    +0.000 C 
ATOM      9  C   UNL     1       3.098   4.873  19.512  0.00  0.00    +0.000 C 
ATOM     10  C   UNL     1       4.480   5.504  19.406  0.00  0.00    +0.000 C 
ATOM     11  C   UNL     1       5.365   4.761  18.382  0.00  0.00    +0.000 C 
BRANCH   2  12
ATOM     12  O   UNL     1       7.429   5.433  19.543  0.00  0.00    +0.000 OA
ATOM     13  H   UNL     1       8.373   5.273  19.337  0.00  0.00    +0.000 HD
ENDBRANCH   2  12
ENDBRANCH   1   2
BRANCH   1  14
ATOM     14  N   UNL     1       7.976   7.566  18.014  0.00  0.00    +0.000 NA
ATOM     15  H   UNL     1       8.636   7.175  17.348  0.00  0.00    +0.000 HD
BRANCH  14  16
ATOM     16  C   UNL     1       7.908   9.014  17.793  0.00  0.00    +0.000 C 
BRANCH  16  17
ATOM     17  C   UNL     1       8.904   9.724  18.724  0.00  0.00    +0.000 C 
BRANCH  17  18
ATOM     18  C   UNL     1       9.208  11.138  18.223  0.00  0.00    +0.000 C 
BRANCH  18  19
ATOM     19  N   UNL     1      10.642  11.410  18.172  0.00  0.00    +0.000 N 
ATOM     20  H   UNL     1      11.076  10.989  17.350  0.00  0.00    +0.000 HD
BRANCH  19  21
ATOM     21  C   UNL     1      10.974  12.782  18.249  0.00  0.00    +0.000 A 
ATOM     22  C   UNL     1      11.389  13.405  19.433  0.00  0.00    +0.000 A 
ATOM     23  C   UNL     1      11.750  14.751  19.443  0.00  0.00    +0.000 A 
ATOM     24  C   UNL     1      11.716  15.443  18.247  0.00  0.00    +0.000 A 
ATOM     25  N   UNL     1      11.372  14.886  17.071  0.00  0.00    +0.000 NA
ATOM     26  C   UNL     1      11.030  13.572  17.098  0.00  0.00    +0.000 A 
ENDBRANCH  19  21
ENDBRANCH  18  19
ENDBRANCH  17  18
ENDBRANCH  16  17
ENDBRANCH  14  16
ENDBRANCH   1  14
TORSDOF 8
ENDMDL
MODEL 8
REMARK VINA RESULT:      -6.7      5.002      8.037
REMARK  Name = 
REMARK  8 active torsions:
REMARK  status: ('A' for Active; 'I' for Inactive)
REMARK    1  A    between atoms: O_1  and  C_2
REMARK    2  A    between atoms: C_2  and  C_3
REMARK    3  A    between atoms: C_3  and  N_4
REMARK    4  A    between atoms: N_4  and  C_5
REMARK    5  A    between atoms: C_5  and  C_6
REMARK    6  A    between atoms: C_6  and  C_7
REMARK    7  A    between atoms: C_7  and  N_8
REMARK    8  A    between atoms: N_8  and  C_9
REMARK                            x       y       z     vdW  Elec       q    Type
REMARK                         _______ _______ _______ _____ _____    ______ ____
ROOT
ATOM      1  C   UNL     1       2.176   6.744  18.011  0.00  0.00    +0.000 C 
ENDROOT
BRANCH   1   2
ATOM      2  C   UNL     1       3.204   5.919  18.857  0.00  0.00    +0.000 C 
ATOM      3  C   UNL     1       4.609   5.844  18.223  0.00  0.00    +0.000 C 
ATOM      4  C   UNL     1       4.587   5.076  16.911  0.00  0.00    +0.000 C 
ATOM      5  C   UNL     1       3.901   3.714  17.052  0.00  0.00    +0.000 C 
ATOM      6  N   UNL     1       2.628   3.723  17.797  0.00  0.00    +0.000 NA
ATOM      7  C   UNL     1       2.190   2.331  18.009  0.00  0.00    +0.000 C 
ATOM      8  C   UNL     1       0.858   2.252  18.752  0.00  0.00    +0.000 C 
ATOM      9  C   UNL     1       0.937   2.971  20.090  0.00  0.00    +0.000 C 
ATOM     10  C   UNL     1       1.408   4.404  19.878  0.00  0.00    +0.000 C 
ATOM     11  C   UNL     1       2.732   4.454  19.087  0.00  0.00    +0.000 C 
BRANCH   2  12
ATOM     12  O   UNL     1       3.370   6.597  20.115  0.00  0.00    +0.000 OA
ATOM     13  H   UNL     1       2.800   7.391  20.045  0.00  0.00    +0.000 HD
ENDBRANCH   2  12
ENDBRANCH   1   2
BRANCH   1  14
ATOM     14  N   UNL     1       1.873   8.002  18.710  0.00  0.00    +0.000 NA
ATOM     15  H   UNL     1       2.627   8.144  19.376  0.00  0.00    +0.000 HD
BRANCH  14  16
ATOM     16  C   UNL     1       1.840   9.154  17.805  0.00  0.00    +0.000 C 
BRANCH  16  17
ATOM     17  C   UNL     1       1.554  10.433  18.608  0.00  0.00    +0.000 C 
BRANCH  17  18
ATOM     18  C   UNL     1       0.068  10.799  18.543  0.00  0.00    +0.000 C 
BRANCH  18  19
ATOM     19  N   UNL     1      -0.672   9.941  17.624  0.00  0.00    +0.000 N 
ATOM     20  H   UNL     1      -0.705   8.976  17.954  0.00  0.00    +0.000 HD
BRANCH  19  21
ATOM     21  C   UNL     1      -1.977  10.399  17.328  0.00  0.00    +0.000 A 
ATOM     22  C   UNL     1      -2.807  11.011  18.275  0.00  0.00    +0.000 A 
ATOM     23  C   UNL     1      -4.068  11.486  17.919  0.00  0.00    +0.000 A 
ATOM     24  C   UNL     1      -4.460  11.365  16.599  0.00  0.00    +0.000 A 
ATOM     25  N   UNL     1      -3.687  10.830  15.636  0.00  0.00    +0.000 NA
ATOM     26  C   UNL     1      -2.464  10.381  16.019  0.00  0.00    +0.000 A 
ENDBRANCH  19  21
ENDBRANCH  18  19
ENDBRANCH  17  18
ENDBRANCH  16  17
ENDBRANCH  14  16
ENDBRANCH   1  14
TORSDOF 8
ENDMDL
MODEL 9
REMARK VINA RESULT:      -6.7      1.227      1.465
REMARK  Name = 
REMARK  8 active torsions:
REMARK  status: ('A' for Active; 'I' for Inactive)
REMARK    1  A    between atoms: O_1  and  C_2
REMARK    2  A    between atoms: C_2  and  C_3
REMARK    3  A    between atoms: C_3  and  N_4
REMARK    4  A    between atoms: N_4  and  C_5
REMARK    5  A    between atoms: C_5  and  C_6
REMARK    6  A    between atoms: C_6  and  C_7
REMARK    7  A    between atoms: C_7  and  N_8
REMARK    8  A    between atoms: N_8  and  C_9
REMARK                            x       y       z     vdW  Elec       q    Type
REMARK                         _______ _______ _______ _____ _____    ______ ____
ROOT
ATOM      1  C   UNL     1       5.307   5.324  18.782  0.00  0.00    +0.000 C 
ENDROOT
BRANCH   1   2
ATOM      2  C   UNL     1       4.103   5.534  17.803  0.00  0.00    +0.000 C 
ATOM      3  C   UNL     1       3.395   6.894  17.972  0.00  0.00    +0.000 C 
ATOM      4  C   UNL     1       2.723   7.006  19.331  0.00  0.00    +0.000 C 
ATOM      5  C   UNL     1       1.824   5.803  19.631  0.00  0.00    +0.000 C 
ATOM      6  N   UNL     1       2.413   4.485  19.327  0.00  0.00    +0.000 NA
ATOM      7  C   UNL     1       1.374   3.451  19.489  0.00  0.00    +0.000 C 
ATOM      8  C   UNL     1       1.911   2.047  19.219  0.00  0.00    +0.000 C 
ATOM      9  C   UNL     1       2.514   1.952  17.826  0.00  0.00    +0.000 C 
ATOM     10  C   UNL     1       3.573   3.031  17.648  0.00  0.00    +0.000 C 
ATOM     11  C   UNL     1       3.015   4.433  17.969  0.00  0.00    +0.000 C 
BRANCH   2  12
ATOM     12  O   UNL     1       4.629   5.521  16.463  0.00  0.00    +0.000 OA
ATOM     13  H   UNL     1       4.876   6.453  16.287  0.00  0.00    +0.000 HD
ENDBRANCH   2  12
ENDBRANCH   1   2
BRANCH   1  14
ATOM     14  N   UNL     1       6.524   5.054  18.002  0.00  0.00    +0.000 NA
ATOM     15  H   UNL     1       6.299   5.286  17.039  0.00  0.00    +0.000 HD
BRANCH  14  16
ATOM     16  C   UNL     1       7.656   5.887  18.420  0.00  0.00    +0.000 C 
BRANCH  16  17
ATOM     17  C   UNL     1       7.603   7.235  17.684  0.00  0.00    +0.000 C 
BRANCH  17  18
ATOM     18  C   UNL     1       8.387   8.306  18.447  0.00  0.00    +0.000 C 
BRANCH  18  19
ATOM     19  N   UNL     1       8.322   9.609  17.793  0.00  0.00    +0.000 N 
ATOM     20  H   UNL     1       7.362   9.869  17.566  0.00  0.00    +0.000 HD
BRANCH  19  21
ATOM     21  C   UNL     1       8.952  10.651  18.513  0.00  0.00    +0.000 A 
ATOM     22  C   UNL     1       9.526  10.469  19.778  0.00  0.00    +0.000 A 
ATOM     23  C   UNL     1      10.175  11.520  20.424  0.00  0.00    +0.000 A 
ATOM     24  C   UNL     1      10.264  12.732  19.768  0.00  0.00    +0.000 A 
ATOM     25  N   UNL     1       9.774  12.952  18.534  0.00  0.00    +0.000 NA
ATOM     26  C   UNL     1       9.151  11.906  17.933  0.00  0.00    +0.000 A 
ENDBRANCH  19  21
ENDBRANCH  18  19
ENDBRANCH  17  18
ENDBRANCH  16  17
ENDBRANCH  14  16
ENDBRANCH   1  14
TORSDOF 8
ENDMDL
