MODEL 1
REMARK VINA RESULT:      -7.5      0.000      0.000
REMARK  Name = 
REMARK  8 active torsions:
REMARK  status: ('A' for Active; 'I' for Inactive)
REMARK    1  A    between atoms: C_1  and  C_2
REMARK    2  A    between atoms: C_2  and  O_3
REMARK    3  A    between atoms: O_3  and  C_4
REMARK    4  A    between atoms: C_10  and  S_11
REMARK    5  A    between atoms: S_11  and  N_14
REMARK    6  A    between atoms: N_17  and  C_18
REMARK    7  A    between atoms: C_18  and  C_19
REMARK    8  A    between atoms: C_18  and  C_20
REMARK                            x       y       z     vdW  Elec       q    Type
REMARK                         _______ _______ _______ _____ _____    ______ ____
ROOT
ATOM      1  S   UNL     1       6.494   4.972  17.162  0.00  0.00    +0.000 S 
ATOM      2  O   UNL     1       7.109   6.196  16.683  0.00  0.00    +0.000 OA
ATOM      3  O   UNL     1       7.065   4.284  18.303  0.00  0.00    +0.000 OA
ENDROOT
BRANCH   1  10
ATOM      4  C   UNL     1       3.837   4.296  17.647  0.00  0.00    +0.000 A 
ATOM      5  C   UNL     1       2.501   4.663  17.875  0.00  0.00    +0.000 A 
ATOM      6  C   UNL     1       2.123   6.007  17.965  0.00  0.00    +0.000 A 
ATOM      7  C   UNL     1       3.080   7.005  17.828  0.00  0.00    +0.000 A 
ATOM      8 CL   UNL     1       2.610   8.654  17.946  0.00  0.00    +0.000 Cl
ATOM      9  C   UNL     1       4.407   6.671  17.591  0.00  0.00    +0.000 A 
ATOM     10  C   UNL     1       4.784   5.320  17.499  0.00  0.00    +0.000 A 
BRANCH   4  11
ATOM     11  O   UNL     1       4.259   2.993  17.577  0.00  0.00    +0.000 OA
BRANCH  11  13
ATOM     12  C   UNL     1       4.332   2.258  19.868  0.00  0.00    +0.000 C 
ATOM     13  C   UNL     1       3.678   2.079  18.512  0.00  0.00    +0.000 C 
ENDBRANCH  11  13
ENDBRANCH   4  11
ENDBRANCH   1  10
BRANCH   1  14
ATOM     14  N   UNL     1       6.504   3.907  15.884  0.00  0.00    +0.000 N 
ATOM     15  C   UNL     1       6.278   4.279  14.576  0.00  0.00    +0.000 C 
ATOM     16  O   UNL     1       6.134   5.444  14.231  0.00  0.00    +0.000 OA
ATOM     17  N   UNL     1       6.250   3.227  13.703  0.00  0.00    +0.000 N 
ATOM     18  H   UNL     1       6.790   2.973  16.147  0.00  0.00    +0.000 HD
ATOM     19  H   UNL     1       6.425   2.299  14.052  0.00  0.00    +0.000 HD
BRANCH  17  20
ATOM     20  C   UNL     1       6.126   3.444  12.269  0.00  0.00    +0.000 C 
ATOM     21  C   UNL     1       7.046   2.497  11.503  0.00  0.00    +0.000 C 
ATOM     22  C   UNL     1       4.680   3.283  11.814  0.00  0.00    +0.000 C 
ENDBRANCH  17  20
ENDBRANCH   1  14
TORSDOF 5
ENDMDL
MODEL 2
REMARK VINA RESULT:      -6.5      1.546      1.725
REMARK  Name = 
REMARK  8 active torsions:
REMARK  status: ('A' for Active; 'I' for Inactive)
REMARK    1  A    between atoms: C_1  and  C_2
REMARK    2  A    between atoms: C_2  and  O_3
REMARK    3  A    between atoms: O_3  and  C_4
REMARK    4  A    between atoms: C_10  and  S_11
REMARK    5  A    between atoms: S_11  and  N_14
REMARK    6  A    between atoms: N_17  and  C_18
REMARK    7  A    between atoms: C_18  and  C_19
REMARK    8  A    between atoms: C_18  and  C_20
REMARK                            x       y       z     vdW  Elec       q    Type
REMARK                         _______ _______ _______ _____ _____    ______ ____
ROOT
ATOM      1  S   UNL     1       5.426   5.288  17.776  0.00  0.00    +0.000 S 
ATOM      2  O   UNL     1       5.740   6.698  17.649  0.00  0.00    +0.000 OA
ATOM      3  O   UNL     1       6.381   4.396  18.402  0.00  0.00    +0.000 OA
ENDROOT
BRANCH   1  10
ATOM      4  C   UNL     1       3.122   3.967  18.611  0.00  0.00    +0.000 A 
ATOM      5  C   UNL     1       1.887   3.961  19.280  0.00  0.00    +0.000 A 
ATOM      6  C   UNL     1       1.421   5.095  19.953  0.00  0.00    +0.000 A 
ATOM      7  C   UNL     1       2.186   6.255  19.966  0.00  0.00    +0.000 A 
ATOM      8 CL   UNL     1       1.611   7.643  20.800  0.00  0.00    +0.000 Cl
ATOM      9  C   UNL     1       3.406   6.293  19.304  0.00  0.00    +0.000 A 
ATOM     10  C   UNL     1       3.872   5.152  18.627  0.00  0.00    +0.000 A 
BRANCH   4  11
ATOM     11  O   UNL     1       3.632   2.873  17.960  0.00  0.00    +0.000 OA
BRANCH  11  13
ATOM     12  C   UNL     1       4.558   1.779  19.895  0.00  0.00    +0.000 C 
ATOM     13  C   UNL     1       3.648   1.643  18.690  0.00  0.00    +0.000 C 
ENDBRANCH  11  13
ENDBRANCH   4  11
ENDBRANCH   1  10
BRANCH   1  14
ATOM     14  N   UNL     1       5.157   4.724  16.233  0.00  0.00    +0.000 N 
ATOM     15  C   UNL     1       6.161   4.491  15.318  0.00  0.00    +0.000 C 
ATOM     16  O   UNL     1       7.348   4.597  15.591  0.00  0.00    +0.000 OA
ATOM     17  N   UNL     1       5.704   4.112  14.086  0.00  0.00    +0.000 N 
ATOM     18  H   UNL     1       4.191   4.476  16.063  0.00  0.00    +0.000 HD
ATOM     19  H   UNL     1       4.713   3.997  13.948  0.00  0.00    +0.000 HD
BRANCH  17  20
ATOM     20  C   UNL     1       6.627   3.725  13.029  0.00  0.00    +0.000 C 
ATOM     21  C   UNL     1       5.894   2.946  11.939  0.00  0.00    +0.000 C 
ATOM     22  C   UNL     1       7.333   4.943  12.446  0.00  0.00    +0.000 C 
ENDBRANCH  17  20
ENDBRANCH   1  14
TORSDOF 5
ENDMDL
MODEL 3
REMARK VINA RESULT:      -6.4      0.973      1.319
REMARK  Name = 
REMARK  8 active torsions:
REMARK  status: ('A' for Active; 'I' for Inactive)
REMARK    1  A    between atoms: C_1  and  C_2
REMARK    2  A    between atoms: C_2  and  O_3
REMARK    3  A    between atoms: O_3  and  C_4
REMARK    4  A    between atoms: C_10  and  S_11
REMARK    5  A    between atoms: S_11  and  N_14
REMARK    6  A    between atoms: N_17  and  C_18
REMARK    7  A    between atoms: C_18  and  C_19
REMARK    8  A    between atoms: C_18  and  C_20
REMARK                            x       y       z     vdW  Elec       q    Type
REMARK                         _______ _______ _______ _____ _____    ______ ____
ROOT
ATOM      1  S   UNL     1       6.665   5.647  17.362  0.00  0.00    +0.000 S 
ATOM      2  O   UNL     1       7.340   6.889  17.690  0.00  0.00    +0.000 OA
ATOM      3  O   UNL     1       7.157   4.399  17.911  0.00  0.00    +0.000 OA
ENDROOT
BRANCH   1  10
ATOM      4  C   UNL     1       4.203   4.761  18.310  0.00  0.00    +0.000 A 
ATOM      5  C   UNL     1       2.845   4.985  18.592  0.00  0.00    +0.000 A 
ATOM      6  C   UNL     1       2.257   6.235  18.380  0.00  0.00    +0.000 A 
ATOM      7  C   UNL     1       3.021   7.283  17.882  0.00  0.00    +0.000 A 
ATOM      8 CL   UNL     1       2.294   8.820  17.629  0.00  0.00    +0.000 Cl
ATOM      9  C   UNL     1       4.363   7.088  17.584  0.00  0.00    +0.000 A 
ATOM     10  C   UNL     1       4.952   5.829  17.796  0.00  0.00    +0.000 A 
BRANCH   4  11
ATOM     11  O   UNL     1       4.829   3.560  18.526  0.00  0.00    +0.000 OA
BRANCH  11  13
ATOM     12  C   UNL     1       3.645   1.464  18.468  0.00  0.00    +0.000 C 
ATOM     13  C   UNL     1       4.131   2.609  19.335  0.00  0.00    +0.000 C 
ENDBRANCH  11  13
ENDBRANCH   4  11
ENDBRANCH   1  10
BRANCH   1  14
ATOM     14  N   UNL     1       6.708   5.512  15.704  0.00  0.00    +0.000 N 
ATOM     15  C   UNL     1       6.375   4.361  15.021  0.00  0.00    +0.000 C 
ATOM     16  O   UNL     1       5.935   3.363  15.574  0.00  0.00    +0.000 OA
ATOM     17  N   UNL     1       6.565   4.450  13.669  0.00  0.00    +0.000 N 
ATOM     18  H   UNL     1       6.909   6.387  15.238  0.00  0.00    +0.000 HD
ATOM     19  H   UNL     1       6.884   5.321  13.278  0.00  0.00    +0.000 HD
BRANCH  17  20
ATOM     20  C   UNL     1       6.168   3.366  12.783  0.00  0.00    +0.000 C 
ATOM     21  C   UNL     1       4.780   3.631  12.204  0.00  0.00    +0.000 C 
ATOM     22  C   UNL     1       7.192   3.166  11.671  0.00  0.00    +0.000 C 
ENDBRANCH  17  20
ENDBRANCH   1  14
TORSDOF 5
ENDMDL
MODEL 4
REMARK VINA RESULT:      -6.3      1.139      1.336
REMARK  Name = 
REMARK  8 active torsions:
REMARK  status: ('A' for Active; 'I' for Inactive)
REMARK    1  A    between atoms: C_1  and  C_2
REMARK    2  A    between atoms: C_2  and  O_3
REMARK    3  A    between atoms: O_3  and  C_4
REMARK    4  A    between atoms: C_10  and  S_11
REMARK    5  A    between atoms: S_11  and  N_14
REMARK    6  A    between atoms: N_17  and  C_18
REMARK    7  A    between atoms: C_18  and  C_19
REMARK    8  A    between atoms: C_18  and  C_20
REMARK                            x       y       z     vdW  Elec       q    Type
REMARK                         _______ _______ _______ _____ _____    ______ ____
ROOT
ATOM      1  S   UNL     1       5.958   5.851  17.009  0.00  0.00    +0.000 S 
ATOM      2  O   UNL     1       6.257   7.161  16.463  0.00  0.00    +0.000 OA
ATOM      3  O   UNL     1       6.959   5.161  17.799  0.00  0.00    +0.000 OA
ENDROOT
BRANCH   1  10
ATOM      4  C   UNL     1       3.983   4.921  18.737  0.00  0.00    +0.000 A 
ATOM      5  C   UNL     1       2.777   5.106  19.433  0.00  0.00    +0.000 A 
ATOM      6  C   UNL     1       2.084   6.319  19.374  0.00  0.00    +0.000 A 
ATOM      7  C   UNL     1       2.589   7.368  18.615  0.00  0.00    +0.000 A 
ATOM      8 CL   UNL     1       1.735   8.858  18.551  0.00  0.00    +0.000 Cl
ATOM      9  C   UNL     1       3.773   7.210  17.907  0.00  0.00    +0.000 A 
ATOM     10  C   UNL     1       4.468   5.989  17.967  0.00  0.00    +0.000 A 
BRANCH   4  11
ATOM     11  O   UNL     1       4.711   3.760  18.785  0.00  0.00    +0.000 OA
BRANCH  11  13
ATOM     12  C   UNL     1       3.517   1.737  18.257  0.00  0.00    +0.000 C 
ATOM     13  C   UNL     1       4.064   2.621  19.361  0.00  0.00    +0.000 C 
ENDBRANCH  11  13
ENDBRANCH   4  11
ENDBRANCH   1  10
BRANCH   1  14
ATOM     14  N   UNL     1       5.586   4.874  15.715  0.00  0.00    +0.000 N 
ATOM     15  C   UNL     1       6.440   4.646  14.657  0.00  0.00    +0.000 C 
ATOM     16  O   UNL     1       7.584   5.076  14.621  0.00  0.00    +0.000 OA
ATOM     17  N   UNL     1       5.894   3.879  13.666  0.00  0.00    +0.000 N 
ATOM     18  H   UNL     1       4.707   4.385  15.826  0.00  0.00    +0.000 HD
ATOM     19  H   UNL     1       4.961   3.518  13.786  0.00  0.00    +0.000 HD
BRANCH  17  20
ATOM     20  C   UNL     1       6.687   3.453  12.522  0.00  0.00    +0.000 C 
ATOM     21  C   UNL     1       5.882   2.506  11.636  0.00  0.00    +0.000 C 
ATOM     22  C   UNL     1       7.186   4.652  11.725  0.00  0.00    +0.000 C 
ENDBRANCH  17  20
ENDBRANCH   1  14
TORSDOF 5
ENDMDL
MODEL 5
REMARK VINA RESULT:      -6.2      2.046      2.567
REMARK  Name = 
REMARK  8 active torsions:
REMARK  status: ('A' for Active; 'I' for Inactive)
REMARK    1  A    between atoms: C_1  and  C_2
REMARK    2  A    between atoms: C_2  and  O_3
REMARK    3  A    between atoms: O_3  and  C_4
REMARK    4  A    between atoms: C_10  and  S_11
REMARK    5  A    between atoms: S_11  and  N_14
REMARK    6  A    between atoms: N_17  and  C_18
REMARK    7  A    between atoms: C_18  and  C_19
REMARK    8  A    between atoms: C_18  and  C_20
REMARK                            x       y       z     vdW  Elec       q    Type
REMARK                         _______ _______ _______ _____ _____    ______ ____
ROOT
ATOM      1  S   UNL     1       4.390   4.259  17.948  0.00  0.00    +0.000 S 
ATOM      2  O   UNL     1       5.552   4.049  18.790  0.00  0.00    +0.000 OA
ATOM      3  O   UNL     1       3.534   3.137  17.617  0.00  0.00    +0.000 OA
ENDROOT
BRANCH   1  10
ATOM      4  C   UNL     1       2.728   5.329  19.910  0.00  0.00    +0.000 A 
ATOM      5  C   UNL     1       1.940   6.378  20.409  0.00  0.00    +0.000 A 
ATOM      6  C   UNL     1       1.835   7.594  19.727  0.00  0.00    +0.000 A 
ATOM      7  C   UNL     1       2.520   7.779  18.533  0.00  0.00    +0.000 A 
ATOM      8 CL   UNL     1       2.391   9.279  17.703  0.00  0.00    +0.000 Cl
ATOM      9  C   UNL     1       3.298   6.755  18.010  0.00  0.00    +0.000 A 
ATOM     10  C   UNL     1       3.401   5.533  18.696  0.00  0.00    +0.000 A 
BRANCH   4  11
ATOM     11  O   UNL     1       2.883   4.129  20.555  0.00  0.00    +0.000 OA
BRANCH  11  13
ATOM     12  C   UNL     1       1.629   2.554  21.876  0.00  0.00    +0.000 C 
ATOM     13  C   UNL     1       1.763   3.239  20.530  0.00  0.00    +0.000 C 
ENDBRANCH  11  13
ENDBRANCH   4  11
ENDBRANCH   1  10
BRANCH   1  14
ATOM     14  N   UNL     1       4.952   4.894  16.516  0.00  0.00    +0.000 N 
ATOM     15  C   UNL     1       5.747   4.198  15.630  0.00  0.00    +0.000 C 
ATOM     16  O   UNL     1       6.036   3.020  15.781  0.00  0.00    +0.000 OA
ATOM     17  N   UNL     1       6.161   4.944  14.562  0.00  0.00    +0.000 N 
ATOM     18  H   UNL     1       4.574   5.810  16.312  0.00  0.00    +0.000 HD
ATOM     19  H   UNL     1       5.842   5.895  14.478  0.00  0.00    +0.000 HD
BRANCH  17  20
ATOM     20  C   UNL     1       6.921   4.342  13.475  0.00  0.00    +0.000 C 
ATOM     21  C   UNL     1       5.983   3.652  12.487  0.00  0.00    +0.000 C 
ATOM     22  C   UNL     1       7.785   5.381  12.770  0.00  0.00    +0.000 C 
ENDBRANCH  17  20
ENDBRANCH   1  14
TORSDOF 5
ENDMDL
MODEL 6
REMARK VINA RESULT:      -6.1      2.444      3.518
REMARK  Name = 
REMARK  8 active torsions:
REMARK  status: ('A' for Active; 'I' for Inactive)
REMARK    1  A    between atoms: C_1  and  C_2
REMARK    2  A    between atoms: C_2  and  O_3
REMARK    3  A    between atoms: O_3  and  C_4
REMARK    4  A    between atoms: C_10  and  S_11
REMARK    5  A    between atoms: S_11  and  N_14
REMARK    6  A    between atoms: N_17  and  C_18
REMARK    7  A    between atoms: C_18  and  C_19
REMARK    8  A    between atoms: C_18  and  C_20
REMARK                            x       y       z     vdW  Elec       q    Type
REMARK                         _______ _______ _______ _____ _____    ______ ____
ROOT
ATOM      1  S   UNL     1       5.650   5.324  18.071  0.00  0.00    +0.000 S 
ATOM      2  O   UNL     1       6.081   6.708  18.004  0.00  0.00    +0.000 OA
ATOM      3  O   UNL     1       6.554   4.318  18.592  0.00  0.00    +0.000 OA
ENDROOT
BRANCH   1  10
ATOM      4  C   UNL     1       3.196   6.310  18.941  0.00  0.00    +0.000 A 
ATOM      5  C   UNL     1       2.044   6.202  19.737  0.00  0.00    +0.000 A 
ATOM      6  C   UNL     1       1.831   5.089  20.556  0.00  0.00    +0.000 A 
ATOM      7  C   UNL     1       2.770   4.065  20.591  0.00  0.00    +0.000 A 
ATOM      8 CL   UNL     1       2.499   2.697  21.595  0.00  0.00    +0.000 Cl
ATOM      9  C   UNL     1       3.923   4.151  19.822  0.00  0.00    +0.000 A 
ATOM     10  C   UNL     1       4.136   5.271  19.000  0.00  0.00    +0.000 A 
BRANCH   4  11
ATOM     11  O   UNL     1       3.436   7.369  18.103  0.00  0.00    +0.000 OA
BRANCH  11  13
ATOM     12  C   UNL     1       2.201   9.432  17.970  0.00  0.00    +0.000 C 
ATOM     13  C   UNL     1       2.291   7.990  17.510  0.00  0.00    +0.000 C 
ENDBRANCH  11  13
ENDBRANCH   4  11
ENDBRANCH   1  10
BRANCH   1  14
ATOM     14  N   UNL     1       5.252   4.878  16.518  0.00  0.00    +0.000 N 
ATOM     15  C   UNL     1       6.183   4.555  15.552  0.00  0.00    +0.000 C 
ATOM     16  O   UNL     1       7.382   4.486  15.781  0.00  0.00    +0.000 OA
ATOM     17  N   UNL     1       5.634   4.303  14.325  0.00  0.00    +0.000 N 
ATOM     18  H   UNL     1       4.256   4.772  16.377  0.00  0.00    +0.000 HD
ATOM     19  H   UNL     1       4.633   4.330  14.223  0.00  0.00    +0.000 HD
BRANCH  17  20
ATOM     20  C   UNL     1       6.458   3.846  13.215  0.00  0.00    +0.000 C 
ATOM     21  C   UNL     1       5.586   3.247  12.114  0.00  0.00    +0.000 C 
ATOM     22  C   UNL     1       7.319   4.980  12.670  0.00  0.00    +0.000 C 
ENDBRANCH  17  20
ENDBRANCH   1  14
TORSDOF 5
ENDMDL
MODEL 7
REMARK VINA RESULT:      -6.0      3.398      6.223
REMARK  Name = 
REMARK  8 active torsions:
REMARK  status: ('A' for Active; 'I' for Inactive)
REMARK    1  A    between atoms: C_1  and  C_2
REMARK    2  A    between atoms: C_2  and  O_3
REMARK    3  A    between atoms: O_3  and  C_4
REMARK    4  A    between atoms: C_10  and  S_11
REMARK    5  A    between atoms: S_11  and  N_14
REMARK    6  A    between atoms: N_17  and  C_18
REMARK    7  A    between atoms: C_18  and  C_19
REMARK    8  A    between atoms: C_18  and  C_20
REMARK                            x       y       z     vdW  Elec       q    Type
REMARK                         _______ _______ _______ _____ _____    ______ ____
ROOT
ATOM      1  S   UNL     1       4.299   3.739  18.704  0.00  0.00    +0.000 S 
ATOM      2  O   UNL     1       3.108   3.106  18.173  0.00  0.00    +0.000 OA
ATOM      3  O   UNL     1       5.169   2.995  19.592  0.00  0.00    +0.000 OA
ENDROOT
BRANCH   1  10
ATOM      4  C   UNL     1       6.270   5.291  17.495  0.00  0.00    +0.000 A 
ATOM      5  C   UNL     1       6.951   5.731  16.349  0.00  0.00    +0.000 A 
ATOM      6  C   UNL     1       6.640   5.228  15.082  0.00  0.00    +0.000 A 
ATOM      7  C   UNL     1       5.641   4.272  14.943  0.00  0.00    +0.000 A 
ATOM      8 CL   UNL     1       5.268   3.653  13.384  0.00  0.00    +0.000 Cl
ATOM      9  C   UNL     1       4.943   3.826  16.058  0.00  0.00    +0.000 A 
ATOM     10  C   UNL     1       5.256   4.335  17.331  0.00  0.00    +0.000 A 
BRANCH   4  11
ATOM     11  O   UNL     1       6.556   5.736  18.760  0.00  0.00    +0.000 OA
BRANCH  11  13
ATOM     12  C   UNL     1       8.251   7.442  18.642  0.00  0.00    +0.000 C 
ATOM     13  C   UNL     1       7.930   6.017  19.045  0.00  0.00    +0.000 C 
ENDBRANCH  11  13
ENDBRANCH   4  11
ENDBRANCH   1  10
BRANCH   1  14
ATOM     14  N   UNL     1       3.786   5.091  19.529  0.00  0.00    +0.000 N 
ATOM     15  C   UNL     1       2.819   5.954  19.058  0.00  0.00    +0.000 C 
ATOM     16  O   UNL     1       2.192   5.752  18.028  0.00  0.00    +0.000 OA
ATOM     17  N   UNL     1       2.618   7.043  19.861  0.00  0.00    +0.000 N 
ATOM     18  H   UNL     1       4.184   5.165  20.456  0.00  0.00    +0.000 HD
ATOM     19  H   UNL     1       3.137   7.118  20.720  0.00  0.00    +0.000 HD
BRANCH  17  20
ATOM     20  C   UNL     1       1.563   8.004  19.571  0.00  0.00    +0.000 C 
ATOM     21  C   UNL     1       1.155   8.747  20.841  0.00  0.00    +0.000 C 
ATOM     22  C   UNL     1       1.997   8.981  18.485  0.00  0.00    +0.000 C 
ENDBRANCH  17  20
ENDBRANCH   1  14
TORSDOF 5
ENDMDL
MODEL 8
REMARK VINA RESULT:      -5.9      2.091      2.918
REMARK  Name = 
REMARK  8 active torsions:
REMARK  status: ('A' for Active; 'I' for Inactive)
REMARK    1  A    between atoms: C_1  and  C_2
REMARK    2  A    between atoms: C_2  and  O_3
REMARK    3  A    between atoms: O_3  and  C_4
REMARK    4  A    between atoms: C_10  and  S_11
REMARK    5  A    between atoms: S_11  and  N_14
REMARK    6  A    between atoms: N_17  and  C_18
REMARK    7  A    between atoms: C_18  and  C_19
REMARK    8  A    between atoms: C_18  and  C_20
REMARK                            x       y       z     vdW  Elec       q    Type
REMARK                         _______ _______ _______ _____ _____    ______ ____
ROOT
ATOM      1  S   UNL     1       6.257   4.903  15.891  0.00  0.00    +0.000 S 
ATOM      2  O   UNL     1       6.278   6.296  15.486  0.00  0.00    +0.000 OA
ATOM      3  O   UNL     1       7.505   4.180  16.029  0.00  0.00    +0.000 OA
ENDROOT
BRANCH   1  10
ATOM      4  C   UNL     1       6.017   4.749  18.661  0.00  0.00    +0.000 A 
ATOM      5  C   UNL     1       5.231   4.628  19.818  0.00  0.00    +0.000 A 
ATOM      6  C   UNL     1       3.836   4.569  19.744  0.00  0.00    +0.000 A 
ATOM      7  C   UNL     1       3.205   4.631  18.507  0.00  0.00    +0.000 A 
ATOM      8 CL   UNL     1       1.490   4.564  18.423  0.00  0.00    +0.000 Cl
ATOM      9  C   UNL     1       3.958   4.739  17.345  0.00  0.00    +0.000 A 
ATOM     10  C   UNL     1       5.361   4.797  17.422  0.00  0.00    +0.000 A 
BRANCH   4  11
ATOM     11  O   UNL     1       7.385   4.837  18.685  0.00  0.00    +0.000 OA
BRANCH  11  13
ATOM     12  C   UNL     1       8.014   7.146  18.423  0.00  0.00    +0.000 C 
ATOM     13  C   UNL     1       7.944   5.963  19.369  0.00  0.00    +0.000 C 
ENDBRANCH  11  13
ENDBRANCH   4  11
ENDBRANCH   1  10
BRANCH   1  14
ATOM     14  N   UNL     1       5.337   4.098  14.762  0.00  0.00    +0.000 N 
ATOM     15  C   UNL     1       5.702   3.952  13.441  0.00  0.00    +0.000 C 
ATOM     16  O   UNL     1       6.779   4.330  13.003  0.00  0.00    +0.000 OA
ATOM     17  N   UNL     1       4.755   3.329  12.675  0.00  0.00    +0.000 N 
ATOM     18  H   UNL     1       4.528   3.641  15.162  0.00  0.00    +0.000 HD
ATOM     19  H   UNL     1       3.912   3.001  13.115  0.00  0.00    +0.000 HD
BRANCH  17  20
ATOM     20  C   UNL     1       5.015   2.999  11.282  0.00  0.00    +0.000 C 
ATOM     21  C   UNL     1       5.661   1.620  11.171  0.00  0.00    +0.000 C 
ATOM     22  C   UNL     1       3.736   3.069  10.455  0.00  0.00    +0.000 C 
ENDBRANCH  17  20
ENDBRANCH   1  14
TORSDOF 5
ENDMDL
MODEL 9
REMARK VINA RESULT:      -5.9      2.193      3.204
REMARK  Name = 
REMARK  8 active torsions:
REMARK  status: ('A' for Active; 'I' for Inactive)
REMARK    1  A    between atoms: C_1  and  C_2
REMARK    2  A    between atoms: C_2  and  O_3
REMARK    3  A    between atoms: O_3  and  C_4
REMARK    4  A    between atoms: C_10  and  S_11
REMARK    5  A    between atoms: S_11  and  N_14
REMARK    6  A    between atoms: N_17  and  C_18
REMARK    7  A    between atoms: C_18  and  C_19
REMARK    8  A    between atoms: C_18  and  C_20
REMARK                            x       y       z     vdW  Elec       q    Type
REMARK                         _______ _______ _______ _____ _____    ______ ____
ROOT
ATOM      1  S   UNL     1       6.763   4.668  15.989  0.00  0.00    +0.000 S 
ATOM      2  O   UNL     1       6.735   5.916  15.250  0.00  0.00    +0.000 OA
ATOM      3  O   UNL     1       8.011   4.204  16.560  0.00  0.00    +0.000 OA
ENDROOT
BRANCH   1  10
ATOM      4  C   UNL     1       5.724   5.607  18.396  0.00  0.00    +0.000 A 
ATOM      5  C   UNL     1       4.728   5.601  19.386  0.00  0.00    +0.000 A 
ATOM      6  C   UNL     1       3.589   4.800  19.264  0.00  0.00    +0.000 A 
ATOM      7  C   UNL     1       3.428   3.992  18.145  0.00  0.00    +0.000 A 
ATOM      8 CL   UNL     1       2.022   3.014  17.998  0.00  0.00    +0.000 Cl
ATOM      9  C   UNL     1       4.401   3.970  17.155  0.00  0.00    +0.000 A 
ATOM     10  C   UNL     1       5.547   4.775  17.281  0.00  0.00    +0.000 A 
BRANCH   4  11
ATOM     11  O   UNL     1       6.845   6.394  18.459  0.00  0.00    +0.000 OA
BRANCH  11  13
ATOM     12  C   UNL     1       8.135   8.337  17.858  0.00  0.00    +0.000 C 
ATOM     13  C   UNL     1       6.784   7.653  17.780  0.00  0.00    +0.000 C 
ENDBRANCH  11  13
ENDBRANCH   4  11
ENDBRANCH   1  10
BRANCH   1  14
ATOM     14  N   UNL     1       6.224   3.490  14.945  0.00  0.00    +0.000 N 
ATOM     15  C   UNL     1       6.236   3.619  13.572  0.00  0.00    +0.000 C 
ATOM     16  O   UNL     1       6.725   4.582  13.000  0.00  0.00    +0.000 OA
ATOM     17  N   UNL     1       5.668   2.562  12.917  0.00  0.00    +0.000 N 
ATOM     18  H   UNL     1       5.977   2.628  15.413  0.00  0.00    +0.000 HD
ATOM     19  H   UNL     1       5.329   1.781  13.453  0.00  0.00    +0.000 HD
BRANCH  17  20
ATOM     20  C   UNL     1       5.686   2.483  11.463  0.00  0.00    +0.000 C 
ATOM     21  C   UNL     1       6.078   1.079  11.010  0.00  0.00    +0.000 C 
ATOM     22  C   UNL     1       4.339   2.888  10.876  0.00  0.00    +0.000 C 
ENDBRANCH  17  20
ENDBRANCH   1  14
TORSDOF 5
ENDMDL
