MODEL 1
REMARK VINA RESULT:      -7.7      0.000      0.000
REMARK  Name = 
REMARK  6 active torsions:
REMARK  status: ('A' for Active; 'I' for Inactive)
REMARK    1  A    between atoms: C_1  and  C_2
REMARK    2  A    between atoms: C_2  and  C_3
REMARK    3  A    between atoms: C_5  and  N_6
REMARK    4  A    between atoms: N_6  and  C_7
REMARK    5  A    between atoms: C_11  and  C_12
REMARK    6  A    between atoms: C_12  and  O_13
REMARK                            x       y       z     vdW  Elec       q    Type
REMARK                         _______ _______ _______ _____ _____    ______ ____
ROOT
ATOM      1  C   UNL     1       7.578   6.499  17.869  0.00  0.00    +0.000 A 
ATOM      2  C   UNL     1       6.838   5.562  18.768  0.00  0.00    +0.000 A 
ATOM      3  C   UNL     1       6.145   4.571  18.188  0.00  0.00    +0.000 A 
ATOM      4  N   UNL     1       6.177   4.486  16.770  0.00  0.00    +0.000 N 
ATOM      5  N   UNL     1       5.532   3.574  15.978  0.00  0.00    +0.000 NA
ATOM      6  C   UNL     1       5.924   3.883  14.740  0.00  0.00    +0.000 A 
ATOM      7  C   UNL     1       6.793   4.983  14.699  0.00  0.00    +0.000 A 
ATOM      8  C   UNL     1       6.941   5.373  16.010  0.00  0.00    +0.000 A 
ATOM      9  N   UNL     1       7.639   6.403  16.571  0.00  0.00    +0.000 NA
ENDROOT
BRANCH   1  11
ATOM     10  C   UNL     1       7.962   8.932  17.702  0.00  0.00    +0.000 C 
ATOM     11  C   UNL     1       8.239   7.689  18.532  0.00  0.00    +0.000 C 
ENDBRANCH   1  11
BRANCH   3  12
ATOM     12  N   UNL     1       5.362   3.655  18.914  0.00  0.00    +0.000 N 
ATOM     13  H   UNL     1       5.967   3.338  19.685  0.00  0.00    +0.000 HD
BRANCH  12  14
ATOM     14  C   UNL     1       4.072   4.009  19.554  0.00  0.00    +0.000 C 
ATOM     15  C   UNL     1       3.586   5.439  19.297  0.00  0.00    +0.000 C 
ATOM     16  C   UNL     1       2.853   5.391  17.954  0.00  0.00    +0.000 C 
ATOM     17  C   UNL     1       2.561   3.914  17.678  0.00  0.00    +0.000 C 
ATOM     18  C   UNL     1       2.903   3.195  18.987  0.00  0.00    +0.000 C 
BRANCH  18  19
ATOM     19  C   UNL     1       3.140   1.699  18.844  0.00  0.00    +0.000 C 
BRANCH  19  20
ATOM     20  O   UNL     1       4.052   1.451  17.775  0.00  0.00    +0.000 OA
ATOM     21  H   UNL     1       4.628   0.718  18.043  0.00  0.00    +0.000 HD
ENDBRANCH  19  20
ENDBRANCH  18  19
ENDBRANCH  12  14
ENDBRANCH   3  12
TORSDOF 5
ENDMDL
MODEL 2
REMARK VINA RESULT:      -7.6      1.767      3.659
REMARK  Name = 
REMARK  6 active torsions:
REMARK  status: ('A' for Active; 'I' for Inactive)
REMARK    1  A    between atoms: C_1  and  C_2
REMARK    2  A    between atoms: C_2  and  C_3
REMARK    3  A    between atoms: C_5  and  N_6
REMARK    4  A    between atoms: N_6  and  C_7
REMARK    5  A    between atoms: C_11  and  C_12
REMARK    6  A    between atoms: C_12  and  O_13
REMARK                            x       y       z     vdW  Elec       q    Type
REMARK                         _______ _______ _______ _____ _____    ______ ____
ROOT
ATOM      1  C   UNL     1       6.660   4.874  15.378  0.00  0.00    +0.000 A 
ATOM      2  C   UNL     1       5.529   4.080  15.949  0.00  0.00    +0.000 A 
ATOM      3  C   UNL     1       5.383   4.091  17.283  0.00  0.00    +0.000 A 
ATOM      4  N   UNL     1       6.305   4.860  18.041  0.00  0.00    +0.000 N 
ATOM      5  N   UNL     1       6.351   4.994  19.404  0.00  0.00    +0.000 NA
ATOM      6  C   UNL     1       7.351   5.855  19.612  0.00  0.00    +0.000 A 
ATOM      7  C   UNL     1       7.971   6.272  18.425  0.00  0.00    +0.000 A 
ATOM      8  C   UNL     1       7.299   5.617  17.419  0.00  0.00    +0.000 A 
ATOM      9  N   UNL     1       7.485   5.609  16.067  0.00  0.00    +0.000 NA
ENDROOT
BRANCH   1  11
ATOM     10  C   UNL     1       5.882   3.753  13.321  0.00  0.00    +0.000 C 
ATOM     11  C   UNL     1       6.891   4.739  13.888  0.00  0.00    +0.000 C 
ENDBRANCH   1  11
BRANCH   3  12
ATOM     12  N   UNL     1       4.396   3.344  17.953  0.00  0.00    +0.000 N 
ATOM     13  H   UNL     1       4.437   3.664  18.931  0.00  0.00    +0.000 HD
BRANCH  12  14
ATOM     14  C   UNL     1       2.958   3.382  17.592  0.00  0.00    +0.000 C 
ATOM     15  C   UNL     1       2.194   2.073  17.812  0.00  0.00    +0.000 C 
ATOM     16  C   UNL     1       1.777   2.081  19.285  0.00  0.00    +0.000 C 
ATOM     17  C   UNL     1       1.921   3.528  19.763  0.00  0.00    +0.000 C 
ATOM     18  C   UNL     1       2.163   4.341  18.488  0.00  0.00    +0.000 C 
BRANCH  18  19
ATOM     19  C   UNL     1       2.787   5.709  18.718  0.00  0.00    +0.000 C 
BRANCH  19  20
ATOM     20  O   UNL     1       3.557   5.696  19.919  0.00  0.00    +0.000 OA
ATOM     21  H   UNL     1       3.461   4.819  20.322  0.00  0.00    +0.000 HD
ENDBRANCH  19  20
ENDBRANCH  18  19
ENDBRANCH  12  14
ENDBRANCH   3  12
TORSDOF 5
ENDMDL
MODEL 3
REMARK VINA RESULT:      -7.6      0.917      1.245
REMARK  Name = 
REMARK  6 active torsions:
REMARK  status: ('A' for Active; 'I' for Inactive)
REMARK    1  A    between atoms: C_1  and  C_2
REMARK    2  A    between atoms: C_2  and  C_3
REMARK    3  A    between atoms: C_5  and  N_6
REMARK    4  A    between atoms: N_6  and  C_7
REMARK    5  A    between atoms: C_11  and  C_12
REMARK    6  A    between atoms: C_12  and  O_13
REMARK                            x       y       z     vdW  Elec       q    Type
REMARK                         _______ _______ _______ _____ _____    ______ ____
ROOT
ATOM      1  C   UNL     1       7.587   6.562  17.790  0.00  0.00    +0.000 A 
ATOM      2  C   UNL     1       6.847   5.598  18.661  0.00  0.00    +0.000 A 
ATOM      3  C   UNL     1       6.202   4.590  18.053  0.00  0.00    +0.000 A 
ATOM      4  N   UNL     1       6.281   4.516  16.637  0.00  0.00    +0.000 N 
ATOM      5  N   UNL     1       5.687   3.590  15.821  0.00  0.00    +0.000 NA
ATOM      6  C   UNL     1       6.109   3.918  14.597  0.00  0.00    +0.000 A 
ATOM      7  C   UNL     1       6.946   5.043  14.589  0.00  0.00    +0.000 A 
ATOM      8  C   UNL     1       7.041   5.429  15.906  0.00  0.00    +0.000 A 
ATOM      9  N   UNL     1       7.691   6.475  16.494  0.00  0.00    +0.000 NA
ENDROOT
BRANCH   1  11
ATOM     10  C   UNL     1       7.964   8.995  17.614  0.00  0.00    +0.000 C 
ATOM     11  C   UNL     1       8.191   7.766  18.480  0.00  0.00    +0.000 C 
ENDBRANCH   1  11
BRANCH   3  12
ATOM     12  N   UNL     1       5.424   3.648  18.750  0.00  0.00    +0.000 N 
ATOM     13  H   UNL     1       5.955   3.444  19.608  0.00  0.00    +0.000 HD
BRANCH  12  14
ATOM     14  C   UNL     1       4.037   3.909  19.206  0.00  0.00    +0.000 C 
ATOM     15  C   UNL     1       3.032   4.226  18.095  0.00  0.00    +0.000 C 
ATOM     16  C   UNL     1       2.553   2.869  17.571  0.00  0.00    +0.000 C 
ATOM     17  C   UNL     1       2.943   1.839  18.634  0.00  0.00    +0.000 C 
ATOM     18  C   UNL     1       3.394   2.669  19.840  0.00  0.00    +0.000 C 
BRANCH  18  19
ATOM     19  C   UNL     1       4.251   1.914  20.844  0.00  0.00    +0.000 C 
BRANCH  19  20
ATOM     20  O   UNL     1       5.301   1.227  20.167  0.00  0.00    +0.000 OA
ATOM     21  H   UNL     1       5.723   1.857  19.561  0.00  0.00    +0.000 HD
ENDBRANCH  19  20
ENDBRANCH  18  19
ENDBRANCH  12  14
ENDBRANCH   3  12
TORSDOF 5
ENDMDL
MODEL 4
REMARK VINA RESULT:      -7.4      1.392      1.505
REMARK  Name = 
REMARK  6 active torsions:
REMARK  status: ('A' for Active; 'I' for Inactive)
REMARK    1  A    between atoms: C_1  and  C_2
REMARK    2  A    between atoms: C_2  and  C_3
REMARK    3  A    between atoms: C_5  and  N_6
REMARK    4  A    between atoms: N_6  and  C_7
REMARK    5  A    between atoms: C_11  and  C_12
REMARK    6  A    between atoms: C_12  and  O_13
REMARK                            x       y       z     vdW  Elec       q    Type
REMARK                         _______ _______ _______ _____ _____    ______ ____
ROOT
ATOM      1  C   UNL     1       7.402   6.424  17.898  0.00  0.00    +0.000 A 
ATOM      2  C   UNL     1       6.415   5.723  18.775  0.00  0.00    +0.000 A 
ATOM      3  C   UNL     1       5.567   4.867  18.184  0.00  0.00    +0.000 A 
ATOM      4  N   UNL     1       5.681   4.690  16.780  0.00  0.00    +0.000 N 
ATOM      5  N   UNL     1       4.912   3.887  15.980  0.00  0.00    +0.000 NA
ATOM      6  C   UNL     1       5.450   4.028  14.765  0.00  0.00    +0.000 A 
ATOM      7  C   UNL     1       6.537   4.914  14.747  0.00  0.00    +0.000 A 
ATOM      8  C   UNL     1       6.671   5.345  16.046  0.00  0.00    +0.000 A 
ATOM      9  N   UNL     1       7.534   6.236  16.616  0.00  0.00    +0.000 NA
ENDROOT
BRANCH   1  11
ATOM     10  C   UNL     1       8.049   8.805  17.834  0.00  0.00    +0.000 C 
ATOM     11  C   UNL     1       8.255   7.486  18.560  0.00  0.00    +0.000 C 
ENDBRANCH   1  11
BRANCH   3  12
ATOM     12  N   UNL     1       4.555   4.185  18.884  0.00  0.00    +0.000 N 
ATOM     13  H   UNL     1       5.007   3.843  19.743  0.00  0.00    +0.000 HD
BRANCH  12  14
ATOM     14  C   UNL     1       3.298   4.830  19.337  0.00  0.00    +0.000 C 
ATOM     15  C   UNL     1       2.467   5.492  18.234  0.00  0.00    +0.000 C 
ATOM     16  C   UNL     1       1.618   4.371  17.628  0.00  0.00    +0.000 C 
ATOM     17  C   UNL     1       1.649   3.219  18.635  0.00  0.00    +0.000 C 
ATOM     18  C   UNL     1       2.294   3.812  19.892  0.00  0.00    +0.000 C 
BRANCH  18  19
ATOM     19  C   UNL     1       2.855   2.783  20.861  0.00  0.00    +0.000 C 
BRANCH  19  20
ATOM     20  O   UNL     1       2.314   2.997  22.164  0.00  0.00    +0.000 OA
ATOM     21  H   UNL     1       1.568   3.611  22.076  0.00  0.00    +0.000 HD
ENDBRANCH  19  20
ENDBRANCH  18  19
ENDBRANCH  12  14
ENDBRANCH   3  12
TORSDOF 5
ENDMDL
MODEL 5
REMARK VINA RESULT:      -7.3      1.139      1.419
REMARK  Name = 
REMARK  6 active torsions:
REMARK  status: ('A' for Active; 'I' for Inactive)
REMARK    1  A    between atoms: C_1  and  C_2
REMARK    2  A    between atoms: C_2  and  C_3
REMARK    3  A    between atoms: C_5  and  N_6
REMARK    4  A    between atoms: N_6  and  C_7
REMARK    5  A    between atoms: C_11  and  C_12
REMARK    6  A    between atoms: C_12  and  O_13
REMARK                            x       y       z     vdW  Elec       q    Type
REMARK                         _______ _______ _______ _____ _____    ______ ____
ROOT
ATOM      1  C   UNL     1       7.199   6.009  17.480  0.00  0.00    +0.000 A 
ATOM      2  C   UNL     1       6.039   5.260  18.053  0.00  0.00    +0.000 A 
ATOM      3  C   UNL     1       5.338   4.479  17.216  0.00  0.00    +0.000 A 
ATOM      4  N   UNL     1       5.760   4.418  15.862  0.00  0.00    +0.000 N 
ATOM      5  N   UNL     1       5.183   3.706  14.844  0.00  0.00    +0.000 NA
ATOM      6  C   UNL     1       5.977   3.936  13.795  0.00  0.00    +0.000 A 
ATOM      7  C   UNL     1       7.046   4.794  14.095  0.00  0.00    +0.000 A 
ATOM      8  C   UNL     1       6.892   5.109  15.425  0.00  0.00    +0.000 A 
ATOM      9  N   UNL     1       7.611   5.927  16.247  0.00  0.00    +0.000 NA
ENDROOT
BRANCH   1  11
ATOM     10  C   UNL     1       7.940   8.350  17.731  0.00  0.00    +0.000 C 
ATOM     11  C   UNL     1       7.891   6.988  18.405  0.00  0.00    +0.000 C 
ENDBRANCH   1  11
BRANCH   3  12
ATOM     12  N   UNL     1       4.192   3.765  17.612  0.00  0.00    +0.000 N 
ATOM     13  H   UNL     1       4.536   2.830  17.872  0.00  0.00    +0.000 HD
BRANCH  12  14
ATOM     14  C   UNL     1       3.318   4.182  18.735  0.00  0.00    +0.000 C 
ATOM     15  C   UNL     1       1.869   4.501  18.353  0.00  0.00    +0.000 C 
ATOM     16  C   UNL     1       1.139   3.155  18.345  0.00  0.00    +0.000 C 
ATOM     17  C   UNL     1       2.032   2.179  19.115  0.00  0.00    +0.000 C 
ATOM     18  C   UNL     1       3.111   3.056  19.756  0.00  0.00    +0.000 C 
BRANCH  18  19
ATOM     19  C   UNL     1       4.365   2.307  20.184  0.00  0.00    +0.000 C 
BRANCH  19  20
ATOM     20  O   UNL     1       4.661   1.278  19.241  0.00  0.00    +0.000 OA
ATOM     21  H   UNL     1       3.873   1.145  18.691  0.00  0.00    +0.000 HD
ENDBRANCH  19  20
ENDBRANCH  18  19
ENDBRANCH  12  14
ENDBRANCH   3  12
TORSDOF 5
ENDMDL
MODEL 6
REMARK VINA RESULT:      -7.3      1.478      3.267
REMARK  Name = 
REMARK  6 active torsions:
REMARK  status: ('A' for Active; 'I' for Inactive)
REMARK    1  A    between atoms: C_1  and  C_2
REMARK    2  A    between atoms: C_2  and  C_3
REMARK    3  A    between atoms: C_5  and  N_6
REMARK    4  A    between atoms: N_6  and  C_7
REMARK    5  A    between atoms: C_11  and  C_12
REMARK    6  A    between atoms: C_12  and  O_13
REMARK                            x       y       z     vdW  Elec       q    Type
REMARK                         _______ _______ _______ _____ _____    ______ ____
ROOT
ATOM      1  C   UNL     1       6.634   4.895  15.115  0.00  0.00    +0.000 A 
ATOM      2  C   UNL     1       5.440   4.148  15.615  0.00  0.00    +0.000 A 
ATOM      3  C   UNL     1       5.235   4.132  16.941  0.00  0.00    +0.000 A 
ATOM      4  N   UNL     1       6.161   4.831  17.759  0.00  0.00    +0.000 N 
ATOM      5  N   UNL     1       6.154   4.928  19.126  0.00  0.00    +0.000 NA
ATOM      6  C   UNL     1       7.186   5.729  19.401  0.00  0.00    +0.000 A 
ATOM      7  C   UNL     1       7.880   6.143  18.254  0.00  0.00    +0.000 A 
ATOM      8  C   UNL     1       7.220   5.550  17.202  0.00  0.00    +0.000 A 
ATOM      9  N   UNL     1       7.464   5.567  15.860  0.00  0.00    +0.000 NA
ENDROOT
BRANCH   1  11
ATOM     10  C   UNL     1       6.061   3.682  13.043  0.00  0.00    +0.000 C 
ATOM     11  C   UNL     1       6.924   4.786  13.633  0.00  0.00    +0.000 C 
ENDBRANCH   1  11
BRANCH   3  12
ATOM     12  N   UNL     1       4.182   3.421  17.546  0.00  0.00    +0.000 N 
ATOM     13  H   UNL     1       4.616   2.565  17.919  0.00  0.00    +0.000 HD
BRANCH  12  14
ATOM     14  C   UNL     1       3.368   3.961  18.662  0.00  0.00    +0.000 C 
ATOM     15  C   UNL     1       2.046   4.614  18.251  0.00  0.00    +0.000 C 
ATOM     16  C   UNL     1       1.038   3.468  18.131  0.00  0.00    +0.000 C 
ATOM     17  C   UNL     1       1.656   2.277  18.867  0.00  0.00    +0.000 C 
ATOM     18  C   UNL     1       2.869   2.855  19.601  0.00  0.00    +0.000 C 
BRANCH  18  19
ATOM     19  C   UNL     1       3.904   1.823  20.023  0.00  0.00    +0.000 C 
BRANCH  19  20
ATOM     20  O   UNL     1       5.207   2.404  20.001  0.00  0.00    +0.000 OA
ATOM     21  H   UNL     1       5.604   2.206  19.137  0.00  0.00    +0.000 HD
ENDBRANCH  19  20
ENDBRANCH  18  19
ENDBRANCH  12  14
ENDBRANCH   3  12
TORSDOF 5
ENDMDL
MODEL 7
REMARK VINA RESULT:      -7.2      1.315      3.067
REMARK  Name = 
REMARK  6 active torsions:
REMARK  status: ('A' for Active; 'I' for Inactive)
REMARK    1  A    between atoms: C_1  and  C_2
REMARK    2  A    between atoms: C_2  and  C_3
REMARK    3  A    between atoms: C_5  and  N_6
REMARK    4  A    between atoms: N_6  and  C_7
REMARK    5  A    between atoms: C_11  and  C_12
REMARK    6  A    between atoms: C_12  and  O_13
REMARK                            x       y       z     vdW  Elec       q    Type
REMARK                         _______ _______ _______ _____ _____    ______ ____
ROOT
ATOM      1  C   UNL     1       6.439   5.096  15.640  0.00  0.00    +0.000 A 
ATOM      2  C   UNL     1       5.376   4.290  16.316  0.00  0.00    +0.000 A 
ATOM      3  C   UNL     1       5.399   4.243  17.657  0.00  0.00    +0.000 A 
ATOM      4  N   UNL     1       6.422   4.968  18.324  0.00  0.00    +0.000 N 
ATOM      5  N   UNL     1       6.642   5.041  19.674  0.00  0.00    +0.000 NA
ATOM      6  C   UNL     1       7.674   5.881  19.790  0.00  0.00    +0.000 A 
ATOM      7  C   UNL     1       8.146   6.343  18.553  0.00  0.00    +0.000 A 
ATOM      8  C   UNL     1       7.342   5.741  17.614  0.00  0.00    +0.000 A 
ATOM      9  N   UNL     1       7.355   5.791  16.250  0.00  0.00    +0.000 NA
ENDROOT
BRANCH   1  11
ATOM     10  C   UNL     1       5.860   3.709  13.682  0.00  0.00    +0.000 C 
ATOM     11  C   UNL     1       6.478   5.024  14.128  0.00  0.00    +0.000 C 
ENDBRANCH   1  11
BRANCH   3  12
ATOM     12  N   UNL     1       4.493   3.478  18.413  0.00  0.00    +0.000 N 
ATOM     13  H   UNL     1       5.080   2.898  19.029  0.00  0.00    +0.000 HD
BRANCH  12  14
ATOM     14  C   UNL     1       3.467   4.073  19.305  0.00  0.00    +0.000 C 
ATOM     15  C   UNL     1       3.229   5.574  19.117  0.00  0.00    +0.000 C 
ATOM     16  C   UNL     1       2.228   5.693  17.965  0.00  0.00    +0.000 C 
ATOM     17  C   UNL     1       1.599   4.307  17.801  0.00  0.00    +0.000 C 
ATOM     18  C   UNL     1       2.066   3.516  19.025  0.00  0.00    +0.000 C 
BRANCH  18  19
ATOM     19  C   UNL     1       1.967   2.005  18.879  0.00  0.00    +0.000 C 
BRANCH  19  20
ATOM     20  O   UNL     1       2.489   1.604  17.613  0.00  0.00    +0.000 OA
ATOM     21  H   UNL     1       3.205   2.217  17.382  0.00  0.00    +0.000 HD
ENDBRANCH  19  20
ENDBRANCH  18  19
ENDBRANCH  12  14
ENDBRANCH   3  12
TORSDOF 5
ENDMDL
MODEL 8
REMARK VINA RESULT:      -7.2      1.984      3.644
REMARK  Name = 
REMARK  6 active torsions:
REMARK  status: ('A' for Active; 'I' for Inactive)
REMARK    1  A    between atoms: C_1  and  C_2
REMARK    2  A    between atoms: C_2  and  C_3
REMARK    3  A    between atoms: C_5  and  N_6
REMARK    4  A    between atoms: N_6  and  C_7
REMARK    5  A    between atoms: C_11  and  C_12
REMARK    6  A    between atoms: C_12  and  O_13
REMARK                            x       y       z     vdW  Elec       q    Type
REMARK                         _______ _______ _______ _____ _____    ______ ____
ROOT
ATOM      1  C   UNL     1       5.750   4.420  15.735  0.00  0.00    +0.000 A 
ATOM      2  C   UNL     1       4.593   3.984  16.575  0.00  0.00    +0.000 A 
ATOM      3  C   UNL     1       4.689   4.172  17.900  0.00  0.00    +0.000 A 
ATOM      4  N   UNL     1       5.875   4.777  18.396  0.00  0.00    +0.000 N 
ATOM      5  N   UNL     1       6.187   5.042  19.703  0.00  0.00    +0.000 NA
ATOM      6  C   UNL     1       7.370   5.658  19.635  0.00  0.00    +0.000 A 
ATOM      7  C   UNL     1       7.848   5.786  18.322  0.00  0.00    +0.000 A 
ATOM      8  C   UNL     1       6.884   5.205  17.532  0.00  0.00    +0.000 A 
ATOM      9  N   UNL     1       6.822   5.008  16.182  0.00  0.00    +0.000 NA
ENDROOT
BRANCH   1  11
ATOM     10  C   UNL     1       6.944   4.575  13.581  0.00  0.00    +0.000 C 
ATOM     11  C   UNL     1       5.681   4.074  14.263  0.00  0.00    +0.000 C 
ENDBRANCH   1  11
BRANCH   3  12
ATOM     12  N   UNL     1       3.697   3.757  18.808  0.00  0.00    +0.000 N 
ATOM     13  H   UNL     1       4.108   3.907  19.741  0.00  0.00    +0.000 HD
BRANCH  12  14
ATOM     14  C   UNL     1       2.347   4.367  18.878  0.00  0.00    +0.000 C 
ATOM     15  C   UNL     1       1.325   3.808  17.883  0.00  0.00    +0.000 C 
ATOM     16  C   UNL     1       0.744   2.557  18.547  0.00  0.00    +0.000 C 
ATOM     17  C   UNL     1       1.104   2.654  20.031  0.00  0.00    +0.000 C 
ATOM     18  C   UNL     1       1.649   4.074  20.212  0.00  0.00    +0.000 C 
BRANCH  18  19
ATOM     19  C   UNL     1       2.491   4.275  21.462  0.00  0.00    +0.000 C 
BRANCH  19  20
ATOM     20  O   UNL     1       2.391   3.129  22.305  0.00  0.00    +0.000 OA
ATOM     21  H   UNL     1       1.747   3.330  23.002  0.00  0.00    +0.000 HD
ENDBRANCH  19  20
ENDBRANCH  18  19
ENDBRANCH  12  14
ENDBRANCH   3  12
TORSDOF 5
ENDMDL
MODEL 9
REMARK VINA RESULT:      -7.1      1.650      3.229
REMARK  Name = 
REMARK  6 active torsions:
REMARK  status: ('A' for Active; 'I' for Inactive)
REMARK    1  A    between atoms: C_1  and  C_2
REMARK    2  A    between atoms: C_2  and  C_3
REMARK    3  A    between atoms: C_5  and  N_6
REMARK    4  A    between atoms: N_6  and  C_7
REMARK    5  A    between atoms: C_11  and  C_12
REMARK    6  A    between atoms: C_12  and  O_13
REMARK                            x       y       z     vdW  Elec       q    Type
REMARK                         _______ _______ _______ _____ _____    ______ ____
ROOT
ATOM      1  C   UNL     1       6.079   4.429  15.722  0.00  0.00    +0.000 A 
ATOM      2  C   UNL     1       4.742   4.356  16.388  0.00  0.00    +0.000 A 
ATOM      3  C   UNL     1       4.695   4.622  17.703  0.00  0.00    +0.000 A 
ATOM      4  N   UNL     1       5.912   4.961  18.351  0.00  0.00    +0.000 N 
ATOM      5  N   UNL     1       6.093   5.248  19.678  0.00  0.00    +0.000 NA
ATOM      6  C   UNL     1       7.391   5.551  19.770  0.00  0.00    +0.000 A 
ATOM      7  C   UNL     1       8.065   5.453  18.544  0.00  0.00    +0.000 A 
ATOM      8  C   UNL     1       7.108   5.060  17.638  0.00  0.00    +0.000 A 
ATOM      9  N   UNL     1       7.190   4.775  16.306  0.00  0.00    +0.000 NA
ENDROOT
BRANCH   1  11
ATOM     10  C   UNL     1       7.218   4.786  13.562  0.00  0.00    +0.000 C 
ATOM     11  C   UNL     1       6.134   3.992  14.274  0.00  0.00    +0.000 C 
ENDBRANCH   1  11
BRANCH   3  12
ATOM     12  N   UNL     1       3.513   4.536  18.460  0.00  0.00    +0.000 N 
ATOM     13  H   UNL     1       2.798   4.191  17.803  0.00  0.00    +0.000 HD
BRANCH  12  14
ATOM     14  C   UNL     1       3.375   3.681  19.665  0.00  0.00    +0.000 C 
ATOM     15  C   UNL     1       2.485   4.251  20.773  0.00  0.00    +0.000 C 
ATOM     16  C   UNL     1       1.053   3.864  20.392  0.00  0.00    +0.000 C 
ATOM     17  C   UNL     1       1.174   2.752  19.348  0.00  0.00    +0.000 C 
ATOM     18  C   UNL     1       2.655   2.362  19.358  0.00  0.00    +0.000 C 
BRANCH  18  19
ATOM     19  C   UNL     1       3.124   1.621  18.115  0.00  0.00    +0.000 C 
BRANCH  19  20
ATOM     20  O   UNL     1       4.219   0.767  18.443  0.00  0.00    +0.000 OA
ATOM     21  H   UNL     1       4.844   0.791  17.701  0.00  0.00    +0.000 HD
ENDBRANCH  19  20
ENDBRANCH  18  19
ENDBRANCH  12  14
ENDBRANCH   3  12
TORSDOF 5
ENDMDL
