MODEL 1
REMARK VINA RESULT:      -8.7      0.000      0.000
REMARK  Name = 
REMARK  5 active torsions:
REMARK  status: ('A' for Active; 'I' for Inactive)
REMARK    1  A    between atoms: O_1  and  C_2
REMARK    2  A    between atoms: C_11  and  C_12
REMARK    3  A    between atoms: C_12  and  C_13
REMARK    4  A    between atoms: C_12  and  N_24
REMARK    5  A    between atoms: N_17  and  C_18
REMARK                            x       y       z     vdW  Elec       q    Type
REMARK                         _______ _______ _______ _____ _____    ______ ____
ROOT
ATOM      1  C   UNL     1       3.505   5.464  18.111  0.00  0.00    +0.000 C 
ENDROOT
BRANCH   1  11
ATOM      2  C   UNL     1       2.294   6.400  20.157  0.00  0.00    +0.000 A 
ATOM      3  N   UNL     1       1.743   7.365  20.922  0.00  0.00    +0.000 NA
ATOM      4  C   UNL     1       1.494   8.557  20.342  0.00  0.00    +0.000 A 
ATOM      5  C   UNL     1       1.047   9.613  21.129  0.00  0.00    +0.000 A 
ATOM      6  C   UNL     1       0.803  10.877  20.587  0.00  0.00    +0.000 A 
ATOM      7  C   UNL     1       0.941  11.083  19.215  0.00  0.00    +0.000 A 
ATOM      8  C   UNL     1       1.412  10.048  18.405  0.00  0.00    +0.000 A 
ATOM      9  C   UNL     1       1.708   8.784  18.968  0.00  0.00    +0.000 A 
ATOM     10  C   UNL     1       2.266   7.728  18.214  0.00  0.00    +0.000 A 
ATOM     11  C   UNL     1       2.636   6.513  18.828  0.00  0.00    +0.000 A 
ATOM     12  O   UNL     1       0.648  12.277  18.606  0.00  0.00    +0.000 OA
ATOM     13  C   UNL     1      -0.140  13.115  19.466  0.00  0.00    +0.000 C 
ATOM     14  C   UNL     1       0.471  13.163  20.858  0.00  0.00    +0.000 C 
ATOM     15  O   UNL     1       0.431  11.866  21.464  0.00  0.00    +0.000 OA
BRANCH   2  16
ATOM     16  O   UNL     1       2.552   5.274  20.867  0.00  0.00    +0.000 OA
ATOM     17  H   UNL     1       3.079   4.797  20.198  0.00  0.00    +0.000 HD
ENDBRANCH   2  16
ENDBRANCH   1  11
BRANCH   1  18
ATOM     18  N   UNL     1       2.904   4.119  18.406  0.00  0.00    +0.000 NA
ATOM     19  C   UNL     1       1.483   4.025  18.017  0.00  0.00    +0.000 C 
ATOM     20  C   UNL     1       0.722   2.762  18.472  0.00  0.00    +0.000 C 
ATOM     21  S   UNL     1       1.633   1.741  19.662  0.00  0.00    +0.000 S 
ATOM     22  C   UNL     1       3.164   1.605  18.687  0.00  0.00    +0.000 C 
ATOM     23  C   UNL     1       3.665   2.923  18.047  0.00  0.00    +0.000 C 
ENDBRANCH   1  18
BRANCH   1  24
ATOM     24  C   UNL     1       4.969   5.581  18.500  0.00  0.00    +0.000 A 
ATOM     25  N   UNL     1       5.376   5.493  19.762  0.00  0.00    +0.000 NA
ATOM     26  N   UNL     1       6.729   5.406  19.745  0.00  0.00    +0.000 NA
ATOM     27  N   UNL     1       7.185   5.462  18.513  0.00  0.00    +0.000 NA
ATOM     28  N   UNL     1       6.112   5.640  17.703  0.00  0.00    +0.000 N 
BRANCH  28  29
ATOM     29  C   UNL     1       6.411   6.127  16.354  0.00  0.00    +0.000 C 
ATOM     30  C   UNL     1       7.557   5.340  15.625  0.00  0.00    +0.000 C 
ATOM     31  C   UNL     1       7.110   4.009  15.007  0.00  0.00    +0.000 C 
ATOM     32  C   UNL     1       5.878   4.165  14.123  0.00  0.00    +0.000 C 
ATOM     33  C   UNL     1       4.763   4.915  14.848  0.00  0.00    +0.000 C 
ATOM     34  C   UNL     1       5.260   6.266  15.352  0.00  0.00    +0.000 C 
ENDBRANCH  28  29
ENDBRANCH   1  24
TORSDOF 5
ENDMDL
MODEL 2
REMARK VINA RESULT:      -7.9      1.614      2.127
REMARK  Name = 
REMARK  5 active torsions:
REMARK  status: ('A' for Active; 'I' for Inactive)
REMARK    1  A    between atoms: O_1  and  C_2
REMARK    2  A    between atoms: C_11  and  C_12
REMARK    3  A    between atoms: C_12  and  C_13
REMARK    4  A    between atoms: C_12  and  N_24
REMARK    5  A    between atoms: N_17  and  C_18
REMARK                            x       y       z     vdW  Elec       q    Type
REMARK                         _______ _______ _______ _____ _____    ______ ____
ROOT
ATOM      1  C   UNL     1       3.603   5.590  18.375  0.00  0.00    +0.000 C 
ENDROOT
BRANCH   1  11
ATOM      2  C   UNL     1       2.814   7.971  17.885  0.00  0.00    +0.000 A 
ATOM      3  N   UNL     1       2.078   9.084  18.081  0.00  0.00    +0.000 NA
ATOM      4  C   UNL     1       1.441   9.213  19.262  0.00  0.00    +0.000 A 
ATOM      5  C   UNL     1       0.573  10.283  19.450  0.00  0.00    +0.000 A 
ATOM      6  C   UNL     1      -0.136  10.449  20.641  0.00  0.00    +0.000 A 
ATOM      7  C   UNL     1       0.072   9.568  21.702  0.00  0.00    +0.000 A 
ATOM      8  C   UNL     1       0.918   8.471  21.533  0.00  0.00    +0.000 A 
ATOM      9  C   UNL     1       1.594   8.278  20.305  0.00  0.00    +0.000 A 
ATOM     10  C   UNL     1       2.395   7.144  20.048  0.00  0.00    +0.000 A 
ATOM     11  C   UNL     1       2.978   6.938  18.780  0.00  0.00    +0.000 A 
ATOM     12  O   UNL     1      -0.536   9.714  22.924  0.00  0.00    +0.000 OA
ATOM     13  C   UNL     1      -1.080  11.034  23.076  0.00  0.00    +0.000 C 
ATOM     14  C   UNL     1      -1.879  11.419  21.840  0.00  0.00    +0.000 C 
ATOM     15  O   UNL     1      -1.019  11.499  20.697  0.00  0.00    +0.000 OA
BRANCH   2  16
ATOM     16  O   UNL     1       3.351   7.928  16.641  0.00  0.00    +0.000 OA
ATOM     17  H   UNL     1       3.957   8.691  16.716  0.00  0.00    +0.000 HD
ENDBRANCH   2  16
ENDBRANCH   1  11
BRANCH   1  18
ATOM     18  N   UNL     1       2.850   4.517  19.107  0.00  0.00    +0.000 NA
ATOM     19  C   UNL     1       1.662   4.041  18.369  0.00  0.00    +0.000 C 
ATOM     20  C   UNL     1       0.708   3.096  19.128  0.00  0.00    +0.000 C 
ATOM     21  S   UNL     1       1.057   2.964  20.902  0.00  0.00    +0.000 S 
ATOM     22  C   UNL     1       2.825   2.563  20.735  0.00  0.00    +0.000 C 
ATOM     23  C   UNL     1       3.609   3.424  19.713  0.00  0.00    +0.000 C 
ENDBRANCH   1  18
BRANCH   1  24
ATOM     24  C   UNL     1       5.102   5.566  18.623  0.00  0.00    +0.000 A 
ATOM     25  N   UNL     1       5.617   5.426  19.839  0.00  0.00    +0.000 NA
ATOM     26  N   UNL     1       6.949   5.214  19.694  0.00  0.00    +0.000 NA
ATOM     27  N   UNL     1       7.289   5.242  18.424  0.00  0.00    +0.000 NA
ATOM     28  N   UNL     1       6.165   5.528  17.721  0.00  0.00    +0.000 N 
BRANCH  28  29
ATOM     29  C   UNL     1       6.380   6.001  16.350  0.00  0.00    +0.000 C 
ATOM     30  C   UNL     1       7.531   5.257  15.585  0.00  0.00    +0.000 C 
ATOM     31  C   UNL     1       7.125   3.893  15.014  0.00  0.00    +0.000 C 
ATOM     32  C   UNL     1       5.849   3.968  14.183  0.00  0.00    +0.000 C 
ATOM     33  C   UNL     1       4.731   4.677  14.943  0.00  0.00    +0.000 C 
ATOM     34  C   UNL     1       5.180   6.061  15.398  0.00  0.00    +0.000 C 
ENDBRANCH  28  29
ENDBRANCH   1  24
TORSDOF 5
ENDMDL
MODEL 3
REMARK VINA RESULT:      -7.9      4.374      9.189
REMARK  Name = 
REMARK  5 active torsions:
REMARK  status: ('A' for Active; 'I' for Inactive)
REMARK    1  A    between atoms: O_1  and  C_2
REMARK    2  A    between atoms: C_11  and  C_12
REMARK    3  A    between atoms: C_12  and  C_13
REMARK    4  A    between atoms: C_12  and  N_24
REMARK    5  A    between atoms: N_17  and  C_18
REMARK                            x       y       z     vdW  Elec       q    Type
REMARK                         _______ _______ _______ _____ _____    ______ ____
ROOT
ATOM      1  C   UNL     1       0.042  12.264  18.914  0.00  0.00    +0.000 C 
ENDROOT
BRANCH   1  11
ATOM      2  C   UNL     1       0.752  10.612  20.729  0.00  0.00    +0.000 A 
ATOM      3  N   UNL     1       1.135   9.413  21.216  0.00  0.00    +0.000 NA
ATOM      4  C   UNL     1       1.562   8.487  20.333  0.00  0.00    +0.000 A 
ATOM      5  C   UNL     1       1.842   7.202  20.783  0.00  0.00    +0.000 A 
ATOM      6  C   UNL     1       2.257   6.195  19.909  0.00  0.00    +0.000 A 
ATOM      7  C   UNL     1       2.465   6.487  18.561  0.00  0.00    +0.000 A 
ATOM      8  C   UNL     1       2.168   7.762  18.078  0.00  0.00    +0.000 A 
ATOM      9  C   UNL     1       1.696   8.764  18.959  0.00  0.00    +0.000 A 
ATOM     10  C   UNL     1       1.301  10.044  18.512  0.00  0.00    +0.000 A 
ATOM     11  C   UNL     1       0.748  10.987  19.404  0.00  0.00    +0.000 A 
ATOM     12  O   UNL     1       2.940   5.566  17.663  0.00  0.00    +0.000 OA
ATOM     13  C   UNL     1       3.526   4.442  18.337  0.00  0.00    +0.000 C 
ATOM     14  C   UNL     1       2.596   3.943  19.433  0.00  0.00    +0.000 C 
ATOM     15  O   UNL     1       2.440   4.944  20.445  0.00  0.00    +0.000 OA
BRANCH   2  16
ATOM     16  O   UNL     1       0.287  11.432  21.704  0.00  0.00    +0.000 OA
ATOM     17  H   UNL     1      -0.058  10.753  22.314  0.00  0.00    +0.000 HD
ENDBRANCH   2  16
ENDBRANCH   1  11
BRANCH   1  18
ATOM     18  N   UNL     1       0.936  13.421  19.257  0.00  0.00    +0.000 NA
ATOM     19  C   UNL     1       2.360  13.155  18.968  0.00  0.00    +0.000 C 
ATOM     20  C   UNL     1       3.377  14.195  19.482  0.00  0.00    +0.000 C 
ATOM     21  S   UNL     1       2.669  15.424  20.611  0.00  0.00    +0.000 S 
ATOM     22  C   UNL     1       1.290  15.924  19.533  0.00  0.00    +0.000 C 
ATOM     23  C   UNL     1       0.523  14.764  18.852  0.00  0.00    +0.000 C 
ENDBRANCH   1  18
BRANCH   1  24
ATOM     24  C   UNL     1      -1.363  12.385  19.479  0.00  0.00    +0.000 A 
ATOM     25  N   UNL     1      -1.668  13.251  20.439  0.00  0.00    +0.000 NA
ATOM     26  N   UNL     1      -3.020  13.272  20.551  0.00  0.00    +0.000 NA
ATOM     27  N   UNL     1      -3.571  12.426  19.708  0.00  0.00    +0.000 NA
ATOM     28  N   UNL     1      -2.557  11.799  19.061  0.00  0.00    +0.000 N 
BRANCH  28  29
ATOM     29  C   UNL     1      -2.917  10.551  18.381  0.00  0.00    +0.000 C 
ATOM     30  C   UNL     1      -4.424  10.464  17.951  0.00  0.00    +0.000 C 
ATOM     31  C   UNL     1      -4.753  11.222  16.660  0.00  0.00    +0.000 C 
ATOM     32  C   UNL     1      -3.816  10.853  15.515  0.00  0.00    +0.000 C 
ATOM     33  C   UNL     1      -2.353  10.959  15.938  0.00  0.00    +0.000 C 
ATOM     34  C   UNL     1      -2.085  10.106  17.173  0.00  0.00    +0.000 C 
ENDBRANCH  28  29
ENDBRANCH   1  24
TORSDOF 5
ENDMDL
MODEL 4
REMARK VINA RESULT:      -7.5      4.196      8.990
REMARK  Name = 
REMARK  5 active torsions:
REMARK  status: ('A' for Active; 'I' for Inactive)
REMARK    1  A    between atoms: O_1  and  C_2
REMARK    2  A    between atoms: C_11  and  C_12
REMARK    3  A    between atoms: C_12  and  C_13
REMARK    4  A    between atoms: C_12  and  N_24
REMARK    5  A    between atoms: N_17  and  C_18
REMARK                            x       y       z     vdW  Elec       q    Type
REMARK                         _______ _______ _______ _____ _____    ______ ____
ROOT
ATOM      1  C   UNL     1       0.412  11.818  18.781  0.00  0.00    +0.000 C 
ENDROOT
BRANCH   1  11
ATOM      2  C   UNL     1       0.727   9.890  20.428  0.00  0.00    +0.000 A 
ATOM      3  N   UNL     1       1.034   8.629  20.796  0.00  0.00    +0.000 NA
ATOM      4  C   UNL     1       1.709   7.866  19.914  0.00  0.00    +0.000 A 
ATOM      5  C   UNL     1       1.930   6.525  20.208  0.00  0.00    +0.000 A 
ATOM      6  C   UNL     1       2.596   5.680  19.317  0.00  0.00    +0.000 A 
ATOM      7  C   UNL     1       3.117   6.195  18.130  0.00  0.00    +0.000 A 
ATOM      8  C   UNL     1       2.890   7.531  17.798  0.00  0.00    +0.000 A 
ATOM      9  C   UNL     1       2.167   8.370  18.681  0.00  0.00    +0.000 A 
ATOM     10  C   UNL     1       1.835   9.704  18.360  0.00  0.00    +0.000 A 
ATOM     11  C   UNL     1       1.034  10.481  19.223  0.00  0.00    +0.000 A 
ATOM     12  O   UNL     1       3.844   5.440  17.245  0.00  0.00    +0.000 OA
ATOM     13  C   UNL     1       4.297   4.222  17.855  0.00  0.00    +0.000 C 
ATOM     14  C   UNL     1       3.149   3.542  18.587  0.00  0.00    +0.000 C 
ATOM     15  O   UNL     1       2.699   4.359  19.674  0.00  0.00    +0.000 OA
BRANCH   2  16
ATOM     16  O   UNL     1      -0.003  10.533  21.372  0.00  0.00    +0.000 OA
ATOM     17  H   UNL     1      -0.159   9.781  21.975  0.00  0.00    +0.000 HD
ENDBRANCH   2  16
ENDBRANCH   1  11
BRANCH   1  18
ATOM     18  N   UNL     1       1.402  12.897  19.116  0.00  0.00    +0.000 NA
ATOM     19  C   UNL     1       1.059  14.201  18.514  0.00  0.00    +0.000 C 
ATOM     20  C   UNL     1       2.121  15.314  18.621  0.00  0.00    +0.000 C 
ATOM     21  S   UNL     1       3.735  14.740  19.217  0.00  0.00    +0.000 S 
ATOM     22  C   UNL     1       3.116  13.896  20.706  0.00  0.00    +0.000 C 
ATOM     23  C   UNL     1       1.857  13.020  20.500  0.00  0.00    +0.000 C 
ENDBRANCH   1  18
BRANCH   1  24
ATOM     24  C   UNL     1      -0.961  12.033  19.396  0.00  0.00    +0.000 A 
ATOM     25  N   UNL     1      -1.166  12.893  20.388  0.00  0.00    +0.000 NA
ATOM     26  N   UNL     1      -2.508  13.015  20.546  0.00  0.00    +0.000 NA
ATOM     27  N   UNL     1      -3.150  12.240  19.700  0.00  0.00    +0.000 NA
ATOM     28  N   UNL     1      -2.210  11.554  19.003  0.00  0.00    +0.000 N 
BRANCH  28  29
ATOM     29  C   UNL     1      -2.689  10.358  18.304  0.00  0.00    +0.000 C 
ATOM     30  C   UNL     1      -4.237  10.342  18.042  0.00  0.00    +0.000 C 
ATOM     31  C   UNL     1      -4.678  11.182  16.837  0.00  0.00    +0.000 C 
ATOM     32  C   UNL     1      -3.887  10.848  15.577  0.00  0.00    +0.000 C 
ATOM     33  C   UNL     1      -2.384  10.885  15.837  0.00  0.00    +0.000 C 
ATOM     34  C   UNL     1      -2.013   9.957  16.989  0.00  0.00    +0.000 C 
ENDBRANCH  28  29
ENDBRANCH   1  24
TORSDOF 5
ENDMDL
MODEL 5
REMARK VINA RESULT:      -7.4      6.657     12.077
REMARK  Name = 
REMARK  5 active torsions:
REMARK  status: ('A' for Active; 'I' for Inactive)
REMARK    1  A    between atoms: O_1  and  C_2
REMARK    2  A    between atoms: C_11  and  C_12
REMARK    3  A    between atoms: C_12  and  C_13
REMARK    4  A    between atoms: C_12  and  N_24
REMARK    5  A    between atoms: N_17  and  C_18
REMARK                            x       y       z     vdW  Elec       q    Type
REMARK                         _______ _______ _______ _____ _____    ______ ____
ROOT
ATOM      1  C   UNL     1      -4.716  13.825  22.058  0.00  0.00    +0.000 C 
ENDROOT
BRANCH   1  11
ATOM      2  C   UNL     1      -2.548  12.866  23.012  0.00  0.00    +0.000 A 
ATOM      3  N   UNL     1      -1.444  12.092  23.010  0.00  0.00    +0.000 NA
ATOM      4  C   UNL     1      -1.056  11.559  21.834  0.00  0.00    +0.000 A 
ATOM      5  C   UNL     1       0.000  10.654  21.816  0.00  0.00    +0.000 A 
ATOM      6  C   UNL     1       0.424  10.048  20.632  0.00  0.00    +0.000 A 
ATOM      7  C   UNL     1      -0.171  10.399  19.420  0.00  0.00    +0.000 A 
ATOM      8  C   UNL     1      -1.249  11.285  19.411  0.00  0.00    +0.000 A 
ATOM      9  C   UNL     1      -1.709  11.856  20.622  0.00  0.00    +0.000 A 
ATOM     10  C   UNL     1      -2.846  12.691  20.684  0.00  0.00    +0.000 A 
ATOM     11  C   UNL     1      -3.331  13.167  21.920  0.00  0.00    +0.000 A 
ATOM     12  O   UNL     1       0.244   9.898  18.212  0.00  0.00    +0.000 OA
ATOM     13  C   UNL     1       1.545   9.299  18.321  0.00  0.00    +0.000 C 
ATOM     14  C   UNL     1       1.598   8.371  19.525  0.00  0.00    +0.000 C 
ATOM     15  O   UNL     1       1.429   9.119  20.736  0.00  0.00    +0.000 OA
BRANCH   2  16
ATOM     16  O   UNL     1      -2.871  13.290  24.259  0.00  0.00    +0.000 OA
ATOM     17  H   UNL     1      -3.615  12.683  24.433  0.00  0.00    +0.000 HD
ENDBRANCH   2  16
ENDBRANCH   1  11
BRANCH   1  18
ATOM     18  N   UNL     1      -4.527  15.088  22.849  0.00  0.00    +0.000 NA
ATOM     19  C   UNL     1      -3.711  16.095  22.140  0.00  0.00    +0.000 C 
ATOM     20  C   UNL     1      -3.283  17.335  22.952  0.00  0.00    +0.000 C 
ATOM     21  S   UNL     1      -3.611  17.203  24.730  0.00  0.00    +0.000 S 
ATOM     22  C   UNL     1      -5.367  16.748  24.583  0.00  0.00    +0.000 C 
ATOM     23  C   UNL     1      -5.689  15.674  23.514  0.00  0.00    +0.000 C 
ENDBRANCH   1  18
BRANCH   1  24
ATOM     24  C   UNL     1      -5.738  12.873  22.657  0.00  0.00    +0.000 A 
ATOM     25  N   UNL     1      -5.555  12.287  23.835  0.00  0.00    +0.000 NA
ATOM     26  N   UNL     1      -6.726  11.698  24.181  0.00  0.00    +0.000 NA
ATOM     27  N   UNL     1      -7.632  11.875  23.243  0.00  0.00    +0.000 NA
ATOM     28  N   UNL     1      -7.028  12.554  22.236  0.00  0.00    +0.000 N 
BRANCH  28  29
ATOM     29  C   UNL     1      -7.715  12.507  20.942  0.00  0.00    +0.000 C 
ATOM     30  C   UNL     1      -7.653  13.850  20.131  0.00  0.00    +0.000 C 
ATOM     31  C   UNL     1      -6.332  14.071  19.384  0.00  0.00    +0.000 C 
ATOM     32  C   UNL     1      -5.944  12.872  18.525  0.00  0.00    +0.000 C 
ATOM     33  C   UNL     1      -5.990  11.574  19.327  0.00  0.00    +0.000 C 
ATOM     34  C   UNL     1      -7.362  11.382  19.964  0.00  0.00    +0.000 C 
ENDBRANCH  28  29
ENDBRANCH   1  24
TORSDOF 5
ENDMDL
MODEL 6
REMARK VINA RESULT:      -7.4      1.691      2.287
REMARK  Name = 
REMARK  5 active torsions:
REMARK  status: ('A' for Active; 'I' for Inactive)
REMARK    1  A    between atoms: O_1  and  C_2
REMARK    2  A    between atoms: C_11  and  C_12
REMARK    3  A    between atoms: C_12  and  C_13
REMARK    4  A    between atoms: C_12  and  N_24
REMARK    5  A    between atoms: N_17  and  C_18
REMARK                            x       y       z     vdW  Elec       q    Type
REMARK                         _______ _______ _______ _____ _____    ______ ____
ROOT
ATOM      1  C   UNL     1       4.002   5.308  18.177  0.00  0.00    +0.000 C 
ENDROOT
BRANCH   1  11
ATOM      2  C   UNL     1       3.270   7.659  17.492  0.00  0.00    +0.000 A 
ATOM      3  N   UNL     1       2.534   8.787  17.572  0.00  0.00    +0.000 NA
ATOM      4  C   UNL     1       1.824   8.992  18.699  0.00  0.00    +0.000 A 
ATOM      5  C   UNL     1       0.956  10.077  18.764  0.00  0.00    +0.000 A 
ATOM      6  C   UNL     1       0.172  10.319  19.894  0.00  0.00    +0.000 A 
ATOM      7  C   UNL     1       0.301   9.503  21.018  0.00  0.00    +0.000 A 
ATOM      8  C   UNL     1       1.146   8.393  20.972  0.00  0.00    +0.000 A 
ATOM      9  C   UNL     1       1.898   8.121  19.804  0.00  0.00    +0.000 A 
ATOM     10  C   UNL     1       2.703   6.969  19.670  0.00  0.00    +0.000 A 
ATOM     11  C   UNL     1       3.365   6.682  18.458  0.00  0.00    +0.000 A 
ATOM     12  O   UNL     1      -0.383   9.727  22.186  0.00  0.00    +0.000 OA
ATOM     13  C   UNL     1      -0.922  11.057  22.221  0.00  0.00    +0.000 C 
ATOM     14  C   UNL     1      -1.635  11.371  20.915  0.00  0.00    +0.000 C 
ATOM     15  O   UNL     1      -0.701  11.376  19.828  0.00  0.00    +0.000 OA
BRANCH   2  16
ATOM     16  O   UNL     1       3.888   7.537  16.291  0.00  0.00    +0.000 OA
ATOM     17  H   UNL     1       4.516   8.281  16.373  0.00  0.00    +0.000 HD
ENDBRANCH   2  16
ENDBRANCH   1  11
BRANCH   1  18
ATOM     18  N   UNL     1       3.190   4.286  18.918  0.00  0.00    +0.000 NA
ATOM     19  C   UNL     1       2.091   3.724  18.108  0.00  0.00    +0.000 C 
ATOM     20  C   UNL     1       1.075   2.828  18.845  0.00  0.00    +0.000 C 
ATOM     21  S   UNL     1       1.240   2.855  20.650  0.00  0.00    +0.000 S 
ATOM     22  C   UNL     1       3.021   2.479  20.700  0.00  0.00    +0.000 C 
ATOM     23  C   UNL     1       3.895   3.265  19.693  0.00  0.00    +0.000 C 
ENDBRANCH   1  18
BRANCH   1  24
ATOM     24  C   UNL     1       5.481   5.289  18.526  0.00  0.00    +0.000 A 
ATOM     25  N   UNL     1       5.965   5.916  19.592  0.00  0.00    +0.000 NA
ATOM     26  N   UNL     1       7.252   5.518  19.746  0.00  0.00    +0.000 NA
ATOM     27  N   UNL     1       7.599   4.680  18.793  0.00  0.00    +0.000 NA
ATOM     28  N   UNL     1       6.530   4.561  17.966  0.00  0.00    +0.000 N 
BRANCH  28  29
ATOM     29  C   UNL     1       6.817   4.008  16.639  0.00  0.00    +0.000 C 
ATOM     30  C   UNL     1       5.601   3.275  15.971  0.00  0.00    +0.000 C 
ATOM     31  C   UNL     1       4.580   4.217  15.321  0.00  0.00    +0.000 C 
ATOM     32  C   UNL     1       5.233   5.212  14.368  0.00  0.00    +0.000 C 
ATOM     33  C   UNL     1       6.403   5.933  15.033  0.00  0.00    +0.000 C 
ATOM     34  C   UNL     1       7.418   4.932  15.573  0.00  0.00    +0.000 C 
ENDBRANCH  28  29
ENDBRANCH   1  24
TORSDOF 5
ENDMDL
MODEL 7
REMARK VINA RESULT:      -7.3      6.009     11.393
REMARK  Name = 
REMARK  5 active torsions:
REMARK  status: ('A' for Active; 'I' for Inactive)
REMARK    1  A    between atoms: O_1  and  C_2
REMARK    2  A    between atoms: C_11  and  C_12
REMARK    3  A    between atoms: C_12  and  C_13
REMARK    4  A    between atoms: C_12  and  N_24
REMARK    5  A    between atoms: N_17  and  C_18
REMARK                            x       y       z     vdW  Elec       q    Type
REMARK                         _______ _______ _______ _____ _____    ______ ____
ROOT
ATOM      1  C   UNL     1      -3.372  13.885  21.547  0.00  0.00    +0.000 C 
ENDROOT
BRANCH   1  11
ATOM      2  C   UNL     1      -1.376  12.646  22.553  0.00  0.00    +0.000 A 
ATOM      3  N   UNL     1      -0.401  11.714  22.588  0.00  0.00    +0.000 NA
ATOM      4  C   UNL     1      -0.094  11.087  21.435  0.00  0.00    +0.000 A 
ATOM      5  C   UNL     1       0.814  10.034  21.458  0.00  0.00    +0.000 A 
ATOM      6  C   UNL     1       1.145   9.328  20.299  0.00  0.00    +0.000 A 
ATOM      7  C   UNL     1       0.613   9.720  19.071  0.00  0.00    +0.000 A 
ATOM      8  C   UNL     1      -0.319  10.757  19.022  0.00  0.00    +0.000 A 
ATOM      9  C   UNL     1      -0.691  11.434  20.207  0.00  0.00    +0.000 A 
ATOM     10  C   UNL     1      -1.689  12.433  20.230  0.00  0.00    +0.000 A 
ATOM     11  C   UNL     1      -2.102  13.021  21.444  0.00  0.00    +0.000 A 
ATOM     12  O   UNL     1       0.952   9.119  17.885  0.00  0.00    +0.000 OA
ATOM     13  C   UNL     1       2.147   8.335  18.026  0.00  0.00    +0.000 C 
ATOM     14  C   UNL     1       2.056   7.455  19.263  0.00  0.00    +0.000 C 
ATOM     15  O   UNL     1       1.998   8.262  20.445  0.00  0.00    +0.000 OA
BRANCH   2  16
ATOM     16  O   UNL     1      -1.634  13.159  23.781  0.00  0.00    +0.000 OA
ATOM     17  H   UNL     1      -2.319  13.807  23.529  0.00  0.00    +0.000 HD
ENDBRANCH   2  16
ENDBRANCH   1  11
BRANCH   1  18
ATOM     18  N   UNL     1      -2.992  15.140  22.279  0.00  0.00    +0.000 NA
ATOM     19  C   UNL     1      -2.097  16.016  21.496  0.00  0.00    +0.000 C 
ATOM     20  C   UNL     1      -1.482  17.220  22.239  0.00  0.00    +0.000 C 
ATOM     21  S   UNL     1      -1.736  17.188  24.034  0.00  0.00    +0.000 S 
ATOM     22  C   UNL     1      -3.540  16.948  23.983  0.00  0.00    +0.000 C 
ATOM     23  C   UNL     1      -4.041  15.887  22.972  0.00  0.00    +0.000 C 
ENDBRANCH   1  18
BRANCH   1  24
ATOM     24  C   UNL     1      -4.522  13.126  22.187  0.00  0.00    +0.000 A 
ATOM     25  N   UNL     1      -4.411  12.540  23.374  0.00  0.00    +0.000 NA
ATOM     26  N   UNL     1      -5.655  12.158  23.755  0.00  0.00    +0.000 NA
ATOM     27  N   UNL     1      -6.540  12.464  22.832  0.00  0.00    +0.000 NA
ATOM     28  N   UNL     1      -5.857  13.015  21.798  0.00  0.00    +0.000 N 
BRANCH  28  29
ATOM     29  C   UNL     1      -6.571  13.058  20.519  0.00  0.00    +0.000 C 
ATOM     30  C   UNL     1      -5.635  13.060  19.259  0.00  0.00    +0.000 C 
ATOM     31  C   UNL     1      -5.098  11.676  18.874  0.00  0.00    +0.000 C 
ATOM     32  C   UNL     1      -6.207  10.636  18.754  0.00  0.00    +0.000 C 
ATOM     33  C   UNL     1      -7.100  10.629  19.992  0.00  0.00    +0.000 C 
ATOM     34  C   UNL     1      -7.667  12.020  20.256  0.00  0.00    +0.000 C 
ENDBRANCH  28  29
ENDBRANCH   1  24
TORSDOF 5
ENDMDL
MODEL 8
REMARK VINA RESULT:      -7.2      3.774      9.494
REMARK  Name = 
REMARK  5 active torsions:
REMARK  status: ('A' for Active; 'I' for Inactive)
REMARK    1  A    between atoms: O_1  and  C_2
REMARK    2  A    between atoms: C_11  and  C_12
REMARK    3  A    between atoms: C_12  and  C_13
REMARK    4  A    between atoms: C_12  and  N_24
REMARK    5  A    between atoms: N_17  and  C_18
REMARK                            x       y       z     vdW  Elec       q    Type
REMARK                         _______ _______ _______ _____ _____    ______ ____
ROOT
ATOM      1  C   UNL     1       0.385  11.118  19.878  0.00  0.00    +0.000 C 
ENDROOT
BRANCH   1  11
ATOM      2  C   UNL     1       1.840  10.075  18.055  0.00  0.00    +0.000 A 
ATOM      3  N   UNL     1       2.682   9.160  17.530  0.00  0.00    +0.000 NA
ATOM      4  C   UNL     1       2.818   7.989  18.183  0.00  0.00    +0.000 A 
ATOM      5  C   UNL     1       3.770   7.075  17.743  0.00  0.00    +0.000 A 
ATOM      6  C   UNL     1       3.977   5.860  18.400  0.00  0.00    +0.000 A 
ATOM      7  C   UNL     1       3.170   5.510  19.483  0.00  0.00    +0.000 A 
ATOM      8  C   UNL     1       2.224   6.417  19.961  0.00  0.00    +0.000 A 
ATOM      9  C   UNL     1       2.056   7.670  19.324  0.00  0.00    +0.000 A 
ATOM     10  C   UNL     1       1.175   8.659  19.813  0.00  0.00    +0.000 A 
ATOM     11  C   UNL     1       1.102   9.931  19.208  0.00  0.00    +0.000 A 
ATOM     12  O   UNL     1       3.269   4.303  20.127  0.00  0.00    +0.000 OA
ATOM     13  C   UNL     1       4.006   3.355  19.339  0.00  0.00    +0.000 C 
ATOM     14  C   UNL     1       5.289   3.987  18.821  0.00  0.00    +0.000 C 
ATOM     15  O   UNL     1       4.988   5.063  17.925  0.00  0.00    +0.000 OA
BRANCH   2  16
ATOM     16  O   UNL     1       1.836  11.230  17.345  0.00  0.00    +0.000 OA
ATOM     17  H   UNL     1       1.985  11.855  18.080  0.00  0.00    +0.000 HD
ENDBRANCH   2  16
ENDBRANCH   1  11
BRANCH   1  18
ATOM     18  N   UNL     1       1.280  12.314  19.731  0.00  0.00    +0.000 NA
ATOM     19  C   UNL     1       0.655  13.412  18.966  0.00  0.00    +0.000 C 
ATOM     20  C   UNL     1       1.567  14.594  18.578  0.00  0.00    +0.000 C 
ATOM     21  S   UNL     1       3.330  14.295  18.879  0.00  0.00    +0.000 S 
ATOM     22  C   UNL     1       3.159  13.782  20.617  0.00  0.00    +0.000 C 
ATOM     23  C   UNL     1       2.004  12.792  20.908  0.00  0.00    +0.000 C 
ENDBRANCH   1  18
BRANCH   1  24
ATOM     24  C   UNL     1       0.005  10.810  21.317  0.00  0.00    +0.000 A 
ATOM     25  N   UNL     1       0.715   9.982  22.075  0.00  0.00    +0.000 NA
ATOM     26  N   UNL     1       0.255  10.103  23.346  0.00  0.00    +0.000 NA
ATOM     27  N   UNL     1      -0.739  10.962  23.403  0.00  0.00    +0.000 NA
ATOM     28  N   UNL     1      -0.971  11.380  22.134  0.00  0.00    +0.000 N 
BRANCH  28  29
ATOM     29  C   UNL     1      -2.272  12.017  21.906  0.00  0.00    +0.000 C 
ATOM     30  C   UNL     1      -3.002  12.476  23.218  0.00  0.00    +0.000 C 
ATOM     31  C   UNL     1      -2.490  13.804  23.789  0.00  0.00    +0.000 C 
ATOM     32  C   UNL     1      -2.457  14.912  22.742  0.00  0.00    +0.000 C 
ATOM     33  C   UNL     1      -1.729  14.462  21.479  0.00  0.00    +0.000 C 
ATOM     34  C   UNL     1      -2.353  13.188  20.920  0.00  0.00    +0.000 C 
ENDBRANCH  28  29
ENDBRANCH   1  24
TORSDOF 5
ENDMDL
MODEL 9
REMARK VINA RESULT:      -6.9      4.147      9.387
REMARK  Name = 
REMARK  5 active torsions:
REMARK  status: ('A' for Active; 'I' for Inactive)
REMARK    1  A    between atoms: O_1  and  C_2
REMARK    2  A    between atoms: C_11  and  C_12
REMARK    3  A    between atoms: C_12  and  C_13
REMARK    4  A    between atoms: C_12  and  N_24
REMARK    5  A    between atoms: N_17  and  C_18
REMARK                            x       y       z     vdW  Elec       q    Type
REMARK                         _______ _______ _______ _____ _____    ______ ____
ROOT
ATOM      1  C   UNL     1      -1.184  11.636  19.773  0.00  0.00    +0.000 C 
ENDROOT
BRANCH   1  11
ATOM      2  C   UNL     1      -0.051   9.687  20.975  0.00  0.00    +0.000 A 
ATOM      3  N   UNL     1       0.699   8.569  21.064  0.00  0.00    +0.000 NA
ATOM      4  C   UNL     1       1.478   8.253  20.010  0.00  0.00    +0.000 A 
ATOM      5  C   UNL     1       2.165   7.044  20.013  0.00  0.00    +0.000 A 
ATOM      6  C   UNL     1       2.960   6.651  18.935  0.00  0.00    +0.000 A 
ATOM      7  C   UNL     1       3.134   7.511  17.850  0.00  0.00    +0.000 A 
ATOM      8  C   UNL     1       2.438   8.719  17.809  0.00  0.00    +0.000 A 
ATOM      9  C   UNL     1       1.591   9.088  18.881  0.00  0.00    +0.000 A 
ATOM     10  C   UNL     1       0.798  10.256  18.855  0.00  0.00    +0.000 A 
ATOM     11  C   UNL     1      -0.105  10.545  19.900  0.00  0.00    +0.000 A 
ATOM     12  O   UNL     1       3.958   7.220  16.792  0.00  0.00    +0.000 OA
ATOM     13  C   UNL     1       4.859   6.151  17.119  0.00  0.00    +0.000 C 
ATOM     14  C   UNL     1       4.100   4.999  17.758  0.00  0.00    +0.000 C 
ATOM     15  O   UNL     1       3.539   5.408  19.011  0.00  0.00    +0.000 OA
BRANCH   2  16
ATOM     16  O   UNL     1      -0.833   9.863  22.069  0.00  0.00    +0.000 OA
ATOM     17  H   UNL     1      -0.332   9.310  22.698  0.00  0.00    +0.000 HD
ENDBRANCH   2  16
ENDBRANCH   1  11
BRANCH   1  18
ATOM     18  N   UNL     1      -2.025  11.287  18.579  0.00  0.00    +0.000 NA
ATOM     19  C   UNL     1      -1.840   9.892  18.131  0.00  0.00    +0.000 C 
ATOM     20  C   UNL     1      -2.495   9.502  16.790  0.00  0.00    +0.000 C 
ATOM     21  S   UNL     1      -3.138  10.910  15.846  0.00  0.00    +0.000 S 
ATOM     22  C   UNL     1      -4.131  11.626  17.194  0.00  0.00    +0.000 C 
ATOM     23  C   UNL     1      -3.428  11.697  18.572  0.00  0.00    +0.000 C 
ENDBRANCH   1  18
BRANCH   1  24
ATOM     24  C   UNL     1      -0.576  13.027  19.710  0.00  0.00    +0.000 A 
ATOM     25  N   UNL     1      -0.207  13.588  18.564  0.00  0.00    +0.000 NA
ATOM     26  N   UNL     1       0.073  14.890  18.822  0.00  0.00    +0.000 NA
ATOM     27  N   UNL     1      -0.086  15.157  20.100  0.00  0.00    +0.000 NA
ATOM     28  N   UNL     1      -0.430  13.993  20.706  0.00  0.00    +0.000 N 
BRANCH  28  29
ATOM     29  C   UNL     1      -0.263  13.965  22.161  0.00  0.00    +0.000 C 
ATOM     30  C   UNL     1      -0.380  15.371  22.850  0.00  0.00    +0.000 C 
ATOM     31  C   UNL     1      -1.822  15.849  23.059  0.00  0.00    +0.000 C 
ATOM     32  C   UNL     1      -2.685  14.803  23.756  0.00  0.00    +0.000 C 
ATOM     33  C   UNL     1      -2.578  13.445  23.068  0.00  0.00    +0.000 C 
ATOM     34  C   UNL     1      -1.124  12.997  22.980  0.00  0.00    +0.000 C 
ENDBRANCH  28  29
ENDBRANCH   1  24
TORSDOF 5
ENDMDL
