MODEL 1
REMARK VINA RESULT:      -6.3      0.000      0.000
REMARK  Name = 
REMARK  7 active torsions:
REMARK  status: ('A' for Active; 'I' for Inactive)
REMARK    1  A    between atoms: C_1  and  C_2
REMARK    2  A    between atoms: C_6  and  C_7
REMARK    3  A    between atoms: N_9  and  C_10
REMARK    4  A    between atoms: C_10  and  C_11
REMARK    5  A    between atoms: C_10  and  C_12
REMARK    6  A    between atoms: C_12  and  C_13
REMARK    7  A    between atoms: C_12  and  C_14
REMARK                            x       y       z     vdW  Elec       q    Type
REMARK                         _______ _______ _______ _____ _____    ______ ____
ROOT
ATOM      1  C   UNL     1       5.301   4.494  18.222  0.00  0.00    +0.000 C 
ATOM      2  O   UNL     1       5.824   4.051  19.239  0.00  0.00    +0.000 OA
ATOM      3  N   UNL     1       3.940   4.742  18.155  0.00  0.00    +0.000 N 
ATOM      4  H   UNL     1       3.603   5.210  17.322  0.00  0.00    +0.000 HD
ENDROOT
BRANCH   1  10
ATOM      5  C   UNL     1       7.428   6.867  17.694  0.00  0.00    +0.000 C 
ATOM      6  C   UNL     1       6.962   5.808  16.756  0.00  0.00    +0.000 A 
ATOM      7  N   UNL     1       7.505   5.813  15.475  0.00  0.00    +0.000 NA
ATOM      8  C   UNL     1       7.005   4.824  14.774  0.00  0.00    +0.000 A 
ATOM      9  S   UNL     1       5.867   3.838  15.576  0.00  0.00    +0.000 S 
ATOM     10  C   UNL     1       6.043   4.794  17.002  0.00  0.00    +0.000 A 
ENDBRANCH   1  10
BRANCH   3  11
ATOM     11  C   UNL     1       3.008   4.566  19.266  0.00  0.00    +0.000 C 
ATOM     12  C   UNL     1       2.614   5.946  19.805  0.00  0.00    +0.000 C 
BRANCH  11  13
ATOM     13  C   UNL     1       1.776   3.746  18.795  0.00  0.00    +0.000 C 
ATOM     14  C   UNL     1       2.203   2.527  17.966  0.00  0.00    +0.000 C 
ATOM     15  C   UNL     1       0.901   3.266  19.957  0.00  0.00    +0.000 C 
ENDBRANCH  11  13
ENDBRANCH   3  11
TORSDOF 3
ENDMDL
MODEL 2
REMARK VINA RESULT:      -6.2      0.686      1.113
REMARK  Name = 
REMARK  7 active torsions:
REMARK  status: ('A' for Active; 'I' for Inactive)
REMARK    1  A    between atoms: C_1  and  C_2
REMARK    2  A    between atoms: C_6  and  C_7
REMARK    3  A    between atoms: N_9  and  C_10
REMARK    4  A    between atoms: C_10  and  C_11
REMARK    5  A    between atoms: C_10  and  C_12
REMARK    6  A    between atoms: C_12  and  C_13
REMARK    7  A    between atoms: C_12  and  C_14
REMARK                            x       y       z     vdW  Elec       q    Type
REMARK                         _______ _______ _______ _____ _____    ______ ____
ROOT
ATOM      1  C   UNL     1       5.504   5.029  18.620  0.00  0.00    +0.000 C 
ATOM      2  O   UNL     1       6.087   5.133  19.694  0.00  0.00    +0.000 OA
ATOM      3  N   UNL     1       4.141   4.795  18.555  0.00  0.00    +0.000 N 
ATOM      4  H   UNL     1       3.716   4.832  17.637  0.00  0.00    +0.000 HD
ENDROOT
BRANCH   1  10
ATOM      5  C   UNL     1       7.592   7.279  17.614  0.00  0.00    +0.000 C 
ATOM      6  C   UNL     1       7.074   6.093  16.877  0.00  0.00    +0.000 A 
ATOM      7  N   UNL     1       7.542   5.898  15.581  0.00  0.00    +0.000 NA
ATOM      8  C   UNL     1       7.003   4.817  15.070  0.00  0.00    +0.000 A 
ATOM      9  S   UNL     1       5.916   3.974  16.077  0.00  0.00    +0.000 S 
ATOM     10  C   UNL     1       6.174   5.134  17.328  0.00  0.00    +0.000 A 
ENDBRANCH   1  10
BRANCH   3  11
ATOM     11  C   UNL     1       3.258   4.705  19.716  0.00  0.00    +0.000 C 
ATOM     12  C   UNL     1       2.655   6.087  19.989  0.00  0.00    +0.000 C 
BRANCH  11  13
ATOM     13  C   UNL     1       2.166   3.628  19.464  0.00  0.00    +0.000 C 
ATOM     14  C   UNL     1       1.084   3.668  20.551  0.00  0.00    +0.000 C 
ATOM     15  C   UNL     1       1.493   3.771  18.096  0.00  0.00    +0.000 C 
ENDBRANCH  11  13
ENDBRANCH   3  11
TORSDOF 3
ENDMDL
MODEL 3
REMARK VINA RESULT:      -5.9      1.883      2.278
REMARK  Name = 
REMARK  7 active torsions:
REMARK  status: ('A' for Active; 'I' for Inactive)
REMARK    1  A    between atoms: C_1  and  C_2
REMARK    2  A    between atoms: C_6  and  C_7
REMARK    3  A    between atoms: N_9  and  C_10
REMARK    4  A    between atoms: C_10  and  C_11
REMARK    5  A    between atoms: C_10  and  C_12
REMARK    6  A    between atoms: C_12  and  C_13
REMARK    7  A    between atoms: C_12  and  C_14
REMARK                            x       y       z     vdW  Elec       q    Type
REMARK                         _______ _______ _______ _____ _____    ______ ____
ROOT
ATOM      1  C   UNL     1       5.112   4.636  19.057  0.00  0.00    +0.000 C 
ATOM      2  O   UNL     1       5.401   3.457  19.233  0.00  0.00    +0.000 OA
ATOM      3  N   UNL     1       3.860   5.132  19.378  0.00  0.00    +0.000 N 
ATOM      4  H   UNL     1       3.736   6.135  19.309  0.00  0.00    +0.000 HD
ENDROOT
BRANCH   1  10
ATOM      5  C   UNL     1       4.698   6.576  16.508  0.00  0.00    +0.000 C 
ATOM      6  C   UNL     1       5.880   6.459  17.407  0.00  0.00    +0.000 A 
ATOM      7  N   UNL     1       6.963   7.291  17.141  0.00  0.00    +0.000 NA
ATOM      8  C   UNL     1       7.916   7.076  18.017  0.00  0.00    +0.000 A 
ATOM      9  S   UNL     1       7.596   5.885  19.195  0.00  0.00    +0.000 S 
ATOM     10  C   UNL     1       6.039   5.616  18.501  0.00  0.00    +0.000 A 
ENDBRANCH   1  10
BRANCH   3  11
ATOM     11  C   UNL     1       2.790   4.350  19.995  0.00  0.00    +0.000 C 
ATOM     12  C   UNL     1       1.853   5.301  20.748  0.00  0.00    +0.000 C 
BRANCH  11  13
ATOM     13  C   UNL     1       2.044   3.530  18.907  0.00  0.00    +0.000 C 
ATOM     14  C   UNL     1       0.797   2.847  19.484  0.00  0.00    +0.000 C 
ATOM     15  C   UNL     1       1.626   4.379  17.703  0.00  0.00    +0.000 C 
ENDBRANCH  11  13
ENDBRANCH   3  11
TORSDOF 3
ENDMDL
MODEL 4
REMARK VINA RESULT:      -5.9      1.900      2.777
REMARK  Name = 
REMARK  7 active torsions:
REMARK  status: ('A' for Active; 'I' for Inactive)
REMARK    1  A    between atoms: C_1  and  C_2
REMARK    2  A    between atoms: C_6  and  C_7
REMARK    3  A    between atoms: N_9  and  C_10
REMARK    4  A    between atoms: C_10  and  C_11
REMARK    5  A    between atoms: C_10  and  C_12
REMARK    6  A    between atoms: C_12  and  C_13
REMARK    7  A    between atoms: C_12  and  C_14
REMARK                            x       y       z     vdW  Elec       q    Type
REMARK                         _______ _______ _______ _____ _____    ______ ____
ROOT
ATOM      1  C   UNL     1       3.846   4.908  17.979  0.00  0.00    +0.000 C 
ATOM      2  O   UNL     1       3.157   5.800  17.496  0.00  0.00    +0.000 OA
ATOM      3  N   UNL     1       3.284   3.867  18.700  0.00  0.00    +0.000 N 
ATOM      4  H   UNL     1       3.905   3.113  18.969  0.00  0.00    +0.000 HD
ENDROOT
BRANCH   1  10
ATOM      5  C   UNL     1       5.605   4.048  15.409  0.00  0.00    +0.000 C 
ATOM      6  C   UNL     1       6.073   4.489  16.753  0.00  0.00    +0.000 A 
ATOM      7  N   UNL     1       7.448   4.556  16.955  0.00  0.00    +0.000 NA
ATOM      8  C   UNL     1       7.700   4.963  18.175  0.00  0.00    +0.000 A 
ATOM      9  S   UNL     1       6.341   5.283  19.154  0.00  0.00    +0.000 S 
ATOM     10  C   UNL     1       5.298   4.854  17.848  0.00  0.00    +0.000 A 
ENDBRANCH   1  10
BRANCH   3  11
ATOM     11  C   UNL     1       1.851   3.685  18.915  0.00  0.00    +0.000 C 
ATOM     12  C   UNL     1       1.471   2.250  18.534  0.00  0.00    +0.000 C 
BRANCH  11  13
ATOM     13  C   UNL     1       1.495   4.014  20.391  0.00  0.00    +0.000 C 
ATOM     14  C   UNL     1       2.309   3.152  21.365  0.00  0.00    +0.000 C 
ATOM     15  C   UNL     1       1.711   5.489  20.741  0.00  0.00    +0.000 C 
ENDBRANCH  11  13
ENDBRANCH   3  11
TORSDOF 3
ENDMDL
MODEL 5
REMARK VINA RESULT:      -5.9      1.545      2.178
REMARK  Name = 
REMARK  7 active torsions:
REMARK  status: ('A' for Active; 'I' for Inactive)
REMARK    1  A    between atoms: C_1  and  C_2
REMARK    2  A    between atoms: C_6  and  C_7
REMARK    3  A    between atoms: N_9  and  C_10
REMARK    4  A    between atoms: C_10  and  C_11
REMARK    5  A    between atoms: C_10  and  C_12
REMARK    6  A    between atoms: C_12  and  C_13
REMARK    7  A    between atoms: C_12  and  C_14
REMARK                            x       y       z     vdW  Elec       q    Type
REMARK                         _______ _______ _______ _____ _____    ______ ____
ROOT
ATOM      1  C   UNL     1       3.890   4.987  17.710  0.00  0.00    +0.000 C 
ATOM      2  O   UNL     1       3.262   6.041  17.715  0.00  0.00    +0.000 OA
ATOM      3  N   UNL     1       3.376   3.834  18.280  0.00  0.00    +0.000 N 
ATOM      4  H   UNL     1       3.904   2.982  18.137  0.00  0.00    +0.000 HD
ENDROOT
BRANCH   1  10
ATOM      5  C   UNL     1       6.772   5.439  19.098  0.00  0.00    +0.000 C 
ATOM      6  C   UNL     1       6.466   5.033  17.698  0.00  0.00    +0.000 A 
ATOM      7  N   UNL     1       7.547   4.804  16.854  0.00  0.00    +0.000 NA
ATOM      8  C   UNL     1       7.119   4.450  15.666  0.00  0.00    +0.000 A 
ATOM      9  S   UNL     1       5.427   4.374  15.472  0.00  0.00    +0.000 S 
ATOM     10  C   UNL     1       5.216   4.845  17.119  0.00  0.00    +0.000 A 
ENDBRANCH   1  10
BRANCH   3  11
ATOM     11  C   UNL     1       2.049   3.726  18.882  0.00  0.00    +0.000 C 
ATOM     12  C   UNL     1       1.467   2.347  18.554  0.00  0.00    +0.000 C 
BRANCH  11  13
ATOM     13  C   UNL     1       2.145   3.974  20.413  0.00  0.00    +0.000 C 
ATOM     14  C   UNL     1       1.675   5.388  20.778  0.00  0.00    +0.000 C 
ATOM     15  C   UNL     1       1.338   2.961  21.231  0.00  0.00    +0.000 C 
ENDBRANCH  11  13
ENDBRANCH   3  11
TORSDOF 3
ENDMDL
MODEL 6
REMARK VINA RESULT:      -5.9      1.626      2.151
REMARK  Name = 
REMARK  7 active torsions:
REMARK  status: ('A' for Active; 'I' for Inactive)
REMARK    1  A    between atoms: C_1  and  C_2
REMARK    2  A    between atoms: C_6  and  C_7
REMARK    3  A    between atoms: N_9  and  C_10
REMARK    4  A    between atoms: C_10  and  C_11
REMARK    5  A    between atoms: C_10  and  C_12
REMARK    6  A    between atoms: C_12  and  C_13
REMARK    7  A    between atoms: C_12  and  C_14
REMARK                            x       y       z     vdW  Elec       q    Type
REMARK                         _______ _______ _______ _____ _____    ______ ____
ROOT
ATOM      1  C   UNL     1       4.758   4.015  19.166  0.00  0.00    +0.000 C 
ATOM      2  O   UNL     1       4.917   2.918  19.692  0.00  0.00    +0.000 OA
ATOM      3  N   UNL     1       3.546   4.681  19.230  0.00  0.00    +0.000 N 
ATOM      4  H   UNL     1       3.527   5.627  18.869  0.00  0.00    +0.000 HD
ENDROOT
BRANCH   1  10
ATOM      5  C   UNL     1       5.255   4.117  15.975  0.00  0.00    +0.000 C 
ATOM      6  C   UNL     1       6.038   4.771  17.061  0.00  0.00    +0.000 A 
ATOM      7  N   UNL     1       7.131   5.541  16.678  0.00  0.00    +0.000 NA
ATOM      8  C   UNL     1       7.710   6.052  17.738  0.00  0.00    +0.000 A 
ATOM      9  S   UNL     1       7.008   5.653  19.241  0.00  0.00    +0.000 S 
ATOM     10  C   UNL     1       5.808   4.714  18.431  0.00  0.00    +0.000 A 
ENDBRANCH   1  10
BRANCH   3  11
ATOM     11  C   UNL     1       2.372   4.200  19.954  0.00  0.00    +0.000 C 
ATOM     12  C   UNL     1       1.792   5.353  20.780  0.00  0.00    +0.000 C 
BRANCH  11  13
ATOM     13  C   UNL     1       1.337   3.619  18.951  0.00  0.00    +0.000 C 
ATOM     14  C   UNL     1       1.482   4.263  17.565  0.00  0.00    +0.000 C 
ATOM     15  C   UNL     1       1.444   2.099  18.799  0.00  0.00    +0.000 C 
ENDBRANCH  11  13
ENDBRANCH   3  11
TORSDOF 3
ENDMDL
MODEL 7
REMARK VINA RESULT:      -5.8      1.903      5.457
REMARK  Name = 
REMARK  7 active torsions:
REMARK  status: ('A' for Active; 'I' for Inactive)
REMARK    1  A    between atoms: C_1  and  C_2
REMARK    2  A    between atoms: C_6  and  C_7
REMARK    3  A    between atoms: N_9  and  C_10
REMARK    4  A    between atoms: C_10  and  C_11
REMARK    5  A    between atoms: C_10  and  C_12
REMARK    6  A    between atoms: C_12  and  C_13
REMARK    7  A    between atoms: C_12  and  C_14
REMARK                            x       y       z     vdW  Elec       q    Type
REMARK                         _______ _______ _______ _____ _____    ______ ____
ROOT
ATOM      1  C   UNL     1       4.612   3.649  18.908  0.00  0.00    +0.000 C 
ATOM      2  O   UNL     1       5.396   3.250  19.763  0.00  0.00    +0.000 OA
ATOM      3  N   UNL     1       5.042   4.391  17.821  0.00  0.00    +0.000 N 
ATOM      4  H   UNL     1       4.354   4.588  17.104  0.00  0.00    +0.000 HD
ENDROOT
BRANCH   1  10
ATOM      5  C   UNL     1       2.333   5.233  20.562  0.00  0.00    +0.000 C 
ATOM      6  C   UNL     1       2.181   4.061  19.655  0.00  0.00    +0.000 A 
ATOM      7  N   UNL     1       0.895   3.565  19.469  0.00  0.00    +0.000 NA
ATOM      8  C   UNL     1       0.923   2.546  18.645  0.00  0.00    +0.000 A 
ATOM      9  S   UNL     1       2.460   2.109  18.047  0.00  0.00    +0.000 S 
ATOM     10  C   UNL     1       3.177   3.392  18.951  0.00  0.00    +0.000 A 
ENDBRANCH   1  10
BRANCH   3  11
ATOM     11  C   UNL     1       6.436   4.726  17.542  0.00  0.00    +0.000 C 
ATOM     12  C   UNL     1       6.619   4.867  16.027  0.00  0.00    +0.000 C 
BRANCH  11  13
ATOM     13  C   UNL     1       6.829   6.021  18.304  0.00  0.00    +0.000 C 
ATOM     14  C   UNL     1       7.906   5.740  19.361  0.00  0.00    +0.000 C 
ATOM     15  C   UNL     1       7.332   7.129  17.374  0.00  0.00    +0.000 C 
ENDBRANCH  11  13
ENDBRANCH   3  11
TORSDOF 3
ENDMDL
MODEL 8
REMARK VINA RESULT:      -5.8      1.874      2.134
REMARK  Name = 
REMARK  7 active torsions:
REMARK  status: ('A' for Active; 'I' for Inactive)
REMARK    1  A    between atoms: C_1  and  C_2
REMARK    2  A    between atoms: C_6  and  C_7
REMARK    3  A    between atoms: N_9  and  C_10
REMARK    4  A    between atoms: C_10  and  C_11
REMARK    5  A    between atoms: C_10  and  C_12
REMARK    6  A    between atoms: C_12  and  C_13
REMARK    7  A    between atoms: C_12  and  C_14
REMARK                            x       y       z     vdW  Elec       q    Type
REMARK                         _______ _______ _______ _____ _____    ______ ____
ROOT
ATOM      1  C   UNL     1       5.161   4.556  19.033  0.00  0.00    +0.000 C 
ATOM      2  O   UNL     1       5.521   3.436  19.379  0.00  0.00    +0.000 OA
ATOM      3  N   UNL     1       3.837   4.952  19.122  0.00  0.00    +0.000 N 
ATOM      4  H   UNL     1       3.639   5.925  18.923  0.00  0.00    +0.000 HD
ENDROOT
BRANCH   1  10
ATOM      5  C   UNL     1       4.754   6.483  16.472  0.00  0.00    +0.000 C 
ATOM      6  C   UNL     1       5.915   6.403  17.402  0.00  0.00    +0.000 A 
ATOM      7  N   UNL     1       6.979   7.267  17.164  0.00  0.00    +0.000 NA
ATOM      8  C   UNL     1       7.914   7.082  18.065  0.00  0.00    +0.000 A 
ATOM      9  S   UNL     1       7.601   5.881  19.235  0.00  0.00    +0.000 S 
ATOM     10  C   UNL     1       6.072   5.564  18.500  0.00  0.00    +0.000 A 
ENDBRANCH   1  10
BRANCH   3  11
ATOM     11  C   UNL     1       2.760   4.131  19.671  0.00  0.00    +0.000 C 
ATOM     12  C   UNL     1       2.089   4.897  20.816  0.00  0.00    +0.000 C 
BRANCH  11  13
ATOM     13  C   UNL     1       1.756   3.759  18.546  0.00  0.00    +0.000 C 
ATOM     14  C   UNL     1       2.487   3.343  17.263  0.00  0.00    +0.000 C 
ATOM     15  C   UNL     1       0.797   2.636  18.952  0.00  0.00    +0.000 C 
ENDBRANCH  11  13
ENDBRANCH   3  11
TORSDOF 3
ENDMDL
MODEL 9
REMARK VINA RESULT:      -5.8      1.829      5.313
REMARK  Name = 
REMARK  7 active torsions:
REMARK  status: ('A' for Active; 'I' for Inactive)
REMARK    1  A    between atoms: C_1  and  C_2
REMARK    2  A    between atoms: C_6  and  C_7
REMARK    3  A    between atoms: N_9  and  C_10
REMARK    4  A    between atoms: C_10  and  C_11
REMARK    5  A    between atoms: C_10  and  C_12
REMARK    6  A    between atoms: C_12  and  C_13
REMARK    7  A    between atoms: C_12  and  C_14
REMARK                            x       y       z     vdW  Elec       q    Type
REMARK                         _______ _______ _______ _____ _____    ______ ____
ROOT
ATOM      1  C   UNL     1       4.653   3.856  18.511  0.00  0.00    +0.000 C 
ATOM      2  O   UNL     1       5.559   3.766  19.333  0.00  0.00    +0.000 OA
ATOM      3  N   UNL     1       4.891   4.268  17.211  0.00  0.00    +0.000 N 
ATOM      4  H   UNL     1       4.113   4.210  16.565  0.00  0.00    +0.000 HD
ENDROOT
BRANCH   1  10
ATOM      5  C   UNL     1       2.432   5.744  19.904  0.00  0.00    +0.000 C 
ATOM      6  C   UNL     1       2.289   4.345  19.412  0.00  0.00    +0.000 A 
ATOM      7  N   UNL     1       1.040   3.748  19.551  0.00  0.00    +0.000 NA
ATOM      8  C   UNL     1       1.072   2.529  19.069  0.00  0.00    +0.000 A 
ATOM      9  S   UNL     1       2.568   2.014  18.432  0.00  0.00    +0.000 S 
ATOM     10  C   UNL     1       3.259   3.548  18.815  0.00  0.00    +0.000 A 
ENDBRANCH   1  10
BRANCH   3  11
ATOM     11  C   UNL     1       6.211   4.579  16.667  0.00  0.00    +0.000 C 
ATOM     12  C   UNL     1       6.328   3.966  15.268  0.00  0.00    +0.000 C 
BRANCH  11  13
ATOM     13  C   UNL     1       6.426   6.118  16.653  0.00  0.00    +0.000 C 
ATOM     14  C   UNL     1       5.091   6.867  16.774  0.00  0.00    +0.000 C 
ATOM     15  C   UNL     1       7.362   6.599  17.766  0.00  0.00    +0.000 C 
ENDBRANCH  11  13
ENDBRANCH   3  11
TORSDOF 3
ENDMDL
