MODEL 1
REMARK VINA RESULT:      -6.7      0.000      0.000
REMARK  Name = 
REMARK  4 active torsions:
REMARK  status: ('A' for Active; 'I' for Inactive)
REMARK    1  A    between atoms: O_1  and  C_2
REMARK    2  A    between atoms: C_6  and  N_7
REMARK    3  A    between atoms: C_8  and  C_9
REMARK    4  A    between atoms: C_14  and  O_15
REMARK                            x       y       z     vdW  Elec       q    Type
REMARK                         _______ _______ _______ _____ _____    ______ ____
ROOT
ATOM      1  N   UNL     1       5.387   3.674  15.785  0.00  0.00    +0.000 NA
ATOM      2  C   UNL     1       4.500   4.461  16.305  0.00  0.00    +0.000 C 
ENDROOT
BRANCH   1   7
ATOM      3  C   UNL     1       7.788   5.160  13.339  0.00  0.00    +0.000 A 
ATOM      4  C   UNL     1       7.366   4.547  12.164  0.00  0.00    +0.000 A 
ATOM      5  C   UNL     1       6.289   3.665  12.207  0.00  0.00    +0.000 A 
ATOM      6  C   UNL     1       5.645   3.415  13.421  0.00  0.00    +0.000 A 
ATOM      7  C   UNL     1       6.060   4.035  14.607  0.00  0.00    +0.000 A 
ATOM      8  C   UNL     1       7.154   4.905  14.554  0.00  0.00    +0.000 A 
BRANCH   3   9
ATOM      9  O   UNL     1       8.844   6.025  13.342  0.00  0.00    +0.000 OA
ATOM     10  H   UNL     1       9.636   5.545  13.050  0.00  0.00    +0.000 HD
ENDBRANCH   3   9
ENDBRANCH   1   7
BRANCH   2  11
ATOM     11  C   UNL     1       3.770   4.074  17.534  0.00  0.00    +0.000 A 
ATOM     12  C   UNL     1       2.369   4.106  17.543  0.00  0.00    +0.000 A 
ATOM     13  C   UNL     1       1.666   3.760  18.698  0.00  0.00    +0.000 A 
ATOM     14  C   UNL     1       2.358   3.378  19.846  0.00  0.00    +0.000 A 
ATOM     15  C   UNL     1       3.754   3.343  19.845  0.00  0.00    +0.000 A 
ATOM     16  C   UNL     1       4.460   3.693  18.689  0.00  0.00    +0.000 A 
BRANCH  16  17
ATOM     17  O   UNL     1       5.826   3.659  18.697  0.00  0.00    +0.000 OA
ATOM     18  H   UNL     1       6.121   2.748  18.853  0.00  0.00    +0.000 HD
ENDBRANCH  16  17
ENDBRANCH   2  11
TORSDOF 4
ENDMDL
MODEL 2
REMARK VINA RESULT:      -6.7      1.698      2.526
REMARK  Name = 
REMARK  4 active torsions:
REMARK  status: ('A' for Active; 'I' for Inactive)
REMARK    1  A    between atoms: O_1  and  C_2
REMARK    2  A    between atoms: C_6  and  N_7
REMARK    3  A    between atoms: C_8  and  C_9
REMARK    4  A    between atoms: C_14  and  O_15
REMARK                            x       y       z     vdW  Elec       q    Type
REMARK                         _______ _______ _______ _____ _____    ______ ____
ROOT
ATOM      1  N   UNL     1       4.996   4.080  17.898  0.00  0.00    +0.000 NA
ATOM      2  C   UNL     1       3.753   3.721  17.847  0.00  0.00    +0.000 C 
ENDROOT
BRANCH   1   7
ATOM      3  C   UNL     1       6.303   3.935  14.401  0.00  0.00    +0.000 A 
ATOM      4  C   UNL     1       7.164   5.028  14.405  0.00  0.00    +0.000 A 
ATOM      5  C   UNL     1       7.301   5.779  15.569  0.00  0.00    +0.000 A 
ATOM      6  C   UNL     1       6.581   5.425  16.714  0.00  0.00    +0.000 A 
ATOM      7  C   UNL     1       5.719   4.321  16.718  0.00  0.00    +0.000 A 
ATOM      8  C   UNL     1       5.576   3.584  15.538  0.00  0.00    +0.000 A 
BRANCH   3   9
ATOM      9  O   UNL     1       6.133   3.176  13.279  0.00  0.00    +0.000 OA
ATOM     10  H   UNL     1       6.620   2.343  13.394  0.00  0.00    +0.000 HD
ENDBRANCH   3   9
ENDBRANCH   1   7
BRANCH   2  11
ATOM     11  C   UNL     1       2.994   3.442  19.089  0.00  0.00    +0.000 A 
ATOM     12  C   UNL     1       1.688   3.933  19.222  0.00  0.00    +0.000 A 
ATOM     13  C   UNL     1       0.964   3.694  20.392  0.00  0.00    +0.000 A 
ATOM     14  C   UNL     1       1.540   2.962  21.428  0.00  0.00    +0.000 A 
ATOM     15  C   UNL     1       2.840   2.468  21.303  0.00  0.00    +0.000 A 
ATOM     16  C   UNL     1       3.568   2.710  20.133  0.00  0.00    +0.000 A 
BRANCH  16  17
ATOM     17  O   UNL     1       4.841   2.227  20.019  0.00  0.00    +0.000 OA
ATOM     18  H   UNL     1       5.444   2.797  20.522  0.00  0.00    +0.000 HD
ENDBRANCH  16  17
ENDBRANCH   2  11
TORSDOF 4
ENDMDL
MODEL 3
REMARK VINA RESULT:      -6.6      1.991      3.040
REMARK  Name = 
REMARK  4 active torsions:
REMARK  status: ('A' for Active; 'I' for Inactive)
REMARK    1  A    between atoms: O_1  and  C_2
REMARK    2  A    between atoms: C_6  and  N_7
REMARK    3  A    between atoms: C_8  and  C_9
REMARK    4  A    between atoms: C_14  and  O_15
REMARK                            x       y       z     vdW  Elec       q    Type
REMARK                         _______ _______ _______ _____ _____    ______ ____
ROOT
ATOM      1  N   UNL     1       4.230   4.369  17.529  0.00  0.00    +0.000 NA
ATOM      2  C   UNL     1       4.059   3.251  18.161  0.00  0.00    +0.000 C 
ENDROOT
BRANCH   1   7
ATOM      3  C   UNL     1       6.236   3.987  14.401  0.00  0.00    +0.000 A 
ATOM      4  C   UNL     1       7.224   4.944  14.614  0.00  0.00    +0.000 A 
ATOM      5  C   UNL     1       7.209   5.684  15.793  0.00  0.00    +0.000 A 
ATOM      6  C   UNL     1       6.213   5.453  16.745  0.00  0.00    +0.000 A 
ATOM      7  C   UNL     1       5.221   4.486  16.541  0.00  0.00    +0.000 A 
ATOM      8  C   UNL     1       5.236   3.761  15.345  0.00  0.00    +0.000 A 
BRANCH   3   9
ATOM      9  O   UNL     1       6.210   3.245  13.256  0.00  0.00    +0.000 OA
ATOM     10  H   UNL     1       5.322   3.309  12.868  0.00  0.00    +0.000 HD
ENDBRANCH   3   9
ENDBRANCH   1   7
BRANCH   2  11
ATOM     11  C   UNL     1       3.032   3.130  19.222  0.00  0.00    +0.000 A 
ATOM     12  C   UNL     1       3.422   2.781  20.522  0.00  0.00    +0.000 A 
ATOM     13  C   UNL     1       2.466   2.647  21.530  0.00  0.00    +0.000 A 
ATOM     14  C   UNL     1       1.119   2.863  21.244  0.00  0.00    +0.000 A 
ATOM     15  C   UNL     1       0.722   3.212  19.951  0.00  0.00    +0.000 A 
ATOM     16  C   UNL     1       1.679   3.344  18.940  0.00  0.00    +0.000 A 
BRANCH  16  17
ATOM     17  O   UNL     1       1.283   3.683  17.677  0.00  0.00    +0.000 OA
ATOM     18  H   UNL     1       1.338   4.646  17.574  0.00  0.00    +0.000 HD
ENDBRANCH  16  17
ENDBRANCH   2  11
TORSDOF 4
ENDMDL
MODEL 4
REMARK VINA RESULT:      -6.5      1.786      6.444
REMARK  Name = 
REMARK  4 active torsions:
REMARK  status: ('A' for Active; 'I' for Inactive)
REMARK    1  A    between atoms: O_1  and  C_2
REMARK    2  A    between atoms: C_6  and  N_7
REMARK    3  A    between atoms: C_8  and  C_9
REMARK    4  A    between atoms: C_14  and  O_15
REMARK                            x       y       z     vdW  Elec       q    Type
REMARK                         _______ _______ _______ _____ _____    ______ ____
ROOT
ATOM      1  N   UNL     1       4.659   5.185  16.330  0.00  0.00    +0.000 NA
ATOM      2  C   UNL     1       5.123   4.130  15.741  0.00  0.00    +0.000 C 
ENDROOT
BRANCH   1   7
ATOM      3  C   UNL     1       2.750   5.933  19.453  0.00  0.00    +0.000 A 
ATOM      4  C   UNL     1       2.226   4.676  19.738  0.00  0.00    +0.000 A 
ATOM      5  C   UNL     1       2.527   3.608  18.897  0.00  0.00    +0.000 A 
ATOM      6  C   UNL     1       3.353   3.810  17.787  0.00  0.00    +0.000 A 
ATOM      7  C   UNL     1       3.889   5.071  17.499  0.00  0.00    +0.000 A 
ATOM      8  C   UNL     1       3.566   6.140  18.342  0.00  0.00    +0.000 A 
BRANCH   3   9
ATOM      9  O   UNL     1       2.474   7.008  20.247  0.00  0.00    +0.000 OA
ATOM     10  H   UNL     1       2.773   6.810  21.149  0.00  0.00    +0.000 HD
ENDBRANCH   3   9
ENDBRANCH   1   7
BRANCH   2  11
ATOM     11  C   UNL     1       5.916   4.244  14.495  0.00  0.00    +0.000 A 
ATOM     12  C   UNL     1       5.514   3.533  13.356  0.00  0.00    +0.000 A 
ATOM     13  C   UNL     1       6.257   3.617  12.177  0.00  0.00    +0.000 A 
ATOM     14  C   UNL     1       7.401   4.411  12.131  0.00  0.00    +0.000 A 
ATOM     15  C   UNL     1       7.808   5.124  13.262  0.00  0.00    +0.000 A 
ATOM     16  C   UNL     1       7.065   5.038  14.444  0.00  0.00    +0.000 A 
BRANCH  16  17
ATOM     17  O   UNL     1       7.471   5.735  15.547  0.00  0.00    +0.000 OA
ATOM     18  H   UNL     1       8.416   5.942  15.463  0.00  0.00    +0.000 HD
ENDBRANCH  16  17
ENDBRANCH   2  11
TORSDOF 4
ENDMDL
MODEL 5
REMARK VINA RESULT:      -6.5      4.877      6.269
REMARK  Name = 
REMARK  4 active torsions:
REMARK  status: ('A' for Active; 'I' for Inactive)
REMARK    1  A    between atoms: O_1  and  C_2
REMARK    2  A    between atoms: C_6  and  N_7
REMARK    3  A    between atoms: C_8  and  C_9
REMARK    4  A    between atoms: C_14  and  O_15
REMARK                            x       y       z     vdW  Elec       q    Type
REMARK                         _______ _______ _______ _____ _____    ______ ____
ROOT
ATOM      1  N   UNL     1       2.138   5.421  19.121  0.00  0.00    +0.000 NA
ATOM      2  C   UNL     1       2.733   6.481  18.674  0.00  0.00    +0.000 C 
ENDROOT
BRANCH   1   7
ATOM      3  C   UNL     1       4.152   2.291  19.433  0.00  0.00    +0.000 A 
ATOM      4  C   UNL     1       3.592   1.525  18.415  0.00  0.00    +0.000 A 
ATOM      5  C   UNL     1       2.570   2.068  17.642  0.00  0.00    +0.000 A 
ATOM      6  C   UNL     1       2.126   3.370  17.892  0.00  0.00    +0.000 A 
ATOM      7  C   UNL     1       2.691   4.148  18.910  0.00  0.00    +0.000 A 
ATOM      8  C   UNL     1       3.706   3.586  19.691  0.00  0.00    +0.000 A 
BRANCH   3   9
ATOM      9  O   UNL     1       5.152   1.795  20.219  0.00  0.00    +0.000 OA
ATOM     10  H   UNL     1       4.905   0.900  20.504  0.00  0.00    +0.000 HD
ENDBRANCH   3   9
ENDBRANCH   1   7
BRANCH   2  11
ATOM     11  C   UNL     1       2.141   7.824  18.873  0.00  0.00    +0.000 A 
ATOM     12  C   UNL     1       2.113   8.730  17.804  0.00  0.00    +0.000 A 
ATOM     13  C   UNL     1       1.573  10.006  17.979  0.00  0.00    +0.000 A 
ATOM     14  C   UNL     1       1.058  10.379  19.219  0.00  0.00    +0.000 A 
ATOM     15  C   UNL     1       1.082   9.482  20.290  0.00  0.00    +0.000 A 
ATOM     16  C   UNL     1       1.625   8.205  20.116  0.00  0.00    +0.000 A 
BRANCH  16  17
ATOM     17  O   UNL     1       1.649   7.333  21.169  0.00  0.00    +0.000 OA
ATOM     18  H   UNL     1       0.849   7.461  21.705  0.00  0.00    +0.000 HD
ENDBRANCH  16  17
ENDBRANCH   2  11
TORSDOF 4
ENDMDL
MODEL 6
REMARK VINA RESULT:      -6.5      1.571      6.519
REMARK  Name = 
REMARK  4 active torsions:
REMARK  status: ('A' for Active; 'I' for Inactive)
REMARK    1  A    between atoms: O_1  and  C_2
REMARK    2  A    between atoms: C_6  and  N_7
REMARK    3  A    between atoms: C_8  and  C_9
REMARK    4  A    between atoms: C_14  and  O_15
REMARK                            x       y       z     vdW  Elec       q    Type
REMARK                         _______ _______ _______ _____ _____    ______ ____
ROOT
ATOM      1  N   UNL     1       4.886   5.249  16.400  0.00  0.00    +0.000 NA
ATOM      2  C   UNL     1       5.207   4.173  15.754  0.00  0.00    +0.000 C 
ENDROOT
BRANCH   1   7
ATOM      3  C   UNL     1       3.412   4.081  19.627  0.00  0.00    +0.000 A 
ATOM      4  C   UNL     1       2.771   5.241  20.049  0.00  0.00    +0.000 A 
ATOM      5  C   UNL     1       2.831   6.379  19.249  0.00  0.00    +0.000 A 
ATOM      6  C   UNL     1       3.525   6.340  18.037  0.00  0.00    +0.000 A 
ATOM      7  C   UNL     1       4.166   5.172  17.603  0.00  0.00    +0.000 A 
ATOM      8  C   UNL     1       4.113   4.041  18.423  0.00  0.00    +0.000 A 
BRANCH   3   9
ATOM      9  O   UNL     1       3.384   2.945  20.384  0.00  0.00    +0.000 OA
ATOM     10  H   UNL     1       4.259   2.527  20.345  0.00  0.00    +0.000 HD
ENDBRANCH   3   9
ENDBRANCH   1   7
BRANCH   2  11
ATOM     11  C   UNL     1       5.944   4.250  14.472  0.00  0.00    +0.000 A 
ATOM     12  C   UNL     1       5.490   3.513  13.370  0.00  0.00    +0.000 A 
ATOM     13  C   UNL     1       6.182   3.561  12.159  0.00  0.00    +0.000 A 
ATOM     14  C   UNL     1       7.327   4.347  12.043  0.00  0.00    +0.000 A 
ATOM     15  C   UNL     1       7.786   5.086  13.136  0.00  0.00    +0.000 A 
ATOM     16  C   UNL     1       7.095   5.036  14.351  0.00  0.00    +0.000 A 
BRANCH  16  17
ATOM     17  O   UNL     1       7.552   5.759  15.417  0.00  0.00    +0.000 OA
ATOM     18  H   UNL     1       7.174   5.394  16.233  0.00  0.00    +0.000 HD
ENDBRANCH  16  17
ENDBRANCH   2  11
TORSDOF 4
ENDMDL
MODEL 7
REMARK VINA RESULT:      -6.4      1.726      2.416
REMARK  Name = 
REMARK  4 active torsions:
REMARK  status: ('A' for Active; 'I' for Inactive)
REMARK    1  A    between atoms: O_1  and  C_2
REMARK    2  A    between atoms: C_6  and  N_7
REMARK    3  A    between atoms: C_8  and  C_9
REMARK    4  A    between atoms: C_14  and  O_15
REMARK                            x       y       z     vdW  Elec       q    Type
REMARK                         _______ _______ _______ _____ _____    ______ ____
ROOT
ATOM      1  N   UNL     1       4.464   3.614  17.697  0.00  0.00    +0.000 NA
ATOM      2  C   UNL     1       4.023   4.336  18.677  0.00  0.00    +0.000 C 
ENDROOT
BRANCH   1   7
ATOM      3  C   UNL     1       7.077   5.671  15.996  0.00  0.00    +0.000 A 
ATOM      4  C   UNL     1       7.129   5.043  14.755  0.00  0.00    +0.000 A 
ATOM      5  C   UNL     1       6.287   3.961  14.507  0.00  0.00    +0.000 A 
ATOM      6  C   UNL     1       5.404   3.527  15.499  0.00  0.00    +0.000 A 
ATOM      7  C   UNL     1       5.342   4.160  16.747  0.00  0.00    +0.000 A 
ATOM      8  C   UNL     1       6.204   5.235  16.990  0.00  0.00    +0.000 A 
BRANCH   3   9
ATOM      9  O   UNL     1       7.889   6.730  16.283  0.00  0.00    +0.000 OA
ATOM     10  H   UNL     1       7.540   7.182  17.069  0.00  0.00    +0.000 HD
ENDBRANCH   3   9
ENDBRANCH   1   7
BRANCH   2  11
ATOM     11  C   UNL     1       3.077   3.772  19.668  0.00  0.00    +0.000 A 
ATOM     12  C   UNL     1       1.775   4.285  19.748  0.00  0.00    +0.000 A 
ATOM     13  C   UNL     1       0.875   3.776  20.686  0.00  0.00    +0.000 A 
ATOM     14  C   UNL     1       1.271   2.752  21.544  0.00  0.00    +0.000 A 
ATOM     15  C   UNL     1       2.567   2.234  21.471  0.00  0.00    +0.000 A 
ATOM     16  C   UNL     1       3.470   2.745  20.533  0.00  0.00    +0.000 A 
BRANCH  16  17
ATOM     17  O   UNL     1       4.736   2.236  20.469  0.00  0.00    +0.000 OA
ATOM     18  H   UNL     1       4.706   1.284  20.654  0.00  0.00    +0.000 HD
ENDBRANCH  16  17
ENDBRANCH   2  11
TORSDOF 4
ENDMDL
MODEL 8
REMARK VINA RESULT:      -6.4      1.174      1.189
REMARK  Name = 
REMARK  4 active torsions:
REMARK  status: ('A' for Active; 'I' for Inactive)
REMARK    1  A    between atoms: O_1  and  C_2
REMARK    2  A    between atoms: C_6  and  N_7
REMARK    3  A    between atoms: C_8  and  C_9
REMARK    4  A    between atoms: C_14  and  O_15
REMARK                            x       y       z     vdW  Elec       q    Type
REMARK                         _______ _______ _______ _____ _____    ______ ____
ROOT
ATOM      1  N   UNL     1       5.040   4.297  15.691  0.00  0.00    +0.000 NA
ATOM      2  C   UNL     1       4.985   5.293  16.518  0.00  0.00    +0.000 C 
ENDROOT
BRANCH   1   7
ATOM      3  C   UNL     1       7.717   5.130  13.223  0.00  0.00    +0.000 A 
ATOM      4  C   UNL     1       7.348   4.311  12.161  0.00  0.00    +0.000 A 
ATOM      5  C   UNL     1       6.214   3.512  12.282  0.00  0.00    +0.000 A 
ATOM      6  C   UNL     1       5.463   3.547  13.459  0.00  0.00    +0.000 A 
ATOM      7  C   UNL     1       5.825   4.375  14.530  0.00  0.00    +0.000 A 
ATOM      8  C   UNL     1       6.975   5.161  14.402  0.00  0.00    +0.000 A 
BRANCH   3   9
ATOM      9  O   UNL     1       8.825   5.924  13.148  0.00  0.00    +0.000 OA
ATOM     10  H   UNL     1       9.138   5.931  12.229  0.00  0.00    +0.000 HD
ENDBRANCH   3   9
ENDBRANCH   1   7
BRANCH   2  11
ATOM     11  C   UNL     1       4.139   5.224  17.732  0.00  0.00    +0.000 A 
ATOM     12  C   UNL     1       3.337   6.321  18.076  0.00  0.00    +0.000 A 
ATOM     13  C   UNL     1       2.546   6.280  19.225  0.00  0.00    +0.000 A 
ATOM     14  C   UNL     1       2.551   5.144  20.032  0.00  0.00    +0.000 A 
ATOM     15  C   UNL     1       3.346   4.046  19.696  0.00  0.00    +0.000 A 
ATOM     16  C   UNL     1       4.142   4.087  18.546  0.00  0.00    +0.000 A 
BRANCH  16  17
ATOM     17  O   UNL     1       4.921   3.011  18.226  0.00  0.00    +0.000 OA
ATOM     18  H   UNL     1       5.790   3.324  17.929  0.00  0.00    +0.000 HD
ENDBRANCH  16  17
ENDBRANCH   2  11
TORSDOF 4
ENDMDL
MODEL 9
REMARK VINA RESULT:      -6.4      1.736      2.414
REMARK  Name = 
REMARK  4 active torsions:
REMARK  status: ('A' for Active; 'I' for Inactive)
REMARK    1  A    between atoms: O_1  and  C_2
REMARK    2  A    between atoms: C_6  and  N_7
REMARK    3  A    between atoms: C_8  and  C_9
REMARK    4  A    between atoms: C_14  and  O_15
REMARK                            x       y       z     vdW  Elec       q    Type
REMARK                         _______ _______ _______ _____ _____    ______ ____
ROOT
ATOM      1  N   UNL     1       4.780   3.983  17.405  0.00  0.00    +0.000 NA
ATOM      2  C   UNL     1       3.531   4.323  17.405  0.00  0.00    +0.000 C 
ENDROOT
BRANCH   1   7
ATOM      3  C   UNL     1       6.304   3.881  13.996  0.00  0.00    +0.000 A 
ATOM      4  C   UNL     1       7.208   4.934  14.089  0.00  0.00    +0.000 A 
ATOM      5  C   UNL     1       7.300   5.645  15.283  0.00  0.00    +0.000 A 
ATOM      6  C   UNL     1       6.494   5.290  16.367  0.00  0.00    +0.000 A 
ATOM      7  C   UNL     1       5.587   4.225  16.282  0.00  0.00    +0.000 A 
ATOM      8  C   UNL     1       5.492   3.529  15.073  0.00  0.00    +0.000 A 
BRANCH   3   9
ATOM      9  O   UNL     1       6.177   3.162  12.843  0.00  0.00    +0.000 OA
ATOM     10  H   UNL     1       6.446   2.245  13.019  0.00  0.00    +0.000 HD
ENDBRANCH   3   9
ENDBRANCH   1   7
BRANCH   2  11
ATOM     11  C   UNL     1       2.670   4.047  18.579  0.00  0.00    +0.000 A 
ATOM     12  C   UNL     1       1.632   3.112  18.467  0.00  0.00    +0.000 A 
ATOM     13  C   UNL     1       0.802   2.850  19.558  0.00  0.00    +0.000 A 
ATOM     14  C   UNL     1       1.006   3.520  20.763  0.00  0.00    +0.000 A 
ATOM     15  C   UNL     1       2.038   4.453  20.883  0.00  0.00    +0.000 A 
ATOM     16  C   UNL     1       2.869   4.717  19.790  0.00  0.00    +0.000 A 
BRANCH  16  17
ATOM     17  O   UNL     1       3.875   5.634  19.914  0.00  0.00    +0.000 OA
ATOM     18  H   UNL     1       3.661   6.415  19.378  0.00  0.00    +0.000 HD
ENDBRANCH  16  17
ENDBRANCH   2  11
TORSDOF 4
ENDMDL
