MODEL 1
REMARK VINA RESULT:      -7.3      0.000      0.000
REMARK  Name = 
REMARK  6 active torsions:
REMARK  status: ('A' for Active; 'I' for Inactive)
REMARK    1  A    between atoms: C_1  and  O_2
REMARK    2  A    between atoms: O_2  and  C_3
REMARK    3  A    between atoms: C_6  and  N_7
REMARK    4  A    between atoms: C_8  and  C_10
REMARK    5  A    between atoms: C_21  and  O_22
REMARK    6  A    between atoms: O_22  and  C_23
REMARK                            x       y       z     vdW  Elec       q    Type
REMARK                         _______ _______ _______ _____ _____    ______ ____
ROOT
ATOM      1  N   UNL     1       2.243   7.681  18.513  0.00  0.00    +0.000 N 
ATOM      2  C   UNL     1       1.759   8.105  19.735  0.00  0.00    +0.000 C 
ATOM      3  O   UNL     1       1.784   7.504  20.794  0.00  0.00    +0.000 OA
ATOM      4  H   UNL     1       2.194   8.347  17.749  0.00  0.00    +0.000 HD
ENDROOT
BRANCH   2   5
ATOM      5  C   UNL     1       1.083   9.476  19.649  0.00  0.00    +0.000 C 
ATOM      6  C   UNL     1      -0.117   9.678  20.571  0.00  0.00    +0.000 C 
ATOM      7  O   UNL     1      -0.524  11.077  20.407  0.00  0.00    +0.000 OA
ATOM      8  C   UNL     1      -1.099  11.218  19.157  0.00  0.00    +0.000 A 
ATOM      9  C   UNL     1      -2.162  12.085  18.990  0.00  0.00    +0.000 A 
ATOM     10  C   UNL     1      -3.147  11.717  18.078  0.00  0.00    +0.000 A 
ATOM     11  C   UNL     1      -3.031  10.501  17.394  0.00  0.00    +0.000 A 
ATOM     12  C   UNL     1      -1.819   9.804  17.395  0.00  0.00    +0.000 A 
ATOM     13  C   UNL     1      -0.781  10.271  18.186  0.00  0.00    +0.000 A 
ATOM     14  C   UNL     1       0.632   9.754  18.204  0.00  0.00    +0.000 C 
ENDBRANCH   2   5
BRANCH   1  18
ATOM     15  C   UNL     1       3.683   3.756  17.773  0.00  0.00    +0.000 A 
ATOM     16  C   UNL     1       4.574   4.838  17.821  0.00  0.00    +0.000 A 
ATOM     17  C   UNL     1       4.127   6.143  18.046  0.00  0.00    +0.000 A 
ATOM     18  C   UNL     1       2.765   6.396  18.198  0.00  0.00    +0.000 A 
ATOM     19  C   UNL     1       1.870   5.335  18.050  0.00  0.00    +0.000 A 
ATOM     20  C   UNL     1       2.307   4.012  17.836  0.00  0.00    +0.000 A 
BRANCH  15  22
ATOM     21  C   UNL     1       4.070   1.669  18.816  0.00  0.00    +0.000 C 
ATOM     22  O   UNL     1       4.141   2.472  17.636  0.00  0.00    +0.000 OA
ENDBRANCH  15  22
BRANCH  20  23
ATOM     23  O   UNL     1       1.270   3.119  17.746  0.00  0.00    +0.000 OA
ATOM     24  C   UNL     1       0.648   2.660  18.939  0.00  0.00    +0.000 C 
ENDBRANCH  20  23
ENDBRANCH   1  18
TORSDOF 4
ENDMDL
MODEL 2
REMARK VINA RESULT:      -7.3      0.921      2.004
REMARK  Name = 
REMARK  6 active torsions:
REMARK  status: ('A' for Active; 'I' for Inactive)
REMARK    1  A    between atoms: C_1  and  O_2
REMARK    2  A    between atoms: O_2  and  C_3
REMARK    3  A    between atoms: C_6  and  N_7
REMARK    4  A    between atoms: C_8  and  C_10
REMARK    5  A    between atoms: C_21  and  O_22
REMARK    6  A    between atoms: O_22  and  C_23
REMARK                            x       y       z     vdW  Elec       q    Type
REMARK                         _______ _______ _______ _____ _____    ______ ____
ROOT
ATOM      1  N   UNL     1       2.176   7.468  18.875  0.00  0.00    +0.000 N 
ATOM      2  C   UNL     1       1.657   7.977  20.050  0.00  0.00    +0.000 C 
ATOM      3  O   UNL     1       1.578   7.422  21.131  0.00  0.00    +0.000 OA
ATOM      4  H   UNL     1       2.220   8.102  18.084  0.00  0.00    +0.000 HD
ENDROOT
BRANCH   2   5
ATOM      5  C   UNL     1       1.091   9.388  19.871  0.00  0.00    +0.000 C 
ATOM      6  C   UNL     1      -0.144   9.713  20.707  0.00  0.00    +0.000 C 
ATOM      7  O   UNL     1      -0.437  11.129  20.468  0.00  0.00    +0.000 OA
ATOM      8  C   UNL     1      -0.922  11.260  19.180  0.00  0.00    +0.000 A 
ATOM      9  C   UNL     1      -1.907  12.193  18.914  0.00  0.00    +0.000 A 
ATOM     10  C   UNL     1      -2.858  11.861  17.955  0.00  0.00    +0.000 A 
ATOM     11  C   UNL     1      -2.791  10.613  17.323  0.00  0.00    +0.000 A 
ATOM     12  C   UNL     1      -1.636   9.832  17.427  0.00  0.00    +0.000 A 
ATOM     13  C   UNL     1      -0.617  10.255  18.265  0.00  0.00    +0.000 A 
ATOM     14  C   UNL     1       0.751   9.640  18.392  0.00  0.00    +0.000 C 
ENDBRANCH   2   5
BRANCH   1  18
ATOM     15  C   UNL     1       3.693   3.587  18.058  0.00  0.00    +0.000 A 
ATOM     16  C   UNL     1       2.371   3.914  17.723  0.00  0.00    +0.000 A 
ATOM     17  C   UNL     1       1.839   5.178  17.995  0.00  0.00    +0.000 A 
ATOM     18  C   UNL     1       2.618   6.137  18.641  0.00  0.00    +0.000 A 
ATOM     19  C   UNL     1       3.899   5.778  19.064  0.00  0.00    +0.000 A 
ATOM     20  C   UNL     1       4.453   4.512  18.785  0.00  0.00    +0.000 A 
BRANCH  15  22
ATOM     21  C   UNL     1       3.728   1.254  18.442  0.00  0.00    +0.000 C 
ATOM     22  O   UNL     1       4.228   2.375  17.710  0.00  0.00    +0.000 OA
ENDBRANCH  15  22
BRANCH  20  23
ATOM     23  O   UNL     1       5.730   4.374  19.265  0.00  0.00    +0.000 OA
ATOM     24  C   UNL     1       6.636   5.462  19.139  0.00  0.00    +0.000 C 
ENDBRANCH  20  23
ENDBRANCH   1  18
TORSDOF 4
ENDMDL
MODEL 3
REMARK VINA RESULT:      -7.3      6.812      8.690
REMARK  Name = 
REMARK  6 active torsions:
REMARK  status: ('A' for Active; 'I' for Inactive)
REMARK    1  A    between atoms: C_1  and  O_2
REMARK    2  A    between atoms: O_2  and  C_3
REMARK    3  A    between atoms: C_6  and  N_7
REMARK    4  A    between atoms: C_8  and  C_10
REMARK    5  A    between atoms: C_21  and  O_22
REMARK    6  A    between atoms: O_22  and  C_23
REMARK                            x       y       z     vdW  Elec       q    Type
REMARK                         _______ _______ _______ _____ _____    ______ ____
ROOT
ATOM      1  N   UNL     1       8.576   7.930  18.814  0.00  0.00    +0.000 N 
ATOM      2  C   UNL     1       8.452   9.245  18.410  0.00  0.00    +0.000 C 
ATOM      3  O   UNL     1       7.592   9.724  17.692  0.00  0.00    +0.000 OA
ATOM      4  H   UNL     1       9.322   7.724  19.470  0.00  0.00    +0.000 HD
ENDROOT
BRANCH   2   5
ATOM      5  C   UNL     1       9.595  10.122  18.925  0.00  0.00    +0.000 C 
ATOM      6  C   UNL     1       9.308  10.889  20.213  0.00  0.00    +0.000 C 
ATOM      7  O   UNL     1      10.561  11.557  20.577  0.00  0.00    +0.000 OA
ATOM      8  C   UNL     1      10.781  12.584  19.678  0.00  0.00    +0.000 A 
ATOM      9  C   UNL     1      11.363  13.760  20.114  0.00  0.00    +0.000 A 
ATOM     10  C   UNL     1      10.933  14.942  19.521  0.00  0.00    +0.000 A 
ATOM     11  C   UNL     1       9.938  14.896  18.538  0.00  0.00    +0.000 A 
ATOM     12  C   UNL     1       9.586  13.678  17.947  0.00  0.00    +0.000 A 
ATOM     13  C   UNL     1      10.146  12.511  18.440  0.00  0.00    +0.000 A 
ATOM     14  C   UNL     1      10.014  11.134  17.845  0.00  0.00    +0.000 C 
ENDBRANCH   2   5
BRANCH   1  18
ATOM     15  C   UNL     1       6.086   4.786  17.418  0.00  0.00    +0.000 A 
ATOM     16  C   UNL     1       6.509   4.812  18.755  0.00  0.00    +0.000 A 
ATOM     17  C   UNL     1       7.341   5.825  19.239  0.00  0.00    +0.000 A 
ATOM     18  C   UNL     1       7.797   6.823  18.378  0.00  0.00    +0.000 A 
ATOM     19  C   UNL     1       7.459   6.740  17.026  0.00  0.00    +0.000 A 
ATOM     20  C   UNL     1       6.610   5.732  16.527  0.00  0.00    +0.000 A 
BRANCH  15  22
ATOM     21  C   UNL     1       3.862   3.984  17.448  0.00  0.00    +0.000 C 
ATOM     22  O   UNL     1       5.203   3.836  16.977  0.00  0.00    +0.000 OA
ENDBRANCH  15  22
BRANCH  20  23
ATOM     23  O   UNL     1       6.384   5.848  15.180  0.00  0.00    +0.000 OA
ATOM     24  C   UNL     1       6.970   4.899  14.297  0.00  0.00    +0.000 C 
ENDBRANCH  20  23
ENDBRANCH   1  18
TORSDOF 4
ENDMDL
MODEL 4
REMARK VINA RESULT:      -7.2      2.614      8.289
REMARK  Name = 
REMARK  6 active torsions:
REMARK  status: ('A' for Active; 'I' for Inactive)
REMARK    1  A    between atoms: C_1  and  O_2
REMARK    2  A    between atoms: O_2  and  C_3
REMARK    3  A    between atoms: C_6  and  N_7
REMARK    4  A    between atoms: C_8  and  C_10
REMARK    5  A    between atoms: C_21  and  O_22
REMARK    6  A    between atoms: O_22  and  C_23
REMARK                            x       y       z     vdW  Elec       q    Type
REMARK                         _______ _______ _______ _____ _____    ______ ____
ROOT
ATOM      1  N   UNL     1       1.569   8.354  21.141  0.00  0.00    +0.000 N 
ATOM      2  C   UNL     1       1.847   8.065  19.819  0.00  0.00    +0.000 C 
ATOM      3  O   UNL     1       1.491   8.683  18.832  0.00  0.00    +0.000 OA
ATOM      4  H   UNL     1       2.008   7.761  21.838  0.00  0.00    +0.000 HD
ENDROOT
BRANCH   2   5
ATOM      5  C   UNL     1       2.658   6.776  19.664  0.00  0.00    +0.000 C 
ATOM      6  C   UNL     1       2.796   6.252  18.237  0.00  0.00    +0.000 C 
ATOM      7  O   UNL     1       3.694   5.096  18.312  0.00  0.00    +0.000 OA
ATOM      8  C   UNL     1       3.017   4.061  18.931  0.00  0.00    +0.000 A 
ATOM      9  C   UNL     1       3.239   2.760  18.521  0.00  0.00    +0.000 A 
ATOM     10  C   UNL     1       2.155   1.889  18.549  0.00  0.00    +0.000 A 
ATOM     11  C   UNL     1       0.904   2.359  18.967  0.00  0.00    +0.000 A 
ATOM     12  C   UNL     1       0.798   3.590  19.622  0.00  0.00    +0.000 A 
ATOM     13  C   UNL     1       1.926   4.387  19.734  0.00  0.00    +0.000 A 
ATOM     14  C   UNL     1       2.048   5.659  20.529  0.00  0.00    +0.000 C 
ENDBRANCH   2   5
BRANCH   1  18
ATOM     15  C   UNL     1      -0.829  11.523  22.638  0.00  0.00    +0.000 A 
ATOM     16  C   UNL     1      -0.940  10.235  23.182  0.00  0.00    +0.000 A 
ATOM     17  C   UNL     1      -0.176   9.169  22.698  0.00  0.00    +0.000 A 
ATOM     18  C   UNL     1       0.699   9.367  21.631  0.00  0.00    +0.000 A 
ATOM     19  C   UNL     1       0.735  10.623  21.025  0.00  0.00    +0.000 A 
ATOM     20  C   UNL     1      -0.020  11.711  21.509  0.00  0.00    +0.000 A 
BRANCH  15  22
ATOM     21  C   UNL     1      -2.909  12.340  23.409  0.00  0.00    +0.000 C 
ATOM     22  O   UNL     1      -1.520  12.577  23.175  0.00  0.00    +0.000 OA
ENDBRANCH  15  22
BRANCH  20  23
ATOM     23  O   UNL     1       0.181  12.859  20.787  0.00  0.00    +0.000 OA
ATOM     24  C   UNL     1       1.387  13.589  20.970  0.00  0.00    +0.000 C 
ENDBRANCH  20  23
ENDBRANCH   1  18
TORSDOF 4
ENDMDL
MODEL 5
REMARK VINA RESULT:      -7.1      1.609      2.681
REMARK  Name = 
REMARK  6 active torsions:
REMARK  status: ('A' for Active; 'I' for Inactive)
REMARK    1  A    between atoms: C_1  and  O_2
REMARK    2  A    between atoms: O_2  and  C_3
REMARK    3  A    between atoms: C_6  and  N_7
REMARK    4  A    between atoms: C_8  and  C_10
REMARK    5  A    between atoms: C_21  and  O_22
REMARK    6  A    between atoms: O_22  and  C_23
REMARK                            x       y       z     vdW  Elec       q    Type
REMARK                         _______ _______ _______ _____ _____    ______ ____
ROOT
ATOM      1  N   UNL     1       2.258   8.354  18.349  0.00  0.00    +0.000 N 
ATOM      2  C   UNL     1       1.657   8.599  19.568  0.00  0.00    +0.000 C 
ATOM      3  O   UNL     1       1.739   7.934  20.585  0.00  0.00    +0.000 OA
ATOM      4  H   UNL     1       2.129   9.057  17.628  0.00  0.00    +0.000 HD
ENDROOT
BRANCH   2   5
ATOM      5  C   UNL     1       0.764   9.842  19.536  0.00  0.00    +0.000 C 
ATOM      6  C   UNL     1      -0.459   9.797  20.449  0.00  0.00    +0.000 C 
ATOM      7  O   UNL     1      -1.092  11.115  20.345  0.00  0.00    +0.000 OA
ATOM      8  C   UNL     1      -1.674  11.220  19.094  0.00  0.00    +0.000 A 
ATOM      9  C   UNL     1      -2.866  11.905  18.952  0.00  0.00    +0.000 A 
ATOM     10  C   UNL     1      -3.769  11.425  18.010  0.00  0.00    +0.000 A 
ATOM     11  C   UNL     1      -3.448  10.279  17.271  0.00  0.00    +0.000 A 
ATOM     12  C   UNL     1      -2.137   9.794  17.258  0.00  0.00    +0.000 A 
ATOM     13  C   UNL     1      -1.197  10.387  18.085  0.00  0.00    +0.000 A 
ATOM     14  C   UNL     1       0.283  10.112  18.100  0.00  0.00    +0.000 C 
ENDBRANCH   2   5
BRANCH   1  18
ATOM     15  C   UNL     1       4.508   5.008  17.016  0.00  0.00    +0.000 A 
ATOM     16  C   UNL     1       3.258   4.822  17.624  0.00  0.00    +0.000 A 
ATOM     17  C   UNL     1       2.502   5.903  18.087  0.00  0.00    +0.000 A 
ATOM     18  C   UNL     1       3.002   7.200  17.978  0.00  0.00    +0.000 A 
ATOM     19  C   UNL     1       4.289   7.376  17.466  0.00  0.00    +0.000 A 
ATOM     20  C   UNL     1       5.057   6.297  16.983  0.00  0.00    +0.000 A 
BRANCH  15  22
ATOM     21  C   UNL     1       5.452   4.021  15.086  0.00  0.00    +0.000 C 
ATOM     22  O   UNL     1       5.201   3.949  16.490  0.00  0.00    +0.000 OA
ENDBRANCH  15  22
BRANCH  20  23
ATOM     23  O   UNL     1       6.278   6.690  16.500  0.00  0.00    +0.000 OA
ATOM     24  C   UNL     1       7.403   6.677  17.369  0.00  0.00    +0.000 C 
ENDBRANCH  20  23
ENDBRANCH   1  18
TORSDOF 4
ENDMDL
MODEL 6
REMARK VINA RESULT:      -7.1      2.034      8.086
REMARK  Name = 
REMARK  6 active torsions:
REMARK  status: ('A' for Active; 'I' for Inactive)
REMARK    1  A    between atoms: C_1  and  O_2
REMARK    2  A    between atoms: O_2  and  C_3
REMARK    3  A    between atoms: C_6  and  N_7
REMARK    4  A    between atoms: C_8  and  C_10
REMARK    5  A    between atoms: C_21  and  O_22
REMARK    6  A    between atoms: O_22  and  C_23
REMARK                            x       y       z     vdW  Elec       q    Type
REMARK                         _______ _______ _______ _____ _____    ______ ____
ROOT
ATOM      1  N   UNL     1       1.421   8.150  21.063  0.00  0.00    +0.000 N 
ATOM      2  C   UNL     1       1.907   7.986  19.781  0.00  0.00    +0.000 C 
ATOM      3  O   UNL     1       1.731   8.714  18.820  0.00  0.00    +0.000 OA
ATOM      4  H   UNL     1       1.727   7.474  21.756  0.00  0.00    +0.000 HD
ENDROOT
BRANCH   2   5
ATOM      5  C   UNL     1       2.706   6.690  19.624  0.00  0.00    +0.000 C 
ATOM      6  C   UNL     1       2.857   6.179  18.193  0.00  0.00    +0.000 C 
ATOM      7  O   UNL     1       3.741   5.012  18.269  0.00  0.00    +0.000 OA
ATOM      8  C   UNL     1       3.045   3.978  18.868  0.00  0.00    +0.000 A 
ATOM      9  C   UNL     1       3.258   2.679  18.448  0.00  0.00    +0.000 A 
ATOM     10  C   UNL     1       2.165   1.820  18.454  0.00  0.00    +0.000 A 
ATOM     11  C   UNL     1       0.914   2.300  18.860  0.00  0.00    +0.000 A 
ATOM     12  C   UNL     1       0.812   3.526  19.526  0.00  0.00    +0.000 A 
ATOM     13  C   UNL     1       1.947   4.308  19.661  0.00  0.00    +0.000 A 
ATOM     14  C   UNL     1       2.073   5.572  20.470  0.00  0.00    +0.000 C 
ENDBRANCH   2   5
BRANCH   1  18
ATOM     15  C   UNL     1      -1.171  11.279  22.298  0.00  0.00    +0.000 A 
ATOM     16  C   UNL     1      -0.720  10.328  23.225  0.00  0.00    +0.000 A 
ATOM     17  C   UNL     1       0.120   9.277  22.844  0.00  0.00    +0.000 A 
ATOM     18  C   UNL     1       0.503   9.140  21.511  0.00  0.00    +0.000 A 
ATOM     19  C   UNL     1      -0.026  10.028  20.572  0.00  0.00    +0.000 A 
ATOM     20  C   UNL     1      -0.864  11.099  20.943  0.00  0.00    +0.000 A 
BRANCH  15  22
ATOM     21  C   UNL     1      -1.184  13.463  23.202  0.00  0.00    +0.000 C 
ATOM     22  O   UNL     1      -1.925  12.351  22.699  0.00  0.00    +0.000 OA
ENDBRANCH  15  22
BRANCH  20  23
ATOM     23  O   UNL     1      -1.252  11.864  19.873  0.00  0.00    +0.000 OA
ATOM     24  C   UNL     1      -1.641  11.220  18.667  0.00  0.00    +0.000 C 
ENDBRANCH  20  23
ENDBRANCH   1  18
TORSDOF 4
ENDMDL
MODEL 7
REMARK VINA RESULT:      -7.1      1.489      2.274
REMARK  Name = 
REMARK  6 active torsions:
REMARK  status: ('A' for Active; 'I' for Inactive)
REMARK    1  A    between atoms: C_1  and  O_2
REMARK    2  A    between atoms: O_2  and  C_3
REMARK    3  A    between atoms: C_6  and  N_7
REMARK    4  A    between atoms: C_8  and  C_10
REMARK    5  A    between atoms: C_21  and  O_22
REMARK    6  A    between atoms: O_22  and  C_23
REMARK                            x       y       z     vdW  Elec       q    Type
REMARK                         _______ _______ _______ _____ _____    ______ ____
ROOT
ATOM      1  N   UNL     1       1.855   7.721  19.735  0.00  0.00    +0.000 N 
ATOM      2  C   UNL     1       1.489   8.570  20.762  0.00  0.00    +0.000 C 
ATOM      3  O   UNL     1       1.603   8.380  21.959  0.00  0.00    +0.000 OA
ATOM      4  H   UNL     1       1.746   8.076  18.790  0.00  0.00    +0.000 HD
ENDROOT
BRANCH   2   5
ATOM      5  C   UNL     1       0.827   9.851  20.249  0.00  0.00    +0.000 C 
ATOM      6  C   UNL     1      -0.571  10.133  20.792  0.00  0.00    +0.000 C 
ATOM      7  O   UNL     1      -0.955  11.446  20.267  0.00  0.00    +0.000 OA
ATOM      8  C   UNL     1      -1.198  11.316  18.911  0.00  0.00    +0.000 A 
ATOM      9  C   UNL     1      -2.203  12.061  18.324  0.00  0.00    +0.000 A 
ATOM     10  C   UNL     1      -2.916  11.466  17.289  0.00  0.00    +0.000 A 
ATOM     11  C   UNL     1      -2.603  10.157  16.902  0.00  0.00    +0.000 A 
ATOM     12  C   UNL     1      -1.416   9.559  17.335  0.00  0.00    +0.000 A 
ATOM     13  C   UNL     1      -0.623  10.233  18.249  0.00  0.00    +0.000 A 
ATOM     14  C   UNL     1       0.751   9.830  18.712  0.00  0.00    +0.000 C 
ENDBRANCH   2   5
BRANCH   1  18
ATOM     15  C   UNL     1       3.293   3.727  19.847  0.00  0.00    +0.000 A 
ATOM     16  C   UNL     1       2.096   4.066  20.496  0.00  0.00    +0.000 A 
ATOM     17  C   UNL     1       1.607   5.376  20.490  0.00  0.00    +0.000 A 
ATOM     18  C   UNL     1       2.328   6.386  19.855  0.00  0.00    +0.000 A 
ATOM     19  C   UNL     1       3.568   6.068  19.297  0.00  0.00    +0.000 A 
ATOM     20  C   UNL     1       4.067   4.750  19.284  0.00  0.00    +0.000 A 
BRANCH  15  22
ATOM     21  C   UNL     1       3.336   1.712  18.612  0.00  0.00    +0.000 C 
ATOM     22  O   UNL     1       3.718   2.426  19.789  0.00  0.00    +0.000 OA
ENDBRANCH  15  22
BRANCH  20  23
ATOM     23  O   UNL     1       5.287   4.651  18.665  0.00  0.00    +0.000 OA
ATOM     24  C   UNL     1       6.387   5.386  19.184  0.00  0.00    +0.000 C 
ENDBRANCH  20  23
ENDBRANCH   1  18
TORSDOF 4
ENDMDL
MODEL 8
REMARK VINA RESULT:      -7.0      2.173      3.178
REMARK  Name = 
REMARK  6 active torsions:
REMARK  status: ('A' for Active; 'I' for Inactive)
REMARK    1  A    between atoms: C_1  and  O_2
REMARK    2  A    between atoms: O_2  and  C_3
REMARK    3  A    between atoms: C_6  and  N_7
REMARK    4  A    between atoms: C_8  and  C_10
REMARK    5  A    between atoms: C_21  and  O_22
REMARK    6  A    between atoms: O_22  and  C_23
REMARK                            x       y       z     vdW  Elec       q    Type
REMARK                         _______ _______ _______ _____ _____    ______ ____
ROOT
ATOM      1  N   UNL     1       1.479   6.918  20.970  0.00  0.00    +0.000 N 
ATOM      2  C   UNL     1       1.384   8.204  20.474  0.00  0.00    +0.000 C 
ATOM      3  O   UNL     1       1.639   8.587  19.346  0.00  0.00    +0.000 OA
ATOM      4  H   UNL     1       1.160   6.773  21.922  0.00  0.00    +0.000 HD
ENDROOT
BRANCH   2   5
ATOM      5  C   UNL     1       0.950   9.209  21.544  0.00  0.00    +0.000 C 
ATOM      6  C   UNL     1      -0.358   8.882  22.261  0.00  0.00    +0.000 C 
ATOM      7  O   UNL     1      -0.514   9.898  23.306  0.00  0.00    +0.000 OA
ATOM      8  C   UNL     1      -0.816  11.103  22.697  0.00  0.00    +0.000 A 
ATOM      9  C   UNL     1      -1.688  11.980  23.316  0.00  0.00    +0.000 A 
ATOM     10  C   UNL     1      -2.526  12.728  22.497  0.00  0.00    +0.000 A 
ATOM     11  C   UNL     1      -2.467  12.555  21.109  0.00  0.00    +0.000 A 
ATOM     12  C   UNL     1      -1.395  11.869  20.529  0.00  0.00    +0.000 A 
ATOM     13  C   UNL     1      -0.466  11.259  21.358  0.00  0.00    +0.000 A 
ATOM     14  C   UNL     1       0.825  10.614  20.932  0.00  0.00    +0.000 C 
ENDBRANCH   2   5
BRANCH   1  18
ATOM     15  C   UNL     1       3.105   3.664  18.778  0.00  0.00    +0.000 A 
ATOM     16  C   UNL     1       1.911   3.507  19.496  0.00  0.00    +0.000 A 
ATOM     17  C   UNL     1       1.360   4.555  20.239  0.00  0.00    +0.000 A 
ATOM     18  C   UNL     1       2.018   5.782  20.305  0.00  0.00    +0.000 A 
ATOM     19  C   UNL     1       3.257   5.908  19.674  0.00  0.00    +0.000 A 
ATOM     20  C   UNL     1       3.817   4.864  18.910  0.00  0.00    +0.000 A 
BRANCH  15  22
ATOM     21  C   UNL     1       3.646   1.370  18.602  0.00  0.00    +0.000 C 
ATOM     22  O   UNL     1       3.589   2.657  17.986  0.00  0.00    +0.000 OA
ENDBRANCH  15  22
BRANCH  20  23
ATOM     23  O   UNL     1       5.025   5.202  18.355  0.00  0.00    +0.000 OA
ATOM     24  C   UNL     1       6.165   5.313  19.196  0.00  0.00    +0.000 C 
ENDBRANCH  20  23
ENDBRANCH   1  18
TORSDOF 4
ENDMDL
MODEL 9
REMARK VINA RESULT:      -7.0      1.175      1.175
REMARK  Name = 
REMARK  6 active torsions:
REMARK  status: ('A' for Active; 'I' for Inactive)
REMARK    1  A    between atoms: C_1  and  O_2
REMARK    2  A    between atoms: O_2  and  C_3
REMARK    3  A    between atoms: C_6  and  N_7
REMARK    4  A    between atoms: C_8  and  C_10
REMARK    5  A    between atoms: C_21  and  O_22
REMARK    6  A    between atoms: O_22  and  C_23
REMARK                            x       y       z     vdW  Elec       q    Type
REMARK                         _______ _______ _______ _____ _____    ______ ____
ROOT
ATOM      1  N   UNL     1       2.066   7.658  19.223  0.00  0.00    +0.000 N 
ATOM      2  C   UNL     1       1.595   8.310  20.346  0.00  0.00    +0.000 C 
ATOM      3  O   UNL     1       1.634   7.924  21.500  0.00  0.00    +0.000 OA
ATOM      4  H   UNL     1       2.007   8.164  18.345  0.00  0.00    +0.000 HD
ENDROOT
BRANCH   2   5
ATOM      5  C   UNL     1       0.916   9.639  20.004  0.00  0.00    +0.000 C 
ATOM      6  C   UNL     1      -0.427   9.886  20.686  0.00  0.00    +0.000 C 
ATOM      7  O   UNL     1      -0.829  11.245  20.312  0.00  0.00    +0.000 OA
ATOM      8  C   UNL     1      -1.185  11.239  18.975  0.00  0.00    +0.000 A 
ATOM      9  C   UNL     1      -2.222  12.044  18.543  0.00  0.00    +0.000 A 
ATOM     10  C   UNL     1      -3.029  11.551  17.523  0.00  0.00    +0.000 A 
ATOM     11  C   UNL     1      -2.774  10.278  16.998  0.00  0.00    +0.000 A 
ATOM     12  C   UNL     1      -1.565   9.631  17.275  0.00  0.00    +0.000 A 
ATOM     13  C   UNL     1      -0.687  10.213  18.175  0.00  0.00    +0.000 A 
ATOM     14  C   UNL     1       0.713   9.754  18.484  0.00  0.00    +0.000 C 
ENDBRANCH   2   5
BRANCH   1  18
ATOM     15  C   UNL     1       3.585   3.693  19.267  0.00  0.00    +0.000 A 
ATOM     16  C   UNL     1       4.321   4.725  18.667  0.00  0.00    +0.000 A 
ATOM     17  C   UNL     1       3.839   6.036  18.622  0.00  0.00    +0.000 A 
ATOM     18  C   UNL     1       2.586   6.336  19.155  0.00  0.00    +0.000 A 
ATOM     19  C   UNL     1       1.811   5.291  19.661  0.00  0.00    +0.000 A 
ATOM     20  C   UNL     1       2.290   3.966  19.724  0.00  0.00    +0.000 A 
BRANCH  15  22
ATOM     21  C   UNL     1       3.655   1.496  18.396  0.00  0.00    +0.000 C 
ATOM     22  O   UNL     1       4.105   2.430  19.379  0.00  0.00    +0.000 OA
ENDBRANCH  15  22
BRANCH  20  23
ATOM     23  O   UNL     1       1.382   3.101  20.279  0.00  0.00    +0.000 OA
ATOM     24  C   UNL     1       1.525   2.732  21.645  0.00  0.00    +0.000 C 
ENDBRANCH  20  23
ENDBRANCH   1  18
TORSDOF 4
ENDMDL
