MODEL 1
REMARK VINA RESULT:      -7.8      0.000      0.000
REMARK  Name = 
REMARK  11 active torsions:
REMARK  status: ('A' for Active; 'I' for Inactive)
REMARK    1  A    between atoms: C_1  and  C_2
REMARK    2  A    between atoms: C_2  and  C_3
REMARK    3  A    between atoms: C_2  and  N_4
REMARK    4  A    between atoms: N_7  and  C_8
REMARK    5  A    between atoms: N_7  and  C_11
REMARK    6  A    between atoms: C_8  and  C_9
REMARK    7  A    between atoms: C_9  and  O_10
REMARK    8  A    between atoms: C_11  and  C_12
REMARK    9  A    between atoms: C_19  and  O_20
REMARK   10  A    between atoms: O_20  and  C_21
REMARK   11  A    between atoms: C_21  and  C_22
REMARK                            x       y       z     vdW  Elec       q    Type
REMARK                         _______ _______ _______ _____ _____    ______ ____
ROOT
ATOM      1  C   UNL     1       2.121   7.822  19.014  0.00  0.00    +0.000 A 
ATOM      2  C   UNL     1       2.176   7.331  20.258  0.00  0.00    +0.000 A 
ATOM      3  O   UNL     1       1.524   7.822  21.346  0.00  0.00    +0.000 OA
ATOM      4  C   UNL     1       0.781   8.963  21.182  0.00  0.00    +0.000 A 
ATOM      5  C   UNL     1       0.192   9.426  22.360  0.00  0.00    +0.000 A 
ATOM      6  C   UNL     1      -0.615  10.544  22.326  0.00  0.00    +0.000 A 
ATOM      7  C   UNL     1      -0.818  11.203  21.120  0.00  0.00    +0.000 A 
ATOM      8  C   UNL     1      -0.160  10.809  19.931  0.00  0.00    +0.000 A 
ATOM      9  C   UNL     1       0.620   9.636  19.960  0.00  0.00    +0.000 A 
ATOM     10  C   UNL     1       1.321   9.055  18.776  0.00  0.00    +0.000 A 
ATOM     11  O   UNL     1       1.271   9.546  17.657  0.00  0.00    +0.000 OA
ENDROOT
BRANCH   1  12
ATOM     12  C   UNL     1       2.965   7.256  17.919  0.00  0.00    +0.000 C 
BRANCH  12  16
ATOM     13  N   UNL     1       5.482   6.279  17.923  0.00  0.00    +0.000 N 
ATOM     14  C   UNL     1       4.509   5.304  17.924  0.00  0.00    +0.000 C 
ATOM     15  O   UNL     1       4.795   4.111  17.931  0.00  0.00    +0.000 OA
ATOM     16  N   UNL     1       3.196   5.800  17.918  0.00  0.00    +0.000 N 
ATOM     17  H   UNL     1       5.232   7.183  18.279  0.00  0.00    +0.000 HD
BRANCH  13  19
ATOM     18  C   UNL     1       7.634   7.312  17.495  0.00  0.00    +0.000 C 
ATOM     19  C   UNL     1       6.919   6.037  17.946  0.00  0.00    +0.000 C 
ATOM     20  C   UNL     1       7.359   5.666  19.360  0.00  0.00    +0.000 C 
ENDBRANCH  13  19
BRANCH  16  21
ATOM     21  C   UNL     1       2.012   4.912  17.892  0.00  0.00    +0.000 C 
BRANCH  21  22
ATOM     22  C   UNL     1       1.611   4.069  19.110  0.00  0.00    +0.000 C 
BRANCH  22  23
ATOM     23  O   UNL     1       2.372   2.873  19.191  0.00  0.00    +0.000 OA
ATOM     24  H   UNL     1       1.704   2.157  19.092  0.00  0.00    +0.000 HD
ENDBRANCH  22  23
ENDBRANCH  21  22
ENDBRANCH  16  21
ENDBRANCH  12  16
ENDBRANCH   1  12
BRANCH   8  25
ATOM     25  O   UNL     1      -0.255  11.574  18.780  0.00  0.00    +0.000 OA
BRANCH  25  26
ATOM     26  C   UNL     1      -1.606  11.773  18.329  0.00  0.00    +0.000 C 
BRANCH  26  27
ATOM     27  C   UNL     1      -2.430  10.491  18.127  0.00  0.00    +0.000 C 
ATOM     28  C   UNL     1      -3.936  10.839  18.194  0.00  0.00    +0.000 C 
ATOM     29  C   UNL     1      -4.431  11.621  16.970  0.00  0.00    +0.000 C 
ATOM     30  C   UNL     1      -4.050  10.935  15.661  0.00  0.00    +0.000 C 
ATOM     31  C   UNL     1      -2.563  10.592  15.591  0.00  0.00    +0.000 C 
ATOM     32  C   UNL     1      -2.115   9.781  16.806  0.00  0.00    +0.000 C 
ENDBRANCH  26  27
ENDBRANCH  25  26
ENDBRANCH   8  25
TORSDOF 9
ENDMDL
MODEL 2
REMARK VINA RESULT:      -7.5      1.030      1.094
REMARK  Name = 
REMARK  11 active torsions:
REMARK  status: ('A' for Active; 'I' for Inactive)
REMARK    1  A    between atoms: C_1  and  C_2
REMARK    2  A    between atoms: C_2  and  C_3
REMARK    3  A    between atoms: C_2  and  N_4
REMARK    4  A    between atoms: N_7  and  C_8
REMARK    5  A    between atoms: N_7  and  C_11
REMARK    6  A    between atoms: C_8  and  C_9
REMARK    7  A    between atoms: C_9  and  O_10
REMARK    8  A    between atoms: C_11  and  C_12
REMARK    9  A    between atoms: C_19  and  O_20
REMARK   10  A    between atoms: O_20  and  C_21
REMARK   11  A    between atoms: C_21  and  C_22
REMARK                            x       y       z     vdW  Elec       q    Type
REMARK                         _______ _______ _______ _____ _____    ______ ____
ROOT
ATOM      1  C   UNL     1       2.412   7.297  18.929  0.00  0.00    +0.000 A 
ATOM      2  C   UNL     1       2.388   6.875  20.199  0.00  0.00    +0.000 A 
ATOM      3  O   UNL     1       1.706   7.451  21.225  0.00  0.00    +0.000 OA
ATOM      4  C   UNL     1       1.019   8.608  20.963  0.00  0.00    +0.000 A 
ATOM      5  C   UNL     1       0.395   9.158  22.084  0.00  0.00    +0.000 A 
ATOM      6  C   UNL     1      -0.363  10.303  21.949  0.00  0.00    +0.000 A 
ATOM      7  C   UNL     1      -0.483  10.900  20.701  0.00  0.00    +0.000 A 
ATOM      8  C   UNL     1       0.214  10.415  19.569  0.00  0.00    +0.000 A 
ATOM      9  C   UNL     1       0.943   9.216  19.699  0.00  0.00    +0.000 A 
ATOM     10  C   UNL     1       1.676   8.544  18.585  0.00  0.00    +0.000 A 
ATOM     11  O   UNL     1       1.698   8.973  17.439  0.00  0.00    +0.000 OA
ENDROOT
BRANCH   1  12
ATOM     12  C   UNL     1       3.284   6.639  17.909  0.00  0.00    +0.000 C 
BRANCH  12  16
ATOM     13  N   UNL     1       5.305   5.042  17.100  0.00  0.00    +0.000 N 
ATOM     14  C   UNL     1       4.093   4.396  17.197  0.00  0.00    +0.000 C 
ATOM     15  O   UNL     1       3.978   3.202  16.936  0.00  0.00    +0.000 OA
ATOM     16  N   UNL     1       3.033   5.217  17.612  0.00  0.00    +0.000 N 
ATOM     17  H   UNL     1       5.433   5.871  17.651  0.00  0.00    +0.000 HD
BRANCH  13  19
ATOM     18  C   UNL     1       6.959   4.948  15.329  0.00  0.00    +0.000 C 
ATOM     19  C   UNL     1       6.564   4.420  16.710  0.00  0.00    +0.000 C 
ATOM     20  C   UNL     1       7.649   4.763  17.728  0.00  0.00    +0.000 C 
ENDBRANCH  13  19
BRANCH  16  21
ATOM     21  C   UNL     1       1.647   4.714  17.752  0.00  0.00    +0.000 C 
BRANCH  21  22
ATOM     22  C   UNL     1       1.269   3.682  18.821  0.00  0.00    +0.000 C 
BRANCH  22  23
ATOM     23  O   UNL     1       1.522   2.357  18.381  0.00  0.00    +0.000 OA
ATOM     24  H   UNL     1       2.335   2.093  18.870  0.00  0.00    +0.000 HD
ENDBRANCH  22  23
ENDBRANCH  21  22
ENDBRANCH  16  21
ENDBRANCH  12  16
ENDBRANCH   1  12
BRANCH   8  25
ATOM     25  O   UNL     1       0.204  11.117  18.375  0.00  0.00    +0.000 OA
BRANCH  25  26
ATOM     26  C   UNL     1      -1.116  11.394  17.877  0.00  0.00    +0.000 C 
BRANCH  26  27
ATOM     27  C   UNL     1      -1.993  10.159  17.613  0.00  0.00    +0.000 C 
ATOM     28  C   UNL     1      -3.350  10.335  18.336  0.00  0.00    +0.000 C 
ATOM     29  C   UNL     1      -4.249  11.395  17.685  0.00  0.00    +0.000 C 
ATOM     30  C   UNL     1      -4.415  11.162  16.187  0.00  0.00    +0.000 C 
ATOM     31  C   UNL     1      -3.077  10.989  15.470  0.00  0.00    +0.000 C 
ATOM     32  C   UNL     1      -2.225   9.900  16.121  0.00  0.00    +0.000 C 
ENDBRANCH  26  27
ENDBRANCH  25  26
ENDBRANCH   8  25
TORSDOF 9
ENDMDL
MODEL 3
REMARK VINA RESULT:      -7.4      2.897      5.911
REMARK  Name = 
REMARK  11 active torsions:
REMARK  status: ('A' for Active; 'I' for Inactive)
REMARK    1  A    between atoms: C_1  and  C_2
REMARK    2  A    between atoms: C_2  and  C_3
REMARK    3  A    between atoms: C_2  and  N_4
REMARK    4  A    between atoms: N_7  and  C_8
REMARK    5  A    between atoms: N_7  and  C_11
REMARK    6  A    between atoms: C_8  and  C_9
REMARK    7  A    between atoms: C_9  and  O_10
REMARK    8  A    between atoms: C_11  and  C_12
REMARK    9  A    between atoms: C_19  and  O_20
REMARK   10  A    between atoms: O_20  and  C_21
REMARK   11  A    between atoms: C_21  and  C_22
REMARK                            x       y       z     vdW  Elec       q    Type
REMARK                         _______ _______ _______ _____ _____    ______ ____
ROOT
ATOM      1  C   UNL     1       4.216   4.836  17.133  0.00  0.00    +0.000 A 
ATOM      2  C   UNL     1       4.649   3.616  17.474  0.00  0.00    +0.000 A 
ATOM      3  O   UNL     1       4.192   2.862  18.510  0.00  0.00    +0.000 OA
ATOM      4  C   UNL     1       3.238   3.412  19.326  0.00  0.00    +0.000 A 
ATOM      5  C   UNL     1       2.869   2.591  20.393  0.00  0.00    +0.000 A 
ATOM      6  C   UNL     1       1.888   3.009  21.269  0.00  0.00    +0.000 A 
ATOM      7  C   UNL     1       1.292   4.250  21.083  0.00  0.00    +0.000 A 
ATOM      8  C   UNL     1       1.713   5.139  20.066  0.00  0.00    +0.000 A 
ATOM      9  C   UNL     1       2.677   4.686  19.143  0.00  0.00    +0.000 A 
ATOM     10  C   UNL     1       3.174   5.479  17.979  0.00  0.00    +0.000 A 
ATOM     11  O   UNL     1       2.775   6.603  17.711  0.00  0.00    +0.000 OA
ENDROOT
BRANCH   1  12
ATOM     12  C   UNL     1       4.868   5.610  16.034  0.00  0.00    +0.000 C 
BRANCH  12  16
ATOM     13  N   UNL     1       6.003   4.309  13.958  0.00  0.00    +0.000 N 
ATOM     14  C   UNL     1       6.914   4.856  14.834  0.00  0.00    +0.000 C 
ATOM     15  O   UNL     1       8.123   4.747  14.654  0.00  0.00    +0.000 OA
ATOM     16  N   UNL     1       6.336   5.531  15.920  0.00  0.00    +0.000 N 
ATOM     17  H   UNL     1       5.085   4.715  13.930  0.00  0.00    +0.000 HD
BRANCH  13  19
ATOM     18  C   UNL     1       5.035   3.226  12.016  0.00  0.00    +0.000 C 
ATOM     19  C   UNL     1       6.335   3.574  12.744  0.00  0.00    +0.000 C 
ATOM     20  C   UNL     1       7.221   4.433  11.845  0.00  0.00    +0.000 C 
ENDBRANCH  13  19
BRANCH  16  21
ATOM     21  C   UNL     1       7.148   6.165  16.984  0.00  0.00    +0.000 C 
BRANCH  21  22
ATOM     22  C   UNL     1       7.722   5.351  18.151  0.00  0.00    +0.000 C 
BRANCH  22  23
ATOM     23  O   UNL     1       8.200   4.086  17.720  0.00  0.00    +0.000 OA
ATOM     24  H   UNL     1       8.355   4.205  16.755  0.00  0.00    +0.000 HD
ENDBRANCH  22  23
ENDBRANCH  21  22
ENDBRANCH  16  21
ENDBRANCH  12  16
ENDBRANCH   1  12
BRANCH   8  25
ATOM     25  O   UNL     1       1.214   6.430  20.000  0.00  0.00    +0.000 OA
BRANCH  25  26
ATOM     26  C   UNL     1       1.148   7.090  21.275  0.00  0.00    +0.000 C 
BRANCH  26  27
ATOM     27  C   UNL     1       1.694   8.527  21.302  0.00  0.00    +0.000 C 
ATOM     28  C   UNL     1       0.998   9.357  20.198  0.00  0.00    +0.000 C 
ATOM     29  C   UNL     1      -0.472   9.667  20.510  0.00  0.00    +0.000 C 
ATOM     30  C   UNL     1      -0.644  10.284  21.896  0.00  0.00    +0.000 C 
ATOM     31  C   UNL     1       0.041   9.466  22.989  0.00  0.00    +0.000 C 
ATOM     32  C   UNL     1       1.512   9.209  22.662  0.00  0.00    +0.000 C 
ENDBRANCH  26  27
ENDBRANCH  25  26
ENDBRANCH   8  25
TORSDOF 9
ENDMDL
MODEL 4
REMARK VINA RESULT:      -7.4      2.650      7.946
REMARK  Name = 
REMARK  11 active torsions:
REMARK  status: ('A' for Active; 'I' for Inactive)
REMARK    1  A    between atoms: C_1  and  C_2
REMARK    2  A    between atoms: C_2  and  C_3
REMARK    3  A    between atoms: C_2  and  N_4
REMARK    4  A    between atoms: N_7  and  C_8
REMARK    5  A    between atoms: N_7  and  C_11
REMARK    6  A    between atoms: C_8  and  C_9
REMARK    7  A    between atoms: C_9  and  O_10
REMARK    8  A    between atoms: C_11  and  C_12
REMARK    9  A    between atoms: C_19  and  O_20
REMARK   10  A    between atoms: O_20  and  C_21
REMARK   11  A    between atoms: C_21  and  C_22
REMARK                            x       y       z     vdW  Elec       q    Type
REMARK                         _______ _______ _______ _____ _____    ______ ____
ROOT
ATOM      1  C   UNL     1       1.703   8.915  19.060  0.00  0.00    +0.000 A 
ATOM      2  C   UNL     1       1.248   8.674  20.295  0.00  0.00    +0.000 A 
ATOM      3  O   UNL     1       1.348   7.499  20.975  0.00  0.00    +0.000 OA
ATOM      4  C   UNL     1       1.916   6.434  20.325  0.00  0.00    +0.000 A 
ATOM      5  C   UNL     1       1.928   5.258  21.076  0.00  0.00    +0.000 A 
ATOM      6  C   UNL     1       2.508   4.120  20.553  0.00  0.00    +0.000 A 
ATOM      7  C   UNL     1       3.059   4.159  19.278  0.00  0.00    +0.000 A 
ATOM      8  C   UNL     1       2.978   5.311  18.462  0.00  0.00    +0.000 A 
ATOM      9  C   UNL     1       2.433   6.486  19.019  0.00  0.00    +0.000 A 
ATOM     10  C   UNL     1       2.338   7.796  18.310  0.00  0.00    +0.000 A 
ATOM     11  O   UNL     1       2.741   7.975  17.169  0.00  0.00    +0.000 OA
ENDROOT
BRANCH   1  12
ATOM     12  C   UNL     1       1.442  10.218  18.378  0.00  0.00    +0.000 C 
BRANCH  12  16
ATOM     13  N   UNL     1       1.468  12.683  19.480  0.00  0.00    +0.000 N 
ATOM     14  C   UNL     1       0.202  12.190  19.253  0.00  0.00    +0.000 C 
ATOM     15  O   UNL     1      -0.801  12.840  19.532  0.00  0.00    +0.000 OA
ATOM     16  N   UNL     1       0.175  10.907  18.684  0.00  0.00    +0.000 N 
ATOM     17  H   UNL     1       2.216  12.310  18.926  0.00  0.00    +0.000 HD
BRANCH  13  19
ATOM     18  C   UNL     1       3.077  13.883  20.840  0.00  0.00    +0.000 C 
ATOM     19  C   UNL     1       1.775  13.991  20.043  0.00  0.00    +0.000 C 
ATOM     20  C   UNL     1       1.936  15.013  18.921  0.00  0.00    +0.000 C 
ENDBRANCH  13  19
BRANCH  16  21
ATOM     21  C   UNL     1      -1.089  10.196  18.388  0.00  0.00    +0.000 C 
BRANCH  21  22
ATOM     22  C   UNL     1      -1.822  10.378  17.053  0.00  0.00    +0.000 C 
BRANCH  22  23
ATOM     23  O   UNL     1      -1.977  11.750  16.725  0.00  0.00    +0.000 OA
ATOM     24  H   UNL     1      -1.207  11.946  16.144  0.00  0.00    +0.000 HD
ENDBRANCH  22  23
ENDBRANCH  21  22
ENDBRANCH  16  21
ENDBRANCH  12  16
ENDBRANCH   1  12
BRANCH   8  25
ATOM     25  O   UNL     1       3.393   5.277  17.141  0.00  0.00    +0.000 OA
BRANCH  25  26
ATOM     26  C   UNL     1       4.482   4.369  16.901  0.00  0.00    +0.000 C 
BRANCH  26  27
ATOM     27  C   UNL     1       5.569   4.881  15.942  0.00  0.00    +0.000 C 
ATOM     28  C   UNL     1       5.578   6.428  15.964  0.00  0.00    +0.000 C 
ATOM     29  C   UNL     1       6.135   7.011  17.269  0.00  0.00    +0.000 C 
ATOM     30  C   UNL     1       7.494   6.417  17.627  0.00  0.00    +0.000 C 
ATOM     31  C   UNL     1       7.488   4.889  17.608  0.00  0.00    +0.000 C 
ATOM     32  C   UNL     1       6.964   4.345  16.280  0.00  0.00    +0.000 C 
ENDBRANCH  26  27
ENDBRANCH  25  26
ENDBRANCH   8  25
TORSDOF 9
ENDMDL
MODEL 5
REMARK VINA RESULT:      -7.2      2.258      8.107
REMARK  Name = 
REMARK  11 active torsions:
REMARK  status: ('A' for Active; 'I' for Inactive)
REMARK    1  A    between atoms: C_1  and  C_2
REMARK    2  A    between atoms: C_2  and  C_3
REMARK    3  A    between atoms: C_2  and  N_4
REMARK    4  A    between atoms: N_7  and  C_8
REMARK    5  A    between atoms: N_7  and  C_11
REMARK    6  A    between atoms: C_8  and  C_9
REMARK    7  A    between atoms: C_9  and  O_10
REMARK    8  A    between atoms: C_11  and  C_12
REMARK    9  A    between atoms: C_19  and  O_20
REMARK   10  A    between atoms: O_20  and  C_21
REMARK   11  A    between atoms: C_21  and  C_22
REMARK                            x       y       z     vdW  Elec       q    Type
REMARK                         _______ _______ _______ _____ _____    ______ ____
ROOT
ATOM      1  C   UNL     1       1.505   8.603  19.495  0.00  0.00    +0.000 A 
ATOM      2  C   UNL     1       1.090   8.188  20.698  0.00  0.00    +0.000 A 
ATOM      3  O   UNL     1       1.301   6.958  21.240  0.00  0.00    +0.000 OA
ATOM      4  C   UNL     1       1.948   6.026  20.472  0.00  0.00    +0.000 A 
ATOM      5  C   UNL     1       2.073   4.778  21.086  0.00  0.00    +0.000 A 
ATOM      6  C   UNL     1       2.739   3.760  20.435  0.00  0.00    +0.000 A 
ATOM      7  C   UNL     1       3.266   3.988  19.170  0.00  0.00    +0.000 A 
ATOM      8  C   UNL     1       3.073   5.213  18.488  0.00  0.00    +0.000 A 
ATOM      9  C   UNL     1       2.439   6.266  19.177  0.00  0.00    +0.000 A 
ATOM     10  C   UNL     1       2.221   7.635  18.620  0.00  0.00    +0.000 A 
ATOM     11  O   UNL     1       2.590   7.973  17.504  0.00  0.00    +0.000 OA
ENDROOT
BRANCH   1  12
ATOM     12  C   UNL     1       1.122   9.947  18.964  0.00  0.00    +0.000 C 
BRANCH  12  16
ATOM     13  N   UNL     1      -1.358  10.388  17.992  0.00  0.00    +0.000 N 
ATOM     14  C   UNL     1      -1.138  10.956  19.228  0.00  0.00    +0.000 C 
ATOM     15  O   UNL     1      -2.011  11.593  19.808  0.00  0.00    +0.000 OA
ATOM     16  N   UNL     1       0.150  10.736  19.741  0.00  0.00    +0.000 N 
ATOM     17  H   UNL     1      -0.787   9.605  17.734  0.00  0.00    +0.000 HD
BRANCH  13  19
ATOM     18  C   UNL     1      -2.309  10.173  15.772  0.00  0.00    +0.000 C 
ATOM     19  C   UNL     1      -2.609  10.450  17.246  0.00  0.00    +0.000 C 
ATOM     20  C   UNL     1      -3.584   9.406  17.784  0.00  0.00    +0.000 C 
ENDBRANCH  13  19
BRANCH  16  21
ATOM     21  C   UNL     1       0.589  11.287  21.044  0.00  0.00    +0.000 C 
BRANCH  21  22
ATOM     22  C   UNL     1      -0.288  11.185  22.298  0.00  0.00    +0.000 C 
BRANCH  22  23
ATOM     23  O   UNL     1       0.245  10.261  23.235  0.00  0.00    +0.000 OA
ATOM     24  H   UNL     1      -0.089  10.581  24.104  0.00  0.00    +0.000 HD
ENDBRANCH  22  23
ENDBRANCH  21  22
ENDBRANCH  16  21
ENDBRANCH  12  16
ENDBRANCH   1  12
BRANCH   8  25
ATOM     25  O   UNL     1       3.470   5.362  17.170  0.00  0.00    +0.000 OA
BRANCH  25  26
ATOM     26  C   UNL     1       4.463   4.409  16.753  0.00  0.00    +0.000 C 
BRANCH  26  27
ATOM     27  C   UNL     1       5.579   4.969  15.857  0.00  0.00    +0.000 C 
ATOM     28  C   UNL     1       5.575   6.513  15.944  0.00  0.00    +0.000 C 
ATOM     29  C   UNL     1       6.079   7.045  17.293  0.00  0.00    +0.000 C 
ATOM     30  C   UNL     1       7.429   6.445  17.675  0.00  0.00    +0.000 C 
ATOM     31  C   UNL     1       7.436   4.920  17.591  0.00  0.00    +0.000 C 
ATOM     32  C   UNL     1       6.966   4.428  16.223  0.00  0.00    +0.000 C 
ENDBRANCH  26  27
ENDBRANCH  25  26
ENDBRANCH   8  25
TORSDOF 9
ENDMDL
MODEL 6
REMARK VINA RESULT:      -7.2      3.025      8.555
REMARK  Name = 
REMARK  11 active torsions:
REMARK  status: ('A' for Active; 'I' for Inactive)
REMARK    1  A    between atoms: C_1  and  C_2
REMARK    2  A    between atoms: C_2  and  C_3
REMARK    3  A    between atoms: C_2  and  N_4
REMARK    4  A    between atoms: N_7  and  C_8
REMARK    5  A    between atoms: N_7  and  C_11
REMARK    6  A    between atoms: C_8  and  C_9
REMARK    7  A    between atoms: C_9  and  O_10
REMARK    8  A    between atoms: C_11  and  C_12
REMARK    9  A    between atoms: C_19  and  O_20
REMARK   10  A    between atoms: O_20  and  C_21
REMARK   11  A    between atoms: C_21  and  C_22
REMARK                            x       y       z     vdW  Elec       q    Type
REMARK                         _______ _______ _______ _____ _____    ______ ____
ROOT
ATOM      1  C   UNL     1       0.705   9.789  19.455  0.00  0.00    +0.000 A 
ATOM      2  C   UNL     1       0.217   9.213  20.561  0.00  0.00    +0.000 A 
ATOM      3  O   UNL     1       0.598   8.013  21.077  0.00  0.00    +0.000 OA
ATOM      4  C   UNL     1       1.528   7.286  20.380  0.00  0.00    +0.000 A 
ATOM      5  C   UNL     1       1.818   6.047  20.953  0.00  0.00    +0.000 A 
ATOM      6  C   UNL     1       2.768   5.231  20.372  0.00  0.00    +0.000 A 
ATOM      7  C   UNL     1       3.411   5.651  19.214  0.00  0.00    +0.000 A 
ATOM      8  C   UNL     1       3.069   6.860  18.563  0.00  0.00    +0.000 A 
ATOM      9  C   UNL     1       2.138   7.713  19.189  0.00  0.00    +0.000 A 
ATOM     10  C   UNL     1       1.725   9.048  18.663  0.00  0.00    +0.000 A 
ATOM     11  O   UNL     1       2.172   9.534  17.633  0.00  0.00    +0.000 OA
ENDROOT
BRANCH   1  12
ATOM     12  C   UNL     1       0.133  11.065  18.929  0.00  0.00    +0.000 C 
BRANCH  12  16
ATOM     13  N   UNL     1      -1.735  12.512  20.236  0.00  0.00    +0.000 N 
ATOM     14  C   UNL     1      -0.472  13.057  20.293  0.00  0.00    +0.000 C 
ATOM     15  O   UNL     1      -0.249  14.102  20.896  0.00  0.00    +0.000 OA
ATOM     16  N   UNL     1       0.507  12.315  19.614  0.00  0.00    +0.000 N 
ATOM     17  H   UNL     1      -1.807  11.525  20.070  0.00  0.00    +0.000 HD
BRANCH  13  19
ATOM     18  C   UNL     1      -4.148  12.660  20.048  0.00  0.00    +0.000 C 
ATOM     19  C   UNL     1      -2.924  13.069  20.869  0.00  0.00    +0.000 C 
ATOM     20  C   UNL     1      -3.051  12.537  22.293  0.00  0.00    +0.000 C 
ENDBRANCH  13  19
BRANCH  16  21
ATOM     21  C   UNL     1       1.921  12.749  19.538  0.00  0.00    +0.000 C 
BRANCH  21  22
ATOM     22  C   UNL     1       2.506  13.368  18.263  0.00  0.00    +0.000 C 
BRANCH  22  23
ATOM     23  O   UNL     1       2.638  12.406  17.227  0.00  0.00    +0.000 OA
ATOM     24  H   UNL     1       3.390  12.738  16.686  0.00  0.00    +0.000 HD
ENDBRANCH  22  23
ENDBRANCH  21  22
ENDBRANCH  16  21
ENDBRANCH  12  16
ENDBRANCH   1  12
BRANCH   8  25
ATOM     25  O   UNL     1       3.612   7.180  17.329  0.00  0.00    +0.000 OA
BRANCH  25  26
ATOM     26  C   UNL     1       4.362   6.109  16.732  0.00  0.00    +0.000 C 
BRANCH  26  27
ATOM     27  C   UNL     1       5.762   6.489  16.222  0.00  0.00    +0.000 C 
ATOM     28  C   UNL     1       6.627   6.961  17.415  0.00  0.00    +0.000 C 
ATOM     29  C   UNL     1       7.032   5.819  18.357  0.00  0.00    +0.000 C 
ATOM     30  C   UNL     1       7.667   4.654  17.604  0.00  0.00    +0.000 C 
ATOM     31  C   UNL     1       6.814   4.185  16.426  0.00  0.00    +0.000 C 
ATOM     32  C   UNL     1       6.463   5.340  15.490  0.00  0.00    +0.000 C 
ENDBRANCH  26  27
ENDBRANCH  25  26
ENDBRANCH   8  25
TORSDOF 9
ENDMDL
MODEL 7
REMARK VINA RESULT:      -7.2      2.470      3.757
REMARK  Name = 
REMARK  11 active torsions:
REMARK  status: ('A' for Active; 'I' for Inactive)
REMARK    1  A    between atoms: C_1  and  C_2
REMARK    2  A    between atoms: C_2  and  C_3
REMARK    3  A    between atoms: C_2  and  N_4
REMARK    4  A    between atoms: N_7  and  C_8
REMARK    5  A    between atoms: N_7  and  C_11
REMARK    6  A    between atoms: C_8  and  C_9
REMARK    7  A    between atoms: C_9  and  O_10
REMARK    8  A    between atoms: C_11  and  C_12
REMARK    9  A    between atoms: C_19  and  O_20
REMARK   10  A    between atoms: O_20  and  C_21
REMARK   11  A    between atoms: C_21  and  C_22
REMARK                            x       y       z     vdW  Elec       q    Type
REMARK                         _______ _______ _______ _____ _____    ______ ____
ROOT
ATOM      1  C   UNL     1       2.313   7.294  18.830  0.00  0.00    +0.000 A 
ATOM      2  C   UNL     1       2.118   6.769  20.046  0.00  0.00    +0.000 A 
ATOM      3  O   UNL     1       1.480   7.367  21.088  0.00  0.00    +0.000 OA
ATOM      4  C   UNL     1       1.039   8.653  20.910  0.00  0.00    +0.000 A 
ATOM      5  C   UNL     1       0.446   9.207  22.046  0.00  0.00    +0.000 A 
ATOM      6  C   UNL     1      -0.077  10.483  21.991  0.00  0.00    +0.000 A 
ATOM      7  C   UNL     1       0.008  11.204  20.806  0.00  0.00    +0.000 A 
ATOM      8  C   UNL     1       0.685  10.701  19.670  0.00  0.00    +0.000 A 
ATOM      9  C   UNL     1       1.170   9.379  19.714  0.00  0.00    +0.000 A 
ATOM     10  C   UNL     1       1.845   8.685  18.578  0.00  0.00    +0.000 A 
ATOM     11  O   UNL     1       2.031   9.204  17.486  0.00  0.00    +0.000 OA
ENDROOT
BRANCH   1  12
ATOM     12  C   UNL     1       3.120   6.578  17.797  0.00  0.00    +0.000 C 
BRANCH  12  16
ATOM     13  N   UNL     1       5.437   5.225  18.102  0.00  0.00    +0.000 N 
ATOM     14  C   UNL     1       4.331   4.413  17.993  0.00  0.00    +0.000 C 
ATOM     15  O   UNL     1       4.424   3.190  18.040  0.00  0.00    +0.000 OA
ATOM     16  N   UNL     1       3.121   5.105  17.830  0.00  0.00    +0.000 N 
ATOM     17  H   UNL     1       5.292   6.165  18.422  0.00  0.00    +0.000 HD
BRANCH  13  19
ATOM     18  C   UNL     1       7.451   4.568  16.922  0.00  0.00    +0.000 C 
ATOM     19  C   UNL     1       6.806   4.765  18.296  0.00  0.00    +0.000 C 
ATOM     20  C   UNL     1       7.593   5.800  19.096  0.00  0.00    +0.000 C 
ENDBRANCH  13  19
BRANCH  16  21
ATOM     21  C   UNL     1       1.823   4.408  17.669  0.00  0.00    +0.000 C 
BRANCH  21  22
ATOM     22  C   UNL     1       1.331   3.377  18.692  0.00  0.00    +0.000 C 
BRANCH  22  23
ATOM     23  O   UNL     1       1.654   2.053  18.295  0.00  0.00    +0.000 OA
ATOM     24  H   UNL     1       2.578   1.927  18.611  0.00  0.00    +0.000 HD
ENDBRANCH  22  23
ENDBRANCH  21  22
ENDBRANCH  16  21
ENDBRANCH  12  16
ENDBRANCH   1  12
BRANCH   8  25
ATOM     25  O   UNL     1       0.892  11.499  18.556  0.00  0.00    +0.000 OA
BRANCH  25  26
ATOM     26  C   UNL     1       2.071  12.318  18.644  0.00  0.00    +0.000 C 
BRANCH  26  27
ATOM     27  C   UNL     1       1.815  13.825  18.807  0.00  0.00    +0.000 C 
ATOM     28  C   UNL     1       1.935  14.202  20.303  0.00  0.00    +0.000 C 
ATOM     29  C   UNL     1       3.378  14.159  20.823  0.00  0.00    +0.000 C 
ATOM     30  C   UNL     1       4.328  14.966  19.943  0.00  0.00    +0.000 C 
ATOM     31  C   UNL     1       4.213  14.595  18.465  0.00  0.00    +0.000 C 
ATOM     32  C   UNL     1       2.769  14.686  17.973  0.00  0.00    +0.000 C 
ENDBRANCH  26  27
ENDBRANCH  25  26
ENDBRANCH   8  25
TORSDOF 9
ENDMDL
MODEL 8
REMARK VINA RESULT:      -7.1      2.941      5.270
REMARK  Name = 
REMARK  11 active torsions:
REMARK  status: ('A' for Active; 'I' for Inactive)
REMARK    1  A    between atoms: C_1  and  C_2
REMARK    2  A    between atoms: C_2  and  C_3
REMARK    3  A    between atoms: C_2  and  N_4
REMARK    4  A    between atoms: N_7  and  C_8
REMARK    5  A    between atoms: N_7  and  C_11
REMARK    6  A    between atoms: C_8  and  C_9
REMARK    7  A    between atoms: C_9  and  O_10
REMARK    8  A    between atoms: C_11  and  C_12
REMARK    9  A    between atoms: C_19  and  O_20
REMARK   10  A    between atoms: O_20  and  C_21
REMARK   11  A    between atoms: C_21  and  C_22
REMARK                            x       y       z     vdW  Elec       q    Type
REMARK                         _______ _______ _______ _____ _____    ______ ____
ROOT
ATOM      1  C   UNL     1       4.457   3.773  17.572  0.00  0.00    +0.000 A 
ATOM      2  C   UNL     1       4.260   2.999  18.646  0.00  0.00    +0.000 A 
ATOM      3  O   UNL     1       3.516   3.315  19.740  0.00  0.00    +0.000 OA
ATOM      4  C   UNL     1       2.955   4.565  19.789  0.00  0.00    +0.000 A 
ATOM      5  C   UNL     1       2.256   4.823  20.970  0.00  0.00    +0.000 A 
ATOM      6  C   UNL     1       1.609   6.031  21.130  0.00  0.00    +0.000 A 
ATOM      7  C   UNL     1       1.675   6.980  20.118  0.00  0.00    +0.000 A 
ATOM      8  C   UNL     1       2.452   6.780  18.952  0.00  0.00    +0.000 A 
ATOM      9  C   UNL     1       3.067   5.525  18.769  0.00  0.00    +0.000 A 
ATOM     10  C   UNL     1       3.862   5.138  17.566  0.00  0.00    +0.000 A 
ATOM     11  O   UNL     1       4.044   5.881  16.612  0.00  0.00    +0.000 OA
ENDROOT
BRANCH   1  12
ATOM     12  C   UNL     1       5.381   3.356  16.475  0.00  0.00    +0.000 C 
BRANCH  12  16
ATOM     13  N   UNL     1       5.959   3.885  13.891  0.00  0.00    +0.000 N 
ATOM     14  C   UNL     1       6.778   4.535  14.787  0.00  0.00    +0.000 C 
ATOM     15  O   UNL     1       7.675   5.284  14.411  0.00  0.00    +0.000 OA
ATOM     16  N   UNL     1       6.490   4.265  16.133  0.00  0.00    +0.000 N 
ATOM     17  H   UNL     1       5.053   3.599  14.215  0.00  0.00    +0.000 HD
BRANCH  13  19
ATOM     18  C   UNL     1       7.211   3.165  11.943  0.00  0.00    +0.000 C 
ATOM     19  C   UNL     1       6.032   4.004  12.440  0.00  0.00    +0.000 C 
ATOM     20  C   UNL     1       4.734   3.501  11.813  0.00  0.00    +0.000 C 
ENDBRANCH  13  19
BRANCH  16  21
ATOM     21  C   UNL     1       7.274   4.848  17.246  0.00  0.00    +0.000 C 
BRANCH  21  22
ATOM     22  C   UNL     1       7.373   6.365  17.453  0.00  0.00    +0.000 C 
BRANCH  22  23
ATOM     23  O   UNL     1       6.527   7.070  16.556  0.00  0.00    +0.000 OA
ATOM     24  H   UNL     1       5.664   7.116  17.028  0.00  0.00    +0.000 HD
ENDBRANCH  22  23
ENDBRANCH  21  22
ENDBRANCH  16  21
ENDBRANCH  12  16
ENDBRANCH   1  12
BRANCH   8  25
ATOM     25  O   UNL     1       2.629   7.800  18.033  0.00  0.00    +0.000 OA
BRANCH  25  26
ATOM     26  C   UNL     1       2.508   9.116  18.599  0.00  0.00    +0.000 C 
BRANCH  26  27
ATOM     27  C   UNL     1       1.623  10.095  17.810  0.00  0.00    +0.000 C 
ATOM     28  C   UNL     1       0.137   9.728  18.030  0.00  0.00    +0.000 C 
ATOM     29  C   UNL     1      -0.365  10.058  19.442  0.00  0.00    +0.000 C 
ATOM     30  C   UNL     1      -0.058  11.501  19.835  0.00  0.00    +0.000 C 
ATOM     31  C   UNL     1       1.410  11.865  19.620  0.00  0.00    +0.000 C 
ATOM     32  C   UNL     1       1.863  11.559  18.194  0.00  0.00    +0.000 C 
ENDBRANCH  26  27
ENDBRANCH  25  26
ENDBRANCH   8  25
TORSDOF 9
ENDMDL
MODEL 9
REMARK VINA RESULT:      -7.1      2.524      3.534
REMARK  Name = 
REMARK  11 active torsions:
REMARK  status: ('A' for Active; 'I' for Inactive)
REMARK    1  A    between atoms: C_1  and  C_2
REMARK    2  A    between atoms: C_2  and  C_3
REMARK    3  A    between atoms: C_2  and  N_4
REMARK    4  A    between atoms: N_7  and  C_8
REMARK    5  A    between atoms: N_7  and  C_11
REMARK    6  A    between atoms: C_8  and  C_9
REMARK    7  A    between atoms: C_9  and  O_10
REMARK    8  A    between atoms: C_11  and  C_12
REMARK    9  A    between atoms: C_19  and  O_20
REMARK   10  A    between atoms: O_20  and  C_21
REMARK   11  A    between atoms: C_21  and  C_22
REMARK                            x       y       z     vdW  Elec       q    Type
REMARK                         _______ _______ _______ _____ _____    ______ ____
ROOT
ATOM      1  C   UNL     1       2.413   7.051  18.829  0.00  0.00    +0.000 A 
ATOM      2  C   UNL     1       2.204   6.554  20.054  0.00  0.00    +0.000 A 
ATOM      3  O   UNL     1       1.576   7.187  21.081  0.00  0.00    +0.000 OA
ATOM      4  C   UNL     1       1.163   8.478  20.876  0.00  0.00    +0.000 A 
ATOM      5  C   UNL     1       0.578   9.067  21.999  0.00  0.00    +0.000 A 
ATOM      6  C   UNL     1       0.084  10.353  21.916  0.00  0.00    +0.000 A 
ATOM      7  C   UNL     1       0.188  11.048  20.718  0.00  0.00    +0.000 A 
ATOM      8  C   UNL     1       0.857  10.509  19.594  0.00  0.00    +0.000 A 
ATOM      9  C   UNL     1       1.313   9.177  19.667  0.00  0.00    +0.000 A 
ATOM     10  C   UNL     1       1.977   8.446  18.547  0.00  0.00    +0.000 A 
ATOM     11  O   UNL     1       2.177   8.940  17.446  0.00  0.00    +0.000 OA
ENDROOT
BRANCH   1  12
ATOM     12  C   UNL     1       3.209   6.297  17.813  0.00  0.00    +0.000 C 
BRANCH  12  16
ATOM     13  N   UNL     1       5.897   6.096  17.960  0.00  0.00    +0.000 N 
ATOM     14  C   UNL     1       5.234   4.941  18.314  0.00  0.00    +0.000 C 
ATOM     15  O   UNL     1       5.840   3.933  18.664  0.00  0.00    +0.000 OA
ATOM     16  N   UNL     1       3.836   5.033  18.237  0.00  0.00    +0.000 N 
ATOM     17  H   UNL     1       5.396   6.961  18.041  0.00  0.00    +0.000 HD
BRANCH  13  19
ATOM     18  C   UNL     1       7.658   7.711  17.545  0.00  0.00    +0.000 C 
ATOM     19  C   UNL     1       7.344   6.275  17.970  0.00  0.00    +0.000 C 
ATOM     20  C   UNL     1       7.889   6.016  19.372  0.00  0.00    +0.000 C 
ENDBRANCH  13  19
BRANCH  16  21
ATOM     21  C   UNL     1       2.947   3.891  18.551  0.00  0.00    +0.000 C 
BRANCH  21  22
ATOM     22  C   UNL     1       2.825   2.683  17.613  0.00  0.00    +0.000 C 
BRANCH  22  23
ATOM     23  O   UNL     1       3.789   1.686  17.917  0.00  0.00    +0.000 OA
ATOM     24  H   UNL     1       3.251   0.887  18.121  0.00  0.00    +0.000 HD
ENDBRANCH  22  23
ENDBRANCH  21  22
ENDBRANCH  16  21
ENDBRANCH  12  16
ENDBRANCH   1  12
BRANCH   8  25
ATOM     25  O   UNL     1       1.085  11.279  18.466  0.00  0.00    +0.000 OA
BRANCH  25  26
ATOM     26  C   UNL     1       2.200  12.178  18.596  0.00  0.00    +0.000 C 
BRANCH  26  27
ATOM     27  C   UNL     1       1.936  13.625  18.149  0.00  0.00    +0.000 C 
ATOM     28  C   UNL     1       0.851  14.248  19.059  0.00  0.00    +0.000 C 
ATOM     29  C   UNL     1       1.349  14.538  20.481  0.00  0.00    +0.000 C 
ATOM     30  C   UNL     1       2.642  15.348  20.480  0.00  0.00    +0.000 C 
ATOM     31  C   UNL     1       3.716  14.734  19.583  0.00  0.00    +0.000 C 
ATOM     32  C   UNL     1       3.197  14.495  18.166  0.00  0.00    +0.000 C 
ENDBRANCH  26  27
ENDBRANCH  25  26
ENDBRANCH   8  25
TORSDOF 9
ENDMDL
