MODEL 1
REMARK VINA RESULT:      -8.1      0.000      0.000
REMARK  Name = 
REMARK  6 active torsions:
REMARK  status: ('A' for Active; 'I' for Inactive)
REMARK    1  A    between atoms: C_1  and  O_2
REMARK    2  A    between atoms: O_2  and  C_3
REMARK    3  A    between atoms: C_6  and  C_7
REMARK    4  A    between atoms: C_7  and  C_8
REMARK    5  A    between atoms: C_8  and  N_9
REMARK    6  A    between atoms: C_13  and  C_15
REMARK                            x       y       z     vdW  Elec       q    Type
REMARK                         _______ _______ _______ _____ _____    ______ ____
ROOT
ATOM      1  N   UNL     1       7.245   6.177  17.615  0.00  0.00    +0.000 N 
ATOM      2  C   UNL     1       7.970   6.290  18.764  0.00  0.00    +0.000 C 
ATOM      3  O   UNL     1       8.195   5.354  19.528  0.00  0.00    +0.000 OA
ATOM      4  N   UNL     1       8.470   7.537  19.051  0.00  0.00    +0.000 N 
ATOM      5  C   UNL     1       8.377   8.682  18.281  0.00  0.00    +0.000 C 
ATOM      6  O   UNL     1       7.773   8.741  17.214  0.00  0.00    +0.000 OA
ATOM      7  H   UNL     1       7.145   7.016  17.045  0.00  0.00    +0.000 HD
ATOM      8  H   UNL     1       9.034   7.531  19.885  0.00  0.00    +0.000 HD
ENDROOT
BRANCH   5   9
ATOM      9  C   UNL     1       9.085   9.893  18.780  0.00  0.00    +0.000 A 
ATOM     10  C   UNL     1       9.681  10.727  17.821  0.00  0.00    +0.000 A 
ATOM     11  C   UNL     1      10.352  11.888  18.207  0.00  0.00    +0.000 A 
ATOM     12  C   UNL     1      10.422  12.226  19.556  0.00  0.00    +0.000 A 
ATOM     13 CL   UNL     1      11.245  13.660  20.032  0.00  0.00    +0.000 Cl
ATOM     14  C   UNL     1       9.824  11.414  20.519  0.00  0.00    +0.000 A 
ATOM     15  C   UNL     1       9.151  10.244  20.135  0.00  0.00    +0.000 A 
ENDBRANCH   5   9
BRANCH   1  16
ATOM     16  C   UNL     1       6.645   4.927  17.202  0.00  0.00    +0.000 C 
BRANCH  16  17
ATOM     17  C   UNL     1       5.185   5.075  16.768  0.00  0.00    +0.000 C 
BRANCH  17  21
ATOM     18  C   UNL     1       2.549   2.859  19.388  0.00  0.00    +0.000 A 
ATOM     19  C   UNL     1       3.852   3.165  19.785  0.00  0.00    +0.000 A 
ATOM     20  C   UNL     1       4.698   3.898  18.949  0.00  0.00    +0.000 A 
ATOM     21  C   UNL     1       4.255   4.326  17.692  0.00  0.00    +0.000 A 
ATOM     22  C   UNL     1       2.953   4.000  17.289  0.00  0.00    +0.000 A 
ATOM     23  C   UNL     1       2.104   3.272  18.133  0.00  0.00    +0.000 A 
BRANCH  18  25
ATOM     24  C   UNL     1       1.470   2.788  21.492  0.00  0.00    +0.000 C 
ATOM     25  O   UNL     1       1.825   2.122  20.285  0.00  0.00    +0.000 OA
ENDBRANCH  18  25
ENDBRANCH  17  21
ENDBRANCH  16  17
ENDBRANCH   1  16
TORSDOF 5
ENDMDL
MODEL 2
REMARK VINA RESULT:      -8.0      0.341      1.064
REMARK  Name = 
REMARK  6 active torsions:
REMARK  status: ('A' for Active; 'I' for Inactive)
REMARK    1  A    between atoms: C_1  and  O_2
REMARK    2  A    between atoms: O_2  and  C_3
REMARK    3  A    between atoms: C_6  and  C_7
REMARK    4  A    between atoms: C_7  and  C_8
REMARK    5  A    between atoms: C_8  and  N_9
REMARK    6  A    between atoms: C_13  and  C_15
REMARK                            x       y       z     vdW  Elec       q    Type
REMARK                         _______ _______ _______ _____ _____    ______ ____
ROOT
ATOM      1  N   UNL     1       7.082   6.343  17.572  0.00  0.00    +0.000 N 
ATOM      2  C   UNL     1       7.911   6.434  18.651  0.00  0.00    +0.000 C 
ATOM      3  O   UNL     1       8.197   5.485  19.377  0.00  0.00    +0.000 OA
ATOM      4  N   UNL     1       8.444   7.672  18.908  0.00  0.00    +0.000 N 
ATOM      5  C   UNL     1       8.290   8.830  18.166  0.00  0.00    +0.000 C 
ATOM      6  O   UNL     1       7.592   8.909  17.161  0.00  0.00    +0.000 OA
ATOM      7  H   UNL     1       6.937   7.190  17.026  0.00  0.00    +0.000 HD
ATOM      8  H   UNL     1       9.083   7.650  19.686  0.00  0.00    +0.000 HD
ENDROOT
BRANCH   5   9
ATOM      9  C   UNL     1       9.052  10.028  18.616  0.00  0.00    +0.000 A 
ATOM     10  C   UNL     1       9.163  10.233  20.000  0.00  0.00    +0.000 A 
ATOM     11  C   UNL     1       9.872  11.325  20.503  0.00  0.00    +0.000 A 
ATOM     12  C   UNL     1      10.483  12.213  19.621  0.00  0.00    +0.000 A 
ATOM     13 CL   UNL     1      11.361  13.556  20.239  0.00  0.00    +0.000 Cl
ATOM     14  C   UNL     1      10.392  12.015  18.243  0.00  0.00    +0.000 A 
ATOM     15  C   UNL     1       9.677  10.920  17.735  0.00  0.00    +0.000 A 
ENDBRANCH   5   9
BRANCH   1  16
ATOM     16  C   UNL     1       6.436   5.103  17.199  0.00  0.00    +0.000 C 
BRANCH  16  17
ATOM     17  C   UNL     1       4.961   5.280  16.833  0.00  0.00    +0.000 C 
BRANCH  17  21
ATOM     18  C   UNL     1       2.383   3.019  19.472  0.00  0.00    +0.000 A 
ATOM     19  C   UNL     1       3.767   2.837  19.504  0.00  0.00    +0.000 A 
ATOM     20  C   UNL     1       4.603   3.582  18.667  0.00  0.00    +0.000 A 
ATOM     21  C   UNL     1       4.062   4.513  17.772  0.00  0.00    +0.000 A 
ATOM     22  C   UNL     1       2.671   4.677  17.728  0.00  0.00    +0.000 A 
ATOM     23  C   UNL     1       1.836   3.935  18.575  0.00  0.00    +0.000 A 
BRANCH  18  25
ATOM     24  C   UNL     1       1.370   2.784  21.596  0.00  0.00    +0.000 C 
ATOM     25  O   UNL     1       1.671   2.220  20.325  0.00  0.00    +0.000 OA
ENDBRANCH  18  25
ENDBRANCH  17  21
ENDBRANCH  16  17
ENDBRANCH   1  16
TORSDOF 5
ENDMDL
MODEL 3
REMARK VINA RESULT:      -8.0      1.107      1.214
REMARK  Name = 
REMARK  6 active torsions:
REMARK  status: ('A' for Active; 'I' for Inactive)
REMARK    1  A    between atoms: C_1  and  O_2
REMARK    2  A    between atoms: O_2  and  C_3
REMARK    3  A    between atoms: C_6  and  C_7
REMARK    4  A    between atoms: C_7  and  C_8
REMARK    5  A    between atoms: C_8  and  N_9
REMARK    6  A    between atoms: C_13  and  C_15
REMARK                            x       y       z     vdW  Elec       q    Type
REMARK                         _______ _______ _______ _____ _____    ______ ____
ROOT
ATOM      1  N   UNL     1       7.429   5.898  17.556  0.00  0.00    +0.000 N 
ATOM      2  C   UNL     1       8.034   6.175  18.746  0.00  0.00    +0.000 C 
ATOM      3  O   UNL     1       8.283   5.330  19.602  0.00  0.00    +0.000 OA
ATOM      4  N   UNL     1       8.378   7.486  18.965  0.00  0.00    +0.000 N 
ATOM      5  C   UNL     1       8.239   8.553  18.094  0.00  0.00    +0.000 C 
ATOM      6  O   UNL     1       7.730   8.466  16.982  0.00  0.00    +0.000 OA
ATOM      7  H   UNL     1       7.297   6.674  16.910  0.00  0.00    +0.000 HD
ATOM      8  H   UNL     1       8.863   7.605  19.838  0.00  0.00    +0.000 HD
ENDROOT
BRANCH   5   9
ATOM      9  C   UNL     1       8.776   9.868  18.545  0.00  0.00    +0.000 A 
ATOM     10  C   UNL     1       8.570  10.967  17.696  0.00  0.00    +0.000 A 
ATOM     11  C   UNL     1       9.030  12.235  18.052  0.00  0.00    +0.000 A 
ATOM     12  C   UNL     1       9.689  12.413  19.265  0.00  0.00    +0.000 A 
ATOM     13 CL   UNL     1      10.252  13.977  19.707  0.00  0.00    +0.000 Cl
ATOM     14  C   UNL     1       9.889  11.332  20.125  0.00  0.00    +0.000 A 
ATOM     15  C   UNL     1       9.431  10.055  19.768  0.00  0.00    +0.000 A 
ENDBRANCH   5   9
BRANCH   1  16
ATOM     16  C   UNL     1       6.996   4.562  17.204  0.00  0.00    +0.000 C 
BRANCH  16  17
ATOM     17  C   UNL     1       5.799   4.550  16.252  0.00  0.00    +0.000 C 
BRANCH  17  21
ATOM     18  C   UNL     1       2.129   3.889  18.447  0.00  0.00    +0.000 A 
ATOM     19  C   UNL     1       2.588   5.185  18.206  0.00  0.00    +0.000 A 
ATOM     20  C   UNL     1       3.762   5.401  17.479  0.00  0.00    +0.000 A 
ATOM     21  C   UNL     1       4.505   4.317  16.994  0.00  0.00    +0.000 A 
ATOM     22  C   UNL     1       4.051   3.018  17.256  0.00  0.00    +0.000 A 
ATOM     23  C   UNL     1       2.869   2.805  17.978  0.00  0.00    +0.000 A 
BRANCH  18  25
ATOM     24  C   UNL     1       1.099   4.150  20.561  0.00  0.00    +0.000 C 
ATOM     25  O   UNL     1       0.979   3.807  19.185  0.00  0.00    +0.000 OA
ENDBRANCH  18  25
ENDBRANCH  17  21
ENDBRANCH  16  17
ENDBRANCH   1  16
TORSDOF 5
ENDMDL
MODEL 4
REMARK VINA RESULT:      -8.0      0.775      1.449
REMARK  Name = 
REMARK  6 active torsions:
REMARK  status: ('A' for Active; 'I' for Inactive)
REMARK    1  A    between atoms: C_1  and  O_2
REMARK    2  A    between atoms: O_2  and  C_3
REMARK    3  A    between atoms: C_6  and  C_7
REMARK    4  A    between atoms: C_7  and  C_8
REMARK    5  A    between atoms: C_8  and  N_9
REMARK    6  A    between atoms: C_13  and  C_15
REMARK                            x       y       z     vdW  Elec       q    Type
REMARK                         _______ _______ _______ _____ _____    ______ ____
ROOT
ATOM      1  N   UNL     1       7.211   6.103  17.651  0.00  0.00    +0.000 N 
ATOM      2  C   UNL     1       7.954   6.269  18.783  0.00  0.00    +0.000 C 
ATOM      3  O   UNL     1       8.209   5.364  19.574  0.00  0.00    +0.000 OA
ATOM      4  N   UNL     1       8.436   7.533  19.017  0.00  0.00    +0.000 N 
ATOM      5  C   UNL     1       8.310   8.649  18.209  0.00  0.00    +0.000 C 
ATOM      6  O   UNL     1       7.687   8.660  17.152  0.00  0.00    +0.000 OA
ATOM      7  H   UNL     1       7.087   6.919  17.054  0.00  0.00    +0.000 HD
ATOM      8  H   UNL     1       9.015   7.566  19.840  0.00  0.00    +0.000 HD
ENDROOT
BRANCH   5   9
ATOM      9  C   UNL     1       9.005   9.888  18.654  0.00  0.00    +0.000 A 
ATOM     10  C   UNL     1       9.097  10.109  20.037  0.00  0.00    +0.000 A 
ATOM     11  C   UNL     1       9.745  11.240  20.535  0.00  0.00    +0.000 A 
ATOM     12  C   UNL     1      10.315  12.151  19.651  0.00  0.00    +0.000 A 
ATOM     13 CL   UNL     1      11.119  13.543  20.264  0.00  0.00    +0.000 Cl
ATOM     14  C   UNL     1      10.244  11.939  18.274  0.00  0.00    +0.000 A 
ATOM     15  C   UNL     1       9.590  10.805  17.770  0.00  0.00    +0.000 A 
ENDBRANCH   5   9
BRANCH   1  16
ATOM     16  C   UNL     1       6.626   4.829  17.293  0.00  0.00    +0.000 C 
BRANCH  16  17
ATOM     17  C   UNL     1       5.230   4.960  16.682  0.00  0.00    +0.000 C 
BRANCH  17  21
ATOM     18  C   UNL     1       2.187   4.001  19.606  0.00  0.00    +0.000 A 
ATOM     19  C   UNL     1       2.161   5.221  18.928  0.00  0.00    +0.000 A 
ATOM     20  C   UNL     1       3.130   5.523  17.968  0.00  0.00    +0.000 A 
ATOM     21  C   UNL     1       4.154   4.611  17.682  0.00  0.00    +0.000 A 
ATOM     22  C   UNL     1       4.188   3.397  18.380  0.00  0.00    +0.000 A 
ATOM     23  C   UNL     1       3.209   3.093  19.335  0.00  0.00    +0.000 A 
BRANCH  18  25
ATOM     24  C   UNL     1       1.383   2.757  21.450  0.00  0.00    +0.000 C 
ATOM     25  O   UNL     1       1.195   3.829  20.533  0.00  0.00    +0.000 OA
ENDBRANCH  18  25
ENDBRANCH  17  21
ENDBRANCH  16  17
ENDBRANCH   1  16
TORSDOF 5
ENDMDL
MODEL 5
REMARK VINA RESULT:      -7.8      2.151      2.234
REMARK  Name = 
REMARK  6 active torsions:
REMARK  status: ('A' for Active; 'I' for Inactive)
REMARK    1  A    between atoms: C_1  and  O_2
REMARK    2  A    between atoms: O_2  and  C_3
REMARK    3  A    between atoms: C_6  and  C_7
REMARK    4  A    between atoms: C_7  and  C_8
REMARK    5  A    between atoms: C_8  and  N_9
REMARK    6  A    between atoms: C_13  and  C_15
REMARK                            x       y       z     vdW  Elec       q    Type
REMARK                         _______ _______ _______ _____ _____    ______ ____
ROOT
ATOM      1  N   UNL     1       7.090   6.546  17.507  0.00  0.00    +0.000 N 
ATOM      2  C   UNL     1       7.904   6.555  18.600  0.00  0.00    +0.000 C 
ATOM      3  O   UNL     1       8.154   5.561  19.277  0.00  0.00    +0.000 OA
ATOM      4  N   UNL     1       8.468   7.763  18.931  0.00  0.00    +0.000 N 
ATOM      5  C   UNL     1       8.357   8.963  18.251  0.00  0.00    +0.000 C 
ATOM      6  O   UNL     1       7.676   9.116  17.243  0.00  0.00    +0.000 OA
ATOM      7  H   UNL     1       6.976   7.426  17.005  0.00  0.00    +0.000 HD
ATOM      8  H   UNL     1       9.094   7.681  19.715  0.00  0.00    +0.000 HD
ENDROOT
BRANCH   5   9
ATOM      9  C   UNL     1       9.144  10.113  18.776  0.00  0.00    +0.000 A 
ATOM     10  C   UNL     1       9.749  10.958  17.831  0.00  0.00    +0.000 A 
ATOM     11  C   UNL     1      10.492  12.065  18.241  0.00  0.00    +0.000 A 
ATOM     12  C   UNL     1      10.626  12.340  19.599  0.00  0.00    +0.000 A 
ATOM     13 CL   UNL     1      11.538  13.707  20.105  0.00  0.00    +0.000 Cl
ATOM     14  C   UNL     1      10.020  11.517  20.549  0.00  0.00    +0.000 A 
ATOM     15  C   UNL     1       9.275  10.400  20.140  0.00  0.00    +0.000 A 
ENDBRANCH   5   9
BRANCH   1  16
ATOM     16  C   UNL     1       6.416   5.347  17.058  0.00  0.00    +0.000 C 
BRANCH  16  17
ATOM     17  C   UNL     1       4.993   5.608  16.560  0.00  0.00    +0.000 C 
BRANCH  17  21
ATOM     18  C   UNL     1       2.318   6.774  19.756  0.00  0.00    +0.000 A 
ATOM     19  C   UNL     1       3.001   5.558  19.810  0.00  0.00    +0.000 A 
ATOM     20  C   UNL     1       3.882   5.189  18.789  0.00  0.00    +0.000 A 
ATOM     21  C   UNL     1       4.081   6.030  17.687  0.00  0.00    +0.000 A 
ATOM     22  C   UNL     1       3.377   7.240  17.627  0.00  0.00    +0.000 A 
ATOM     23  C   UNL     1       2.502   7.611  18.656  0.00  0.00    +0.000 A 
BRANCH  18  25
ATOM     24  C   UNL     1       1.235   8.383  21.110  0.00  0.00    +0.000 C 
ATOM     25  O   UNL     1       1.473   7.014  20.805  0.00  0.00    +0.000 OA
ENDBRANCH  18  25
ENDBRANCH  17  21
ENDBRANCH  16  17
ENDBRANCH   1  16
TORSDOF 5
ENDMDL
MODEL 6
REMARK VINA RESULT:      -7.7      1.983      2.198
REMARK  Name = 
REMARK  6 active torsions:
REMARK  status: ('A' for Active; 'I' for Inactive)
REMARK    1  A    between atoms: C_1  and  O_2
REMARK    2  A    between atoms: O_2  and  C_3
REMARK    3  A    between atoms: C_6  and  C_7
REMARK    4  A    between atoms: C_7  and  C_8
REMARK    5  A    between atoms: C_8  and  N_9
REMARK    6  A    between atoms: C_13  and  C_15
REMARK                            x       y       z     vdW  Elec       q    Type
REMARK                         _______ _______ _______ _____ _____    ______ ____
ROOT
ATOM      1  N   UNL     1       7.221   6.029  17.664  0.00  0.00    +0.000 N 
ATOM      2  C   UNL     1       7.968   6.261  18.781  0.00  0.00    +0.000 C 
ATOM      3  O   UNL     1       8.281   5.390  19.589  0.00  0.00    +0.000 OA
ATOM      4  N   UNL     1       8.384   7.554  18.979  0.00  0.00    +0.000 N 
ATOM      5  C   UNL     1       8.187   8.642  18.148  0.00  0.00    +0.000 C 
ATOM      6  O   UNL     1       7.551   8.595  17.100  0.00  0.00    +0.000 OA
ATOM      7  H   UNL     1       7.045   6.823  17.051  0.00  0.00    +0.000 HD
ATOM      8  H   UNL     1       8.971   7.638  19.793  0.00  0.00    +0.000 HD
ENDROOT
BRANCH   5   9
ATOM      9  C   UNL     1       8.821   9.928  18.554  0.00  0.00    +0.000 A 
ATOM     10  C   UNL     1       8.670  11.018  17.683  0.00  0.00    +0.000 A 
ATOM     11  C   UNL     1       9.222  12.261  17.998  0.00  0.00    +0.000 A 
ATOM     12  C   UNL     1       9.919  12.421  19.193  0.00  0.00    +0.000 A 
ATOM     13 CL   UNL     1      10.596  13.953  19.584  0.00  0.00    +0.000 Cl
ATOM     14  C   UNL     1      10.065  11.350  20.074  0.00  0.00    +0.000 A 
ATOM     15  C   UNL     1       9.515  10.098  19.759  0.00  0.00    +0.000 A 
ENDBRANCH   5   9
BRANCH   1  16
ATOM     16  C   UNL     1       6.701   4.717  17.343  0.00  0.00    +0.000 C 
BRANCH  16  17
ATOM     17  C   UNL     1       5.278   4.755  16.783  0.00  0.00    +0.000 C 
BRANCH  17  21
ATOM     18  C   UNL     1       2.521   6.294  19.742  0.00  0.00    +0.000 A 
ATOM     19  C   UNL     1       2.794   7.020  18.581  0.00  0.00    +0.000 A 
ATOM     20  C   UNL     1       3.668   6.515  17.615  0.00  0.00    +0.000 A 
ATOM     21  C   UNL     1       4.295   5.277  17.804  0.00  0.00    +0.000 A 
ATOM     22  C   UNL     1       4.034   4.562  18.980  0.00  0.00    +0.000 A 
ATOM     23  C   UNL     1       3.150   5.067  19.943  0.00  0.00    +0.000 A 
BRANCH  18  25
ATOM     24  C   UNL     1       1.445   8.291  20.411  0.00  0.00    +0.000 C 
ATOM     25  O   UNL     1       1.664   6.901  20.619  0.00  0.00    +0.000 OA
ENDBRANCH  18  25
ENDBRANCH  17  21
ENDBRANCH  16  17
ENDBRANCH   1  16
TORSDOF 5
ENDMDL
MODEL 7
REMARK VINA RESULT:      -7.7      4.948      7.267
REMARK  Name = 
REMARK  6 active torsions:
REMARK  status: ('A' for Active; 'I' for Inactive)
REMARK    1  A    between atoms: C_1  and  O_2
REMARK    2  A    between atoms: O_2  and  C_3
REMARK    3  A    between atoms: C_6  and  C_7
REMARK    4  A    between atoms: C_7  and  C_8
REMARK    5  A    between atoms: C_8  and  N_9
REMARK    6  A    between atoms: C_13  and  C_15
REMARK                            x       y       z     vdW  Elec       q    Type
REMARK                         _______ _______ _______ _____ _____    ______ ____
ROOT
ATOM      1  N   UNL     1       3.052   4.601  19.688  0.00  0.00    +0.000 N 
ATOM      2  C   UNL     1       2.275   4.791  20.792  0.00  0.00    +0.000 C 
ATOM      3  O   UNL     1       2.052   3.922  21.631  0.00  0.00    +0.000 OA
ATOM      4  N   UNL     1       1.733   6.043  20.948  0.00  0.00    +0.000 N 
ATOM      5  C   UNL     1       1.929   7.155  20.149  0.00  0.00    +0.000 C 
ATOM      6  O   UNL     1       2.611   7.152  19.130  0.00  0.00    +0.000 OA
ATOM      7  H   UNL     1       3.189   5.402  19.073  0.00  0.00    +0.000 HD
ATOM      8  H   UNL     1       1.216   6.122  21.809  0.00  0.00    +0.000 HD
ENDROOT
BRANCH   5   9
ATOM      9  C   UNL     1       1.289   8.426  20.589  0.00  0.00    +0.000 A 
ATOM     10  C   UNL     1       1.039   8.573  21.963  0.00  0.00    +0.000 A 
ATOM     11  C   UNL     1       0.455   9.740  22.458  0.00  0.00    +0.000 A 
ATOM     12  C   UNL     1       0.128  10.771  21.581  0.00  0.00    +0.000 A 
ATOM     13 CL   UNL     1      -0.588  12.211  22.191  0.00  0.00    +0.000 Cl
ATOM     14  C   UNL     1       0.382  10.644  20.216  0.00  0.00    +0.000 A 
ATOM     15  C   UNL     1       0.966   9.471  19.714  0.00  0.00    +0.000 A 
ENDBRANCH   5   9
BRANCH   1  16
ATOM     16  C   UNL     1       3.669   3.326  19.390  0.00  0.00    +0.000 C 
BRANCH  16  17
ATOM     17  C   UNL     1       4.098   3.193  17.927  0.00  0.00    +0.000 C 
BRANCH  17  21
ATOM     18  C   UNL     1       6.866   6.343  16.860  0.00  0.00    +0.000 A 
ATOM     19  C   UNL     1       7.096   5.547  17.983  0.00  0.00    +0.000 A 
ATOM     20  C   UNL     1       6.215   4.516  18.318  0.00  0.00    +0.000 A 
ATOM     21  C   UNL     1       5.077   4.275  17.537  0.00  0.00    +0.000 A 
ATOM     22  C   UNL     1       4.840   5.090  16.423  0.00  0.00    +0.000 A 
ATOM     23  C   UNL     1       5.730   6.117  16.085  0.00  0.00    +0.000 A 
BRANCH  18  25
ATOM     24  C   UNL     1       7.869   8.333  17.654  0.00  0.00    +0.000 C 
ATOM     25  O   UNL     1       7.790   7.330  16.648  0.00  0.00    +0.000 OA
ENDBRANCH  18  25
ENDBRANCH  17  21
ENDBRANCH  16  17
ENDBRANCH   1  16
TORSDOF 5
ENDMDL
MODEL 8
REMARK VINA RESULT:      -7.6      4.963      7.362
REMARK  Name = 
REMARK  6 active torsions:
REMARK  status: ('A' for Active; 'I' for Inactive)
REMARK    1  A    between atoms: C_1  and  O_2
REMARK    2  A    between atoms: O_2  and  C_3
REMARK    3  A    between atoms: C_6  and  C_7
REMARK    4  A    between atoms: C_7  and  C_8
REMARK    5  A    between atoms: C_8  and  N_9
REMARK    6  A    between atoms: C_13  and  C_15
REMARK                            x       y       z     vdW  Elec       q    Type
REMARK                         _______ _______ _______ _____ _____    ______ ____
ROOT
ATOM      1  N   UNL     1       3.020   4.658  19.589  0.00  0.00    +0.000 N 
ATOM      2  C   UNL     1       2.335   4.853  20.751  0.00  0.00    +0.000 C 
ATOM      3  O   UNL     1       2.200   3.995  21.620  0.00  0.00    +0.000 OA
ATOM      4  N   UNL     1       1.781   6.096  20.932  0.00  0.00    +0.000 N 
ATOM      5  C   UNL     1       1.886   7.198  20.102  0.00  0.00    +0.000 C 
ATOM      6  O   UNL     1       2.481   7.191  19.029  0.00  0.00    +0.000 OA
ATOM      7  H   UNL     1       3.089   5.451  18.952  0.00  0.00    +0.000 HD
ATOM      8  H   UNL     1       1.336   6.180  21.832  0.00  0.00    +0.000 HD
ENDROOT
BRANCH   5   9
ATOM      9  C   UNL     1       1.259   8.464  20.574  0.00  0.00    +0.000 A 
ATOM     10  C   UNL     1       1.007   8.577  21.951  0.00  0.00    +0.000 A 
ATOM     11  C   UNL     1       0.435   9.737  22.475  0.00  0.00    +0.000 A 
ATOM     12  C   UNL     1       0.121  10.794  21.625  0.00  0.00    +0.000 A 
ATOM     13 CL   UNL     1      -0.581  12.226  22.271  0.00  0.00    +0.000 Cl
ATOM     14  C   UNL     1       0.377  10.700  20.257  0.00  0.00    +0.000 A 
ATOM     15  C   UNL     1       0.950   9.535  19.726  0.00  0.00    +0.000 A 
ENDBRANCH   5   9
BRANCH   1  16
ATOM     16  C   UNL     1       3.637   3.391  19.260  0.00  0.00    +0.000 C 
BRANCH  16  17
ATOM     17  C   UNL     1       4.277   3.376  17.871  0.00  0.00    +0.000 C 
BRANCH  17  21
ATOM     18  C   UNL     1       6.893   6.760  17.214  0.00  0.00    +0.000 A 
ATOM     19  C   UNL     1       5.683   6.653  16.524  0.00  0.00    +0.000 A 
ATOM     20  C   UNL     1       4.827   5.572  16.751  0.00  0.00    +0.000 A 
ATOM     21  C   UNL     1       5.178   4.570  17.664  0.00  0.00    +0.000 A 
ATOM     22  C   UNL     1       6.402   4.671  18.338  0.00  0.00    +0.000 A 
ATOM     23  C   UNL     1       7.254   5.761  18.115  0.00  0.00    +0.000 A 
BRANCH  18  25
ATOM     24  C   UNL     1       8.127   8.623  17.991  0.00  0.00    +0.000 C 
ATOM     25  O   UNL     1       7.650   7.854  16.893  0.00  0.00    +0.000 OA
ENDBRANCH  18  25
ENDBRANCH  17  21
ENDBRANCH  16  17
ENDBRANCH   1  16
TORSDOF 5
ENDMDL
MODEL 9
REMARK VINA RESULT:      -7.6      0.955      1.054
REMARK  Name = 
REMARK  6 active torsions:
REMARK  status: ('A' for Active; 'I' for Inactive)
REMARK    1  A    between atoms: C_1  and  O_2
REMARK    2  A    between atoms: O_2  and  C_3
REMARK    3  A    between atoms: C_6  and  C_7
REMARK    4  A    between atoms: C_7  and  C_8
REMARK    5  A    between atoms: C_8  and  N_9
REMARK    6  A    between atoms: C_13  and  C_15
REMARK                            x       y       z     vdW  Elec       q    Type
REMARK                         _______ _______ _______ _____ _____    ______ ____
ROOT
ATOM      1  N   UNL     1       7.160   6.979  17.427  0.00  0.00    +0.000 N 
ATOM      2  C   UNL     1       7.980   6.940  18.516  0.00  0.00    +0.000 C 
ATOM      3  O   UNL     1       8.203   5.924  19.169  0.00  0.00    +0.000 OA
ATOM      4  N   UNL     1       8.581   8.122  18.870  0.00  0.00    +0.000 N 
ATOM      5  C   UNL     1       8.503   9.340  18.217  0.00  0.00    +0.000 C 
ATOM      6  O   UNL     1       7.821   9.535  17.216  0.00  0.00    +0.000 OA
ATOM      7  H   UNL     1       7.070   7.873  16.946  0.00  0.00    +0.000 HD
ATOM      8  H   UNL     1       9.209   8.005  19.649  0.00  0.00    +0.000 HD
ENDROOT
BRANCH   5   9
ATOM      9  C   UNL     1       9.327  10.454  18.762  0.00  0.00    +0.000 A 
ATOM     10  C   UNL     1      10.011  11.256  17.835  0.00  0.00    +0.000 A 
ATOM     11  C   UNL     1      10.794  12.329  18.264  0.00  0.00    +0.000 A 
ATOM     12  C   UNL     1      10.887  12.611  19.624  0.00  0.00    +0.000 A 
ATOM     13 CL   UNL     1      11.848  13.936  20.154  0.00  0.00    +0.000 Cl
ATOM     14  C   UNL     1      10.202  11.832  20.556  0.00  0.00    +0.000 A 
ATOM     15  C   UNL     1       9.417  10.750  20.128  0.00  0.00    +0.000 A 
ENDBRANCH   5   9
BRANCH   1  16
ATOM     16  C   UNL     1       6.448   5.811  16.956  0.00  0.00    +0.000 C 
BRANCH  16  17
ATOM     17  C   UNL     1       4.928   5.957  17.044  0.00  0.00    +0.000 C 
BRANCH  17  21
ATOM     18  C   UNL     1       3.216   3.459  20.136  0.00  0.00    +0.000 A 
ATOM     19  C   UNL     1       4.058   2.912  19.166  0.00  0.00    +0.000 A 
ATOM     20  C   UNL     1       4.629   3.721  18.179  0.00  0.00    +0.000 A 
ATOM     21  C   UNL     1       4.352   5.093  18.140  0.00  0.00    +0.000 A 
ATOM     22  C   UNL     1       3.489   5.634  19.103  0.00  0.00    +0.000 A 
ATOM     23  C   UNL     1       2.926   4.822  20.096  0.00  0.00    +0.000 A 
BRANCH  18  25
ATOM     24  C   UNL     1       1.429   2.885  21.575  0.00  0.00    +0.000 C 
ATOM     25  O   UNL     1       2.706   2.564  21.036  0.00  0.00    +0.000 OA
ENDBRANCH  18  25
ENDBRANCH  17  21
ENDBRANCH  16  17
ENDBRANCH   1  16
TORSDOF 5
ENDMDL
