MODEL 1
REMARK VINA RESULT:      -7.8      0.000      0.000
REMARK  Name = 
REMARK  5 active torsions:
REMARK  status: ('A' for Active; 'I' for Inactive)
REMARK    1  A    between atoms: C_1  and  C_2
REMARK    2  A    between atoms: C_2  and  O_3
REMARK    3  A    between atoms: O_3  and  C_4
REMARK    4  A    between atoms: C_10  and  C_12
REMARK    5  A    between atoms: C_12  and  N_13
REMARK                            x       y       z     vdW  Elec       q    Type
REMARK                         _______ _______ _______ _____ _____    ______ ____
ROOT
ATOM      1  C   UNL     1       1.327   8.132  20.363  0.00  0.00    +0.000 C 
ATOM      2  O   UNL     1       0.628   8.329  21.350  0.00  0.00    +0.000 OA
ATOM      3  N   UNL     1       1.991   6.950  20.117  0.00  0.00    +0.000 N 
ATOM      4  C   UNL     1       1.798   5.816  21.020  0.00  0.00    +0.000 C 
ATOM      5  C   UNL     1       1.226   4.612  20.259  0.00  0.00    +0.000 C 
ATOM      6  N   UNL     1       2.045   4.299  19.078  0.00  0.00    +0.000 N 
ATOM      7  C   UNL     1       2.567   3.028  18.937  0.00  0.00    +0.000 C 
ATOM      8  O   UNL     1       2.431   2.174  19.817  0.00  0.00    +0.000 OA
ATOM      9  C   UNL     1       2.235   5.433  18.161  0.00  0.00    +0.000 C 
ATOM     10  C   UNL     1       2.769   6.672  18.904  0.00  0.00    +0.000 C 
ENDROOT
BRANCH   1  11
ATOM     11  O   UNL     1       1.460   9.019  19.344  0.00  0.00    +0.000 OA
BRANCH  11  13
ATOM     12  C   UNL     1      -0.374  10.219  18.406  0.00  0.00    +0.000 C 
ATOM     13  C   UNL     1       0.694  10.222  19.486  0.00  0.00    +0.000 C 
ENDBRANCH  11  13
ENDBRANCH   1  11
BRANCH   7  14
ATOM     14  C   UNL     1       3.395   2.677  17.696  0.00  0.00    +0.000 C 
BRANCH  14  15
ATOM     15  N   UNL     1       4.465   3.636  17.461  0.00  0.00    +0.000 N 
ATOM     16  C   UNL     1       4.466   4.377  16.301  0.00  0.00    +0.000 A 
ATOM     17  N   UNL     1       5.285   5.338  16.036  0.00  0.00    +0.000 NA
ATOM     18  C   UNL     1       6.206   5.704  17.024  0.00  0.00    +0.000 A 
ATOM     19  C   UNL     1       7.060   6.782  16.784  0.00  0.00    +0.000 A 
ATOM     20  C   UNL     1       7.940   7.227  17.774  0.00  0.00    +0.000 A 
ATOM     21  C   UNL     1       7.982   6.585  19.013  0.00  0.00    +0.000 A 
ATOM     22  C   UNL     1       7.154   5.490  19.254  0.00  0.00    +0.000 A 
ATOM     23  C   UNL     1       6.271   5.056  18.259  0.00  0.00    +0.000 A 
ATOM     24  C   UNL     1       5.343   3.931  18.494  0.00  0.00    +0.000 A 
ATOM     25  O   UNL     1       5.371   3.336  19.565  0.00  0.00    +0.000 OA
ENDBRANCH  14  15
ENDBRANCH   7  14
TORSDOF 4
ENDMDL
MODEL 2
REMARK VINA RESULT:      -7.7      3.384      7.176
REMARK  Name = 
REMARK  5 active torsions:
REMARK  status: ('A' for Active; 'I' for Inactive)
REMARK    1  A    between atoms: C_1  and  C_2
REMARK    2  A    between atoms: C_2  and  O_3
REMARK    3  A    between atoms: O_3  and  C_4
REMARK    4  A    between atoms: C_10  and  C_12
REMARK    5  A    between atoms: C_12  and  N_13
REMARK                            x       y       z     vdW  Elec       q    Type
REMARK                         _______ _______ _______ _____ _____    ______ ____
ROOT
ATOM      1  C   UNL     1       5.745   3.560  12.627  0.00  0.00    +0.000 C 
ATOM      2  O   UNL     1       6.666   3.291  11.864  0.00  0.00    +0.000 OA
ATOM      3  N   UNL     1       5.922   3.925  13.944  0.00  0.00    +0.000 N 
ATOM      4  C   UNL     1       7.278   4.098  14.466  0.00  0.00    +0.000 C 
ATOM      5  C   UNL     1       7.480   5.531  14.976  0.00  0.00    +0.000 C 
ATOM      6  N   UNL     1       6.424   5.904  15.929  0.00  0.00    +0.000 N 
ATOM      7  C   UNL     1       6.777   6.339  17.192  0.00  0.00    +0.000 C 
ATOM      8  O   UNL     1       7.954   6.343  17.566  0.00  0.00    +0.000 OA
ATOM      9  C   UNL     1       5.059   5.741  15.408  0.00  0.00    +0.000 C 
ATOM     10  C   UNL     1       4.837   4.323  14.848  0.00  0.00    +0.000 C 
ENDROOT
BRANCH   1  11
ATOM     11  O   UNL     1       4.444   3.623  12.246  0.00  0.00    +0.000 OA
BRANCH  11  13
ATOM     12  C   UNL     1       3.279   3.820  10.176  0.00  0.00    +0.000 C 
ATOM     13  C   UNL     1       4.131   2.909  11.043  0.00  0.00    +0.000 C 
ENDBRANCH  11  13
ENDBRANCH   1  11
BRANCH   7  14
ATOM     14  C   UNL     1       5.690   6.761  18.186  0.00  0.00    +0.000 C 
BRANCH  14  15
ATOM     15  N   UNL     1       4.907   5.628  18.658  0.00  0.00    +0.000 N 
ATOM     16  C   UNL     1       5.545   4.450  18.972  0.00  0.00    +0.000 A 
ATOM     17  N   UNL     1       4.981   3.423  19.513  0.00  0.00    +0.000 NA
ATOM     18  C   UNL     1       3.632   3.529  19.868  0.00  0.00    +0.000 A 
ATOM     19  C   UNL     1       3.017   2.453  20.512  0.00  0.00    +0.000 A 
ATOM     20  C   UNL     1       1.695   2.549  20.952  0.00  0.00    +0.000 A 
ATOM     21  C   UNL     1       0.969   3.722  20.739  0.00  0.00    +0.000 A 
ATOM     22  C   UNL     1       1.563   4.792  20.073  0.00  0.00    +0.000 A 
ATOM     23  C   UNL     1       2.890   4.690  19.642  0.00  0.00    +0.000 A 
ATOM     24  C   UNL     1       3.571   5.820  18.976  0.00  0.00    +0.000 A 
ATOM     25  O   UNL     1       2.953   6.856  18.758  0.00  0.00    +0.000 OA
ENDBRANCH  14  15
ENDBRANCH   7  14
TORSDOF 4
ENDMDL
MODEL 3
REMARK VINA RESULT:      -7.2      2.485      7.054
REMARK  Name = 
REMARK  5 active torsions:
REMARK  status: ('A' for Active; 'I' for Inactive)
REMARK    1  A    between atoms: C_1  and  C_2
REMARK    2  A    between atoms: C_2  and  O_3
REMARK    3  A    between atoms: O_3  and  C_4
REMARK    4  A    between atoms: C_10  and  C_12
REMARK    5  A    between atoms: C_12  and  N_13
REMARK                            x       y       z     vdW  Elec       q    Type
REMARK                         _______ _______ _______ _____ _____    ______ ____
ROOT
ATOM      1  C   UNL     1       7.122   4.841  16.421  0.00  0.00    +0.000 C 
ATOM      2  O   UNL     1       8.085   4.318  16.968  0.00  0.00    +0.000 OA
ATOM      3  N   UNL     1       5.870   4.928  16.990  0.00  0.00    +0.000 N 
ATOM      4  C   UNL     1       5.670   4.460  18.361  0.00  0.00    +0.000 C 
ATOM      5  C   UNL     1       5.173   5.603  19.255  0.00  0.00    +0.000 C 
ATOM      6  N   UNL     1       3.990   6.252  18.670  0.00  0.00    +0.000 N 
ATOM      7  C   UNL     1       2.829   6.336  19.414  0.00  0.00    +0.000 C 
ATOM      8  O   UNL     1       2.737   5.808  20.526  0.00  0.00    +0.000 OA
ATOM      9  C   UNL     1       4.187   6.734  17.295  0.00  0.00    +0.000 C 
ATOM     10  C   UNL     1       4.727   5.618  16.381  0.00  0.00    +0.000 C 
ENDROOT
BRANCH   1  11
ATOM     11  O   UNL     1       7.189   5.483  15.226  0.00  0.00    +0.000 OA
BRANCH  11  13
ATOM     12  C   UNL     1       6.244   3.990  13.627  0.00  0.00    +0.000 C 
ATOM     13  C   UNL     1       7.525   4.648  14.110  0.00  0.00    +0.000 C 
ENDBRANCH  11  13
ENDBRANCH   1  11
BRANCH   7  14
ATOM     14  C   UNL     1       1.598   7.037  18.831  0.00  0.00    +0.000 C 
BRANCH  14  15
ATOM     15  N   UNL     1       1.637   8.478  19.036  0.00  0.00    +0.000 N 
ATOM     16  C   UNL     1       2.043   9.297  18.006  0.00  0.00    +0.000 A 
ATOM     17  N   UNL     1       2.003  10.586  18.024  0.00  0.00    +0.000 NA
ATOM     18  C   UNL     1       1.449  11.208  19.149  0.00  0.00    +0.000 A 
ATOM     19  C   UNL     1       1.338  12.599  19.164  0.00  0.00    +0.000 A 
ATOM     20  C   UNL     1       0.720  13.252  20.234  0.00  0.00    +0.000 A 
ATOM     21  C   UNL     1       0.218  12.515  21.308  0.00  0.00    +0.000 A 
ATOM     22  C   UNL     1       0.347  11.128  21.317  0.00  0.00    +0.000 A 
ATOM     23  C   UNL     1       0.962  10.482  20.238  0.00  0.00    +0.000 A 
ATOM     24  C   UNL     1       1.074   9.010  20.187  0.00  0.00    +0.000 A 
ATOM     25  O   UNL     1       0.659   8.338  21.124  0.00  0.00    +0.000 OA
ENDBRANCH  14  15
ENDBRANCH   7  14
TORSDOF 4
ENDMDL
MODEL 4
REMARK VINA RESULT:      -7.1      3.926      6.970
REMARK  Name = 
REMARK  5 active torsions:
REMARK  status: ('A' for Active; 'I' for Inactive)
REMARK    1  A    between atoms: C_1  and  C_2
REMARK    2  A    between atoms: C_2  and  O_3
REMARK    3  A    between atoms: O_3  and  C_4
REMARK    4  A    between atoms: C_10  and  C_12
REMARK    5  A    between atoms: C_12  and  N_13
REMARK                            x       y       z     vdW  Elec       q    Type
REMARK                         _______ _______ _______ _____ _____    ______ ____
ROOT
ATOM      1  C   UNL     1      -4.601  12.578  19.874  0.00  0.00    +0.000 C 
ATOM      2  O   UNL     1      -5.112  13.135  20.839  0.00  0.00    +0.000 OA
ATOM      3  N   UNL     1      -3.241  12.486  19.673  0.00  0.00    +0.000 N 
ATOM      4  C   UNL     1      -2.327  12.992  20.696  0.00  0.00    +0.000 C 
ATOM      5  C   UNL     1      -1.422  11.867  21.215  0.00  0.00    +0.000 C 
ATOM      6  N   UNL     1      -0.748  11.179  20.103  0.00  0.00    +0.000 N 
ATOM      7  C   UNL     1       0.631  11.096  20.098  0.00  0.00    +0.000 C 
ATOM      8  O   UNL     1       1.313  11.655  20.961  0.00  0.00    +0.000 OA
ATOM      9  C   UNL     1      -1.662  10.660  19.075  0.00  0.00    +0.000 C 
ATOM     10  C   UNL     1      -2.614  11.757  18.564  0.00  0.00    +0.000 C 
ENDROOT
BRANCH   1  11
ATOM     11  O   UNL     1      -5.308  11.902  18.932  0.00  0.00    +0.000 OA
BRANCH  11  13
ATOM     12  C   UNL     1      -7.173  12.584  17.613  0.00  0.00    +0.000 C 
ATOM     13  C   UNL     1      -6.727  12.101  18.983  0.00  0.00    +0.000 C 
ENDBRANCH  11  13
ENDBRANCH   1  11
BRANCH   7  14
ATOM     14  C   UNL     1       1.347  10.356  18.963  0.00  0.00    +0.000 C 
BRANCH  14  15
ATOM     15  N   UNL     1       1.717   8.999  19.341  0.00  0.00    +0.000 N 
ATOM     16  C   UNL     1       1.294   8.494  20.549  0.00  0.00    +0.000 A 
ATOM     17  N   UNL     1       1.452   7.275  20.939  0.00  0.00    +0.000 NA
ATOM     18  C   UNL     1       2.042   6.373  20.046  0.00  0.00    +0.000 A 
ATOM     19  C   UNL     1       2.165   5.034  20.422  0.00  0.00    +0.000 A 
ATOM     20  C   UNL     1       2.677   4.089  19.529  0.00  0.00    +0.000 A 
ATOM     21  C   UNL     1       3.083   4.480  18.252  0.00  0.00    +0.000 A 
ATOM     22  C   UNL     1       2.990   5.818  17.875  0.00  0.00    +0.000 A 
ATOM     23  C   UNL     1       2.470   6.757  18.773  0.00  0.00    +0.000 A 
ATOM     24  C   UNL     1       2.309   8.176  18.394  0.00  0.00    +0.000 A 
ATOM     25  O   UNL     1       2.675   8.552  17.287  0.00  0.00    +0.000 OA
ENDBRANCH  14  15
ENDBRANCH   7  14
TORSDOF 4
ENDMDL
MODEL 5
REMARK VINA RESULT:      -7.1      3.934      9.402
REMARK  Name = 
REMARK  5 active torsions:
REMARK  status: ('A' for Active; 'I' for Inactive)
REMARK    1  A    between atoms: C_1  and  C_2
REMARK    2  A    between atoms: C_2  and  O_3
REMARK    3  A    between atoms: O_3  and  C_4
REMARK    4  A    between atoms: C_10  and  C_12
REMARK    5  A    between atoms: C_12  and  N_13
REMARK                            x       y       z     vdW  Elec       q    Type
REMARK                         _______ _______ _______ _____ _____    ______ ____
ROOT
ATOM      1  C   UNL     1       2.113   5.814  19.048  0.00  0.00    +0.000 C 
ATOM      2  O   UNL     1       2.358   5.311  17.958  0.00  0.00    +0.000 OA
ATOM      3  N   UNL     1       2.235   7.160  19.316  0.00  0.00    +0.000 N 
ATOM      4  C   UNL     1       2.589   8.080  18.235  0.00  0.00    +0.000 C 
ATOM      5  C   UNL     1       1.490   9.132  18.041  0.00  0.00    +0.000 C 
ATOM      6  N   UNL     1       1.173   9.802  19.312  0.00  0.00    +0.000 N 
ATOM      7  C   UNL     1       1.260  11.179  19.388  0.00  0.00    +0.000 C 
ATOM      8  O   UNL     1       1.675  11.852  18.441  0.00  0.00    +0.000 OA
ATOM      9  C   UNL     1       0.808   8.885  20.401  0.00  0.00    +0.000 C 
ATOM     10  C   UNL     1       1.873   7.789  20.592  0.00  0.00    +0.000 C 
ENDROOT
BRANCH   1  11
ATOM     11  O   UNL     1       1.601   5.124  20.100  0.00  0.00    +0.000 OA
BRANCH  11  13
ATOM     12  C   UNL     1       1.567   3.035  21.247  0.00  0.00    +0.000 C 
ATOM     13  C   UNL     1       2.455   4.097  20.621  0.00  0.00    +0.000 C 
ENDBRANCH  11  13
ENDBRANCH   1  11
BRANCH   7  14
ATOM     14  C   UNL     1       0.903  11.895  20.696  0.00  0.00    +0.000 C 
BRANCH  14  15
ATOM     15  N   UNL     1      -0.501  12.274  20.748  0.00  0.00    +0.000 N 
ATOM     16  C   UNL     1      -1.239  12.299  19.586  0.00  0.00    +0.000 A 
ATOM     17  N   UNL     1      -2.512  12.497  19.520  0.00  0.00    +0.000 NA
ATOM     18  C   UNL     1      -3.216  12.637  20.722  0.00  0.00    +0.000 A 
ATOM     19  C   UNL     1      -4.603  12.789  20.677  0.00  0.00    +0.000 A 
ATOM     20  C   UNL     1      -5.349  12.853  21.857  0.00  0.00    +0.000 A 
ATOM     21  C   UNL     1      -4.710  12.778  23.095  0.00  0.00    +0.000 A 
ATOM     22  C   UNL     1      -3.323  12.654  23.152  0.00  0.00    +0.000 A 
ATOM     23  C   UNL     1      -2.584  12.583  21.966  0.00  0.00    +0.000 A 
ATOM     24  C   UNL     1      -1.118  12.402  21.984  0.00  0.00    +0.000 A 
ATOM     25  O   UNL     1      -0.527  12.352  23.057  0.00  0.00    +0.000 OA
ENDBRANCH  14  15
ENDBRANCH   7  14
TORSDOF 4
ENDMDL
MODEL 6
REMARK VINA RESULT:      -7.1      1.723      2.419
REMARK  Name = 
REMARK  5 active torsions:
REMARK  status: ('A' for Active; 'I' for Inactive)
REMARK    1  A    between atoms: C_1  and  C_2
REMARK    2  A    between atoms: C_2  and  O_3
REMARK    3  A    between atoms: O_3  and  C_4
REMARK    4  A    between atoms: C_10  and  C_12
REMARK    5  A    between atoms: C_12  and  N_13
REMARK                            x       y       z     vdW  Elec       q    Type
REMARK                         _______ _______ _______ _____ _____    ______ ____
ROOT
ATOM      1  C   UNL     1       1.195   9.210  19.489  0.00  0.00    +0.000 C 
ATOM      2  O   UNL     1       0.726   9.892  20.393  0.00  0.00    +0.000 OA
ATOM      3  N   UNL     1       1.861   8.021  19.692  0.00  0.00    +0.000 N 
ATOM      4  C   UNL     1       1.951   7.468  21.042  0.00  0.00    +0.000 C 
ATOM      5  C   UNL     1       1.301   6.079  21.101  0.00  0.00    +0.000 C 
ATOM      6  N   UNL     1       1.850   5.197  20.060  0.00  0.00    +0.000 N 
ATOM      7  C   UNL     1       2.408   3.988  20.426  0.00  0.00    +0.000 C 
ATOM      8  O   UNL     1       2.529   3.667  21.612  0.00  0.00    +0.000 OA
ATOM      9  C   UNL     1       1.755   5.743  18.698  0.00  0.00    +0.000 C 
ATOM     10  C   UNL     1       2.361   7.156  18.616  0.00  0.00    +0.000 C 
ENDROOT
BRANCH   1  11
ATOM     11  O   UNL     1       1.037   9.493  18.171  0.00  0.00    +0.000 OA
BRANCH  11  13
ATOM     12  C   UNL     1      -1.214   9.875  17.484  0.00  0.00    +0.000 C 
ATOM     13  C   UNL     1       0.094  10.535  17.886  0.00  0.00    +0.000 C 
ENDBRANCH  11  13
ENDBRANCH   1  11
BRANCH   7  14
ATOM     14  C   UNL     1       2.955   3.043  19.351  0.00  0.00    +0.000 C 
BRANCH  14  15
ATOM     15  N   UNL     1       4.019   3.659  18.569  0.00  0.00    +0.000 N 
ATOM     16  C   UNL     1       5.195   4.014  19.190  0.00  0.00    +0.000 A 
ATOM     17  N   UNL     1       6.248   4.450  18.587  0.00  0.00    +0.000 NA
ATOM     18  C   UNL     1       6.225   4.511  17.189  0.00  0.00    +0.000 A 
ATOM     19  C   UNL     1       7.375   4.919  16.512  0.00  0.00    +0.000 A 
ATOM     20  C   UNL     1       7.417   4.918  15.115  0.00  0.00    +0.000 A 
ATOM     21  C   UNL     1       6.298   4.519  14.381  0.00  0.00    +0.000 A 
ATOM     22  C   UNL     1       5.135   4.135  15.046  0.00  0.00    +0.000 A 
ATOM     23  C   UNL     1       5.105   4.133  16.446  0.00  0.00    +0.000 A 
ATOM     24  C   UNL     1       3.908   3.686  17.187  0.00  0.00    +0.000 A 
ATOM     25  O   UNL     1       2.904   3.348  16.570  0.00  0.00    +0.000 OA
ENDBRANCH  14  15
ENDBRANCH   7  14
TORSDOF 4
ENDMDL
MODEL 7
REMARK VINA RESULT:      -6.9      4.041      6.667
REMARK  Name = 
REMARK  5 active torsions:
REMARK  status: ('A' for Active; 'I' for Inactive)
REMARK    1  A    between atoms: C_1  and  C_2
REMARK    2  A    between atoms: C_2  and  O_3
REMARK    3  A    between atoms: O_3  and  C_4
REMARK    4  A    between atoms: C_10  and  C_12
REMARK    5  A    between atoms: C_12  and  N_13
REMARK                            x       y       z     vdW  Elec       q    Type
REMARK                         _______ _______ _______ _____ _____    ______ ____
ROOT
ATOM      1  C   UNL     1       0.650  15.909  18.921  0.00  0.00    +0.000 C 
ATOM      2  O   UNL     1      -0.131  16.532  18.212  0.00  0.00    +0.000 OA
ATOM      3  N   UNL     1       0.387  14.659  19.438  0.00  0.00    +0.000 N 
ATOM      4  C   UNL     1      -0.849  13.972  19.063  0.00  0.00    +0.000 C 
ATOM      5  C   UNL     1      -0.537  12.637  18.375  0.00  0.00    +0.000 C 
ATOM      6  N   UNL     1       0.371  11.821  19.196  0.00  0.00    +0.000 N 
ATOM      7  C   UNL     1      -0.010  10.544  19.556  0.00  0.00    +0.000 C 
ATOM      8  O   UNL     1      -1.127  10.101  19.275  0.00  0.00    +0.000 OA
ATOM      9  C   UNL     1       1.620  12.502  19.568  0.00  0.00    +0.000 C 
ATOM     10  C   UNL     1       1.340  13.868  20.225  0.00  0.00    +0.000 C 
ENDROOT
BRANCH   1  11
ATOM     11  O   UNL     1       1.909  16.330  19.209  0.00  0.00    +0.000 OA
BRANCH  11  13
ATOM     12  C   UNL     1       3.408  15.561  17.524  0.00  0.00    +0.000 C 
ATOM     13  C   UNL     1       2.673  16.769  18.079  0.00  0.00    +0.000 C 
ENDBRANCH  11  13
ENDBRANCH   1  11
BRANCH   7  14
ATOM     14  C   UNL     1       0.938   9.670  20.385  0.00  0.00    +0.000 C 
BRANCH  14  15
ATOM     15  N   UNL     1       1.580   8.641  19.580  0.00  0.00    +0.000 N 
ATOM     16  C   UNL     1       2.152   8.984  18.375  0.00  0.00    +0.000 A 
ATOM     17  N   UNL     1       2.852   8.193  17.636  0.00  0.00    +0.000 NA
ATOM     18  C   UNL     1       3.109   6.903  18.116  0.00  0.00    +0.000 A 
ATOM     19  C   UNL     1       3.918   6.051  17.362  0.00  0.00    +0.000 A 
ATOM     20  C   UNL     1       4.261   4.785  17.844  0.00  0.00    +0.000 A 
ATOM     21  C   UNL     1       3.786   4.355  19.084  0.00  0.00    +0.000 A 
ATOM     22  C   UNL     1       2.955   5.187  19.833  0.00  0.00    +0.000 A 
ATOM     23  C   UNL     1       2.622   6.456  19.346  0.00  0.00    +0.000 A 
ATOM     24  C   UNL     1       1.785   7.385  20.132  0.00  0.00    +0.000 A 
ATOM     25  O   UNL     1       1.337   7.028  21.216  0.00  0.00    +0.000 OA
ENDBRANCH  14  15
ENDBRANCH   7  14
TORSDOF 4
ENDMDL
MODEL 8
REMARK VINA RESULT:      -6.9      3.637      9.200
REMARK  Name = 
REMARK  5 active torsions:
REMARK  status: ('A' for Active; 'I' for Inactive)
REMARK    1  A    between atoms: C_1  and  C_2
REMARK    2  A    between atoms: C_2  and  O_3
REMARK    3  A    between atoms: O_3  and  C_4
REMARK    4  A    between atoms: C_10  and  C_12
REMARK    5  A    between atoms: C_12  and  N_13
REMARK                            x       y       z     vdW  Elec       q    Type
REMARK                         _______ _______ _______ _____ _____    ______ ____
ROOT
ATOM      1  C   UNL     1       3.870   6.073  18.570  0.00  0.00    +0.000 C 
ATOM      2  O   UNL     1       4.166   5.272  19.449  0.00  0.00    +0.000 OA
ATOM      3  N   UNL     1       2.730   6.846  18.589  0.00  0.00    +0.000 N 
ATOM      4  C   UNL     1       1.848   6.798  19.755  0.00  0.00    +0.000 C 
ATOM      5  C   UNL     1       1.721   8.186  20.394  0.00  0.00    +0.000 C 
ATOM      6  N   UNL     1       1.330   9.192  19.395  0.00  0.00    +0.000 N 
ATOM      7  C   UNL     1       0.198   9.953  19.611  0.00  0.00    +0.000 C 
ATOM      8  O   UNL     1      -0.537   9.753  20.582  0.00  0.00    +0.000 OA
ATOM      9  C   UNL     1       2.218   9.253  18.224  0.00  0.00    +0.000 C 
ATOM     10  C   UNL     1       2.399   7.864  17.584  0.00  0.00    +0.000 C 
ENDROOT
BRANCH   1  11
ATOM     11  O   UNL     1       4.673   6.367  17.515  0.00  0.00    +0.000 OA
BRANCH  11  13
ATOM     12  C   UNL     1       5.014   4.445  16.148  0.00  0.00    +0.000 C 
ATOM     13  C   UNL     1       5.637   5.357  17.190  0.00  0.00    +0.000 C 
ENDBRANCH  11  13
ENDBRANCH   1  11
BRANCH   7  14
ATOM     14  C   UNL     1      -0.206  11.027  18.594  0.00  0.00    +0.000 C 
BRANCH  14  15
ATOM     15  N   UNL     1      -1.645  11.065  18.379  0.00  0.00    +0.000 N 
ATOM     16  C   UNL     1      -2.246  10.066  17.646  0.00  0.00    +0.000 A 
ATOM     17  N   UNL     1      -3.519   9.924  17.491  0.00  0.00    +0.000 NA
ATOM     18  C   UNL     1      -4.364  10.811  18.167  0.00  0.00    +0.000 A 
ATOM     19  C   UNL     1      -5.745  10.638  18.065  0.00  0.00    +0.000 A 
ATOM     20  C   UNL     1      -6.620  11.454  18.787  0.00  0.00    +0.000 A 
ATOM     21  C   UNL     1      -6.118  12.464  19.609  0.00  0.00    +0.000 A 
ATOM     22  C   UNL     1      -4.742  12.665  19.698  0.00  0.00    +0.000 A 
ATOM     23  C   UNL     1      -3.872  11.838  18.977  0.00  0.00    +0.000 A 
ATOM     24  C   UNL     1      -2.407  11.986  19.083  0.00  0.00    +0.000 A 
ATOM     25  O   UNL     1      -1.937  12.877  19.782  0.00  0.00    +0.000 OA
ENDBRANCH  14  15
ENDBRANCH   7  14
TORSDOF 4
ENDMDL
MODEL 9
REMARK VINA RESULT:      -6.9      4.301      7.079
REMARK  Name = 
REMARK  5 active torsions:
REMARK  status: ('A' for Active; 'I' for Inactive)
REMARK    1  A    between atoms: C_1  and  C_2
REMARK    2  A    between atoms: C_2  and  O_3
REMARK    3  A    between atoms: O_3  and  C_4
REMARK    4  A    between atoms: C_10  and  C_12
REMARK    5  A    between atoms: C_12  and  N_13
REMARK                            x       y       z     vdW  Elec       q    Type
REMARK                         _______ _______ _______ _____ _____    ______ ____
ROOT
ATOM      1  C   UNL     1       3.671  15.605  18.731  0.00  0.00    +0.000 C 
ATOM      2  O   UNL     1       4.236  16.370  19.504  0.00  0.00    +0.000 OA
ATOM      3  N   UNL     1       3.210  14.356  19.088  0.00  0.00    +0.000 N 
ATOM      4  C   UNL     1       3.305  13.926  20.482  0.00  0.00    +0.000 C 
ATOM      5  C   UNL     1       1.913  13.615  21.046  0.00  0.00    +0.000 C 
ATOM      6  N   UNL     1       1.193  12.668  20.180  0.00  0.00    +0.000 N 
ATOM      7  C   UNL     1       0.714  11.491  20.719  0.00  0.00    +0.000 C 
ATOM      8  O   UNL     1       0.945  11.177  21.890  0.00  0.00    +0.000 OA
ATOM      9  C   UNL     1       1.086  13.099  18.778  0.00  0.00    +0.000 C 
ATOM     10  C   UNL     1       2.465  13.460  18.195  0.00  0.00    +0.000 C 
ENDROOT
BRANCH   1  11
ATOM     11  O   UNL     1       3.345  15.928  17.454  0.00  0.00    +0.000 OA
BRANCH  11  13
ATOM     12  C   UNL     1       1.347  17.085  18.047  0.00  0.00    +0.000 C 
ATOM     13  C   UNL     1       2.668  17.183  17.302  0.00  0.00    +0.000 C 
ENDBRANCH  11  13
ENDBRANCH   1  11
BRANCH   7  14
ATOM     14  C   UNL     1      -0.066  10.509  19.837  0.00  0.00    +0.000 C 
BRANCH  14  15
ATOM     15  N   UNL     1       0.802   9.512  19.226  0.00  0.00    +0.000 N 
ATOM     16  C   UNL     1       1.423   9.798  18.032  0.00  0.00    +0.000 A 
ATOM     17  N   UNL     1       2.305   9.051  17.457  0.00  0.00    +0.000 NA
ATOM     18  C   UNL     1       2.713   7.890  18.124  0.00  0.00    +0.000 A 
ATOM     19  C   UNL     1       3.711   7.100  17.551  0.00  0.00    +0.000 A 
ATOM     20  C   UNL     1       4.201   5.976  18.222  0.00  0.00    +0.000 A 
ATOM     21  C   UNL     1       3.684   5.625  19.471  0.00  0.00    +0.000 A 
ATOM     22  C   UNL     1       2.668   6.391  20.039  0.00  0.00    +0.000 A 
ATOM     23  C   UNL     1       2.188   7.519  19.363  0.00  0.00    +0.000 A 
ATOM     24  C   UNL     1       1.147   8.384  19.955  0.00  0.00    +0.000 A 
ATOM     25  O   UNL     1       0.661   8.090  21.041  0.00  0.00    +0.000 OA
ENDBRANCH  14  15
ENDBRANCH   7  14
TORSDOF 4
ENDMDL
