MODEL 1
REMARK VINA RESULT:      -7.5      0.000      0.000
REMARK  Name = 
REMARK  8 active torsions:
REMARK  status: ('A' for Active; 'I' for Inactive)
REMARK    1  A    between atoms: C_1  and  C_2
REMARK    2  A    between atoms: N_4  and  S_5
REMARK    3  A    between atoms: S_5  and  C_8
REMARK    4  A    between atoms: C_8  and  C_9
REMARK    5  A    between atoms: C_16  and  C_17
REMARK    6  A    between atoms: C_16  and  C_18
REMARK    7  A    between atoms: N_21  and  C_22
REMARK    8  A    between atoms: C_25  and  C_26
REMARK                            x       y       z     vdW  Elec       q    Type
REMARK                         _______ _______ _______ _____ _____    ______ ____
ROOT
ATOM      1  C   UNL     1       1.914   8.979  22.244  0.00  0.00    +0.000 C 
ATOM      2  C   UNL     1       0.904   8.364  21.274  0.00  0.00    +0.000 C 
ATOM      3  C   UNL     1      -0.553   8.809  21.560  0.00  0.00    +0.000 C 
ATOM      4  N   UNL     1      -0.919  10.150  20.980  0.00  0.00    +0.000 NA
ATOM      5  C   UNL     1      -0.625  10.166  19.521  0.00  0.00    +0.000 C 
ATOM      6  C   UNL     1       0.854   9.859  19.222  0.00  0.00    +0.000 C 
ATOM      7  N   UNL     1       1.284   8.615  19.866  0.00  0.00    +0.000 N 
ENDROOT
BRANCH   7   8
ATOM      8  C   UNL     1       2.145   7.746  19.225  0.00  0.00    +0.000 A 
ATOM      9  N   UNL     1       2.773   8.204  18.111  0.00  0.00    +0.000 NA
ATOM     10  C   UNL     1       3.706   7.427  17.509  0.00  0.00    +0.000 A 
ATOM     11  C   UNL     1       4.064   6.161  17.947  0.00  0.00    +0.000 A 
ATOM     12  C   UNL     1       3.398   5.671  19.070  0.00  0.00    +0.000 A 
ATOM     13  C   UNL     1       2.440   6.463  19.704  0.00  0.00    +0.000 A 
ATOM     14  F   UNL     1       1.816   5.936  20.769  0.00  0.00    +0.000 F 
BRANCH  11  15
ATOM     15  C   UNL     1       5.114   5.364  17.242  0.00  0.00    +0.000 C 
ATOM     16  F   UNL     1       5.802   4.519  18.059  0.00  0.00    +0.000 F 
ATOM     17  F   UNL     1       4.598   4.585  16.252  0.00  0.00    +0.000 F 
ATOM     18  F   UNL     1       6.050   6.153  16.647  0.00  0.00    +0.000 F 
ENDBRANCH  11  15
ENDBRANCH   7   8
BRANCH   4  19
ATOM     19  S   UNL     1      -0.465  11.520  21.880  0.00  0.00    +0.000 S 
ATOM     20  O   UNL     1      -0.543  11.126  23.266  0.00  0.00    +0.000 OA
ATOM     21  O   UNL     1       0.753  12.039  21.301  0.00  0.00    +0.000 OA
BRANCH  19  22
ATOM     22  C   UNL     1      -1.804  12.665  21.492  0.00  0.00    +0.000 C 
BRANCH  22  23
ATOM     23  C   UNL     1      -2.195  13.608  22.626  0.00  0.00    +0.000 C 
ATOM     24  C   UNL     1      -1.076  14.066  23.596  0.00  0.00    +0.000 C 
ATOM     25  C   UNL     1      -1.704  15.284  24.314  0.00  0.00    +0.000 C 
ATOM     26  C   UNL     1      -3.101  15.408  23.657  0.00  0.00    +0.000 C 
ATOM     27  C   UNL     1      -3.980  14.281  24.232  0.00  0.00    +0.000 C 
ATOM     28  C   UNL     1      -3.296  13.106  23.571  0.00  0.00    +0.000 C 
ATOM     29  O   UNL     1      -3.587  11.948  23.803  0.00  0.00    +0.000 OA
ATOM     30  C   UNL     1      -2.838  14.970  22.191  0.00  0.00    +0.000 C 
ATOM     31  C   UNL     1      -4.115  14.842  21.335  0.00  0.00    +0.000 C 
ATOM     32  C   UNL     1      -1.909  15.945  21.437  0.00  0.00    +0.000 C 
ENDBRANCH  22  23
ENDBRANCH  19  22
ENDBRANCH   4  19
TORSDOF 5
ENDMDL
MODEL 2
REMARK VINA RESULT:      -7.5      1.019      1.234
REMARK  Name = 
REMARK  8 active torsions:
REMARK  status: ('A' for Active; 'I' for Inactive)
REMARK    1  A    between atoms: C_1  and  C_2
REMARK    2  A    between atoms: N_4  and  S_5
REMARK    3  A    between atoms: S_5  and  C_8
REMARK    4  A    between atoms: C_8  and  C_9
REMARK    5  A    between atoms: C_16  and  C_17
REMARK    6  A    between atoms: C_16  and  C_18
REMARK    7  A    between atoms: N_21  and  C_22
REMARK    8  A    between atoms: C_25  and  C_26
REMARK                            x       y       z     vdW  Elec       q    Type
REMARK                         _______ _______ _______ _____ _____    ______ ____
ROOT
ATOM      1  C   UNL     1       1.911   9.026  22.301  0.00  0.00    +0.000 C 
ATOM      2  C   UNL     1       0.919   8.391  21.325  0.00  0.00    +0.000 C 
ATOM      3  C   UNL     1      -0.551   8.787  21.618  0.00  0.00    +0.000 C 
ATOM      4  N   UNL     1      -0.960  10.122  21.055  0.00  0.00    +0.000 NA
ATOM      5  C   UNL     1      -0.668  10.165  19.595  0.00  0.00    +0.000 C 
ATOM      6  C   UNL     1       0.819   9.909  19.291  0.00  0.00    +0.000 C 
ATOM      7  N   UNL     1       1.289   8.671  19.920  0.00  0.00    +0.000 N 
ENDROOT
BRANCH   7   8
ATOM      8  C   UNL     1       2.176   7.838  19.267  0.00  0.00    +0.000 A 
ATOM      9  N   UNL     1       2.449   6.642  19.849  0.00  0.00    +0.000 NA
ATOM     10  C   UNL     1       3.229   5.749  19.194  0.00  0.00    +0.000 A 
ATOM     11  C   UNL     1       3.797   5.977  17.950  0.00  0.00    +0.000 A 
ATOM     12  C   UNL     1       3.549   7.217  17.361  0.00  0.00    +0.000 A 
ATOM     13  C   UNL     1       2.742   8.144  18.022  0.00  0.00    +0.000 A 
ATOM     14  F   UNL     1       2.550   9.328  17.420  0.00  0.00    +0.000 F 
BRANCH  11  15
ATOM     15  C   UNL     1       4.636   4.938  17.278  0.00  0.00    +0.000 C 
ATOM     16  F   UNL     1       5.480   4.283  18.123  0.00  0.00    +0.000 F 
ATOM     17  F   UNL     1       3.887   3.972  16.678  0.00  0.00    +0.000 F 
ATOM     18  F   UNL     1       5.422   5.463  16.298  0.00  0.00    +0.000 F 
ENDBRANCH  11  15
ENDBRANCH   7   8
BRANCH   4  19
ATOM     19  S   UNL     1      -0.548  11.496  21.971  0.00  0.00    +0.000 S 
ATOM     20  O   UNL     1      -0.635  11.089  23.353  0.00  0.00    +0.000 OA
ATOM     21  O   UNL     1       0.666  12.046  21.411  0.00  0.00    +0.000 OA
BRANCH  19  22
ATOM     22  C   UNL     1      -1.906  12.613  21.574  0.00  0.00    +0.000 C 
BRANCH  22  23
ATOM     23  C   UNL     1      -2.281  13.592  22.683  0.00  0.00    +0.000 C 
ATOM     24  C   UNL     1      -1.151  14.072  23.629  0.00  0.00    +0.000 C 
ATOM     25  C   UNL     1      -1.765  15.314  24.316  0.00  0.00    +0.000 C 
ATOM     26  C   UNL     1      -3.167  15.428  23.669  0.00  0.00    +0.000 C 
ATOM     27  C   UNL     1      -4.047  14.323  24.284  0.00  0.00    +0.000 C 
ATOM     28  C   UNL     1      -3.377  13.125  23.652  0.00  0.00    +0.000 C 
ATOM     29  O   UNL     1      -3.672  11.976  23.922  0.00  0.00    +0.000 OA
ATOM     30  C   UNL     1      -2.920  14.945  22.214  0.00  0.00    +0.000 C 
ATOM     31  C   UNL     1      -4.206  14.799  21.373  0.00  0.00    +0.000 C 
ATOM     32  C   UNL     1      -1.992  15.891  21.423  0.00  0.00    +0.000 C 
ENDBRANCH  22  23
ENDBRANCH  19  22
ENDBRANCH   4  19
TORSDOF 5
ENDMDL
MODEL 3
REMARK VINA RESULT:      -7.4      0.918      1.500
REMARK  Name = 
REMARK  8 active torsions:
REMARK  status: ('A' for Active; 'I' for Inactive)
REMARK    1  A    between atoms: C_1  and  C_2
REMARK    2  A    between atoms: N_4  and  S_5
REMARK    3  A    between atoms: S_5  and  C_8
REMARK    4  A    between atoms: C_8  and  C_9
REMARK    5  A    between atoms: C_16  and  C_17
REMARK    6  A    between atoms: C_16  and  C_18
REMARK    7  A    between atoms: N_21  and  C_22
REMARK    8  A    between atoms: C_25  and  C_26
REMARK                            x       y       z     vdW  Elec       q    Type
REMARK                         _______ _______ _______ _____ _____    ______ ____
ROOT
ATOM      1  C   UNL     1       1.886   8.914  22.244  0.00  0.00    +0.000 C 
ATOM      2  C   UNL     1       0.873   8.393  21.224  0.00  0.00    +0.000 C 
ATOM      3  C   UNL     1      -0.547   8.981  21.432  0.00  0.00    +0.000 C 
ATOM      4  N   UNL     1      -0.750  10.347  20.832  0.00  0.00    +0.000 NA
ATOM      5  C   UNL     1      -0.379  10.324  19.390  0.00  0.00    +0.000 C 
ATOM      6  C   UNL     1       1.076   9.873  19.169  0.00  0.00    +0.000 C 
ATOM      7  N   UNL     1       1.348   8.597  19.838  0.00  0.00    +0.000 N 
ENDROOT
BRANCH   7   8
ATOM      8  C   UNL     1       2.152   7.644  19.243  0.00  0.00    +0.000 A 
ATOM      9  N   UNL     1       2.873   8.028  18.158  0.00  0.00    +0.000 NA
ATOM     10  C   UNL     1       3.756   7.161  17.607  0.00  0.00    +0.000 A 
ATOM     11  C   UNL     1       3.970   5.871  18.069  0.00  0.00    +0.000 A 
ATOM     12  C   UNL     1       3.208   5.458  19.162  0.00  0.00    +0.000 A 
ATOM     13  C   UNL     1       2.300   6.343  19.744  0.00  0.00    +0.000 A 
ATOM     14  F   UNL     1       1.580   5.890  20.780  0.00  0.00    +0.000 F 
BRANCH  11  15
ATOM     15  C   UNL     1       4.972   4.971  17.420  0.00  0.00    +0.000 C 
ATOM     16  F   UNL     1       4.422   3.883  16.815  0.00  0.00    +0.000 F 
ATOM     17  F   UNL     1       5.695   5.607  16.456  0.00  0.00    +0.000 F 
ATOM     18  F   UNL     1       5.881   4.485  18.308  0.00  0.00    +0.000 F 
ENDBRANCH  11  15
ENDBRANCH   7   8
BRANCH   4  19
ATOM     19  S   UNL     1      -0.211  11.673  21.752  0.00  0.00    +0.000 S 
ATOM     20  O   UNL     1      -0.420  11.306  23.133  0.00  0.00    +0.000 OA
ATOM     21  O   UNL     1       1.091  12.052  21.251  0.00  0.00    +0.000 OA
BRANCH  19  22
ATOM     22  C   UNL     1      -1.392  12.948  21.271  0.00  0.00    +0.000 C 
BRANCH  22  23
ATOM     23  C   UNL     1      -2.603  13.085  22.189  0.00  0.00    +0.000 C 
ATOM     24  C   UNL     1      -2.825  11.980  23.253  0.00  0.00    +0.000 C 
ATOM     25  C   UNL     1      -3.832  12.626  24.233  0.00  0.00    +0.000 C 
ATOM     26  C   UNL     1      -4.055  14.039  23.640  0.00  0.00    +0.000 C 
ATOM     27  C   UNL     1      -4.957  13.880  22.401  0.00  0.00    +0.000 C 
ATOM     28  C   UNL     1      -3.968  13.183  21.494  0.00  0.00    +0.000 C 
ATOM     29  O   UNL     1      -4.260  12.753  20.394  0.00  0.00    +0.000 OA
ATOM     30  C   UNL     1      -2.664  14.394  23.050  0.00  0.00    +0.000 C 
ATOM     31  C   UNL     1      -2.641  15.707  22.239  0.00  0.00    +0.000 C 
ATOM     32  C   UNL     1      -1.577  14.539  24.137  0.00  0.00    +0.000 C 
ENDBRANCH  22  23
ENDBRANCH  19  22
ENDBRANCH   4  19
TORSDOF 5
ENDMDL
MODEL 4
REMARK VINA RESULT:      -7.3      1.359      2.007
REMARK  Name = 
REMARK  8 active torsions:
REMARK  status: ('A' for Active; 'I' for Inactive)
REMARK    1  A    between atoms: C_1  and  C_2
REMARK    2  A    between atoms: N_4  and  S_5
REMARK    3  A    between atoms: S_5  and  C_8
REMARK    4  A    between atoms: C_8  and  C_9
REMARK    5  A    between atoms: C_16  and  C_17
REMARK    6  A    between atoms: C_16  and  C_18
REMARK    7  A    between atoms: N_21  and  C_22
REMARK    8  A    between atoms: C_25  and  C_26
REMARK                            x       y       z     vdW  Elec       q    Type
REMARK                         _______ _______ _______ _____ _____    ______ ____
ROOT
ATOM      1  C   UNL     1       1.884   9.079  22.331  0.00  0.00    +0.000 C 
ATOM      2  C   UNL     1       0.857   8.500  21.357  0.00  0.00    +0.000 C 
ATOM      3  C   UNL     1      -0.579   9.025  21.614  0.00  0.00    +0.000 C 
ATOM      4  N   UNL     1      -0.867  10.373  21.007  0.00  0.00    +0.000 NA
ATOM      5  C   UNL     1      -0.552  10.349  19.552  0.00  0.00    +0.000 C 
ATOM      6  C   UNL     1       0.913   9.961  19.280  0.00  0.00    +0.000 C 
ATOM      7  N   UNL     1       1.268   8.708  19.951  0.00  0.00    +0.000 N 
ENDROOT
BRANCH   7   8
ATOM      8  C   UNL     1       2.092   7.785  19.336  0.00  0.00    +0.000 A 
ATOM      9  N   UNL     1       2.223   6.573  19.933  0.00  0.00    +0.000 NA
ATOM     10  C   UNL     1       2.934   5.601  19.313  0.00  0.00    +0.000 A 
ATOM     11  C   UNL     1       3.568   5.760  18.090  0.00  0.00    +0.000 A 
ATOM     12  C   UNL     1       3.467   7.014  17.487  0.00  0.00    +0.000 A 
ATOM     13  C   UNL     1       2.732   8.023  18.111  0.00  0.00    +0.000 A 
ATOM     14  F   UNL     1       2.682   9.214  17.498  0.00  0.00    +0.000 F 
BRANCH  11  15
ATOM     15  C   UNL     1       4.325   4.638  17.456  0.00  0.00    +0.000 C 
ATOM     16  F   UNL     1       4.919   4.974  16.277  0.00  0.00    +0.000 F 
ATOM     17  F   UNL     1       5.323   4.168  18.253  0.00  0.00    +0.000 F 
ATOM     18  F   UNL     1       3.530   3.569  17.182  0.00  0.00    +0.000 F 
ENDBRANCH  11  15
ENDBRANCH   7   8
BRANCH   4  19
ATOM     19  S   UNL     1      -0.355  11.734  21.891  0.00  0.00    +0.000 S 
ATOM     20  O   UNL     1      -0.537  11.392  23.281  0.00  0.00    +0.000 OA
ATOM     21  O   UNL     1       0.930  12.138  21.365  0.00  0.00    +0.000 OA
BRANCH  19  22
ATOM     22  C   UNL     1      -1.576  12.964  21.396  0.00  0.00    +0.000 C 
BRANCH  22  23
ATOM     23  C   UNL     1      -2.781  13.087  22.324  0.00  0.00    +0.000 C 
ATOM     24  C   UNL     1      -2.974  11.986  23.398  0.00  0.00    +0.000 C 
ATOM     25  C   UNL     1      -3.984  12.621  24.382  0.00  0.00    +0.000 C 
ATOM     26  C   UNL     1      -4.237  14.026  23.782  0.00  0.00    +0.000 C 
ATOM     27  C   UNL     1      -5.146  13.843  22.552  0.00  0.00    +0.000 C 
ATOM     28  C   UNL     1      -4.154  13.157  21.640  0.00  0.00    +0.000 C 
ATOM     29  O   UNL     1      -4.449  12.714  20.546  0.00  0.00    +0.000 OA
ATOM     30  C   UNL     1      -2.857  14.400  23.177  0.00  0.00    +0.000 C 
ATOM     31  C   UNL     1      -2.864  15.708  22.357  0.00  0.00    +0.000 C 
ATOM     32  C   UNL     1      -1.763  14.571  24.252  0.00  0.00    +0.000 C 
ENDBRANCH  22  23
ENDBRANCH  19  22
ENDBRANCH   4  19
TORSDOF 5
ENDMDL
MODEL 5
REMARK VINA RESULT:      -7.0      1.677      2.230
REMARK  Name = 
REMARK  8 active torsions:
REMARK  status: ('A' for Active; 'I' for Inactive)
REMARK    1  A    between atoms: C_1  and  C_2
REMARK    2  A    between atoms: N_4  and  S_5
REMARK    3  A    between atoms: S_5  and  C_8
REMARK    4  A    between atoms: C_8  and  C_9
REMARK    5  A    between atoms: C_16  and  C_17
REMARK    6  A    between atoms: C_16  and  C_18
REMARK    7  A    between atoms: N_21  and  C_22
REMARK    8  A    between atoms: C_25  and  C_26
REMARK                            x       y       z     vdW  Elec       q    Type
REMARK                         _______ _______ _______ _____ _____    ______ ____
ROOT
ATOM      1  C   UNL     1       0.747   9.361  22.411  0.00  0.00    +0.000 C 
ATOM      2  C   UNL     1       0.039   9.319  21.057  0.00  0.00    +0.000 C 
ATOM      3  C   UNL     1      -1.237  10.200  21.017  0.00  0.00    +0.000 C 
ATOM      4  N   UNL     1      -0.977  11.661  20.758  0.00  0.00    +0.000 NA
ATOM      5  C   UNL     1      -0.173  11.816  19.514  0.00  0.00    +0.000 C 
ATOM      6  C   UNL     1       1.165  11.058  19.587  0.00  0.00    +0.000 C 
ATOM      7  N   UNL     1       0.964   9.653  19.952  0.00  0.00    +0.000 N 
ENDROOT
BRANCH   7   8
ATOM      8  C   UNL     1       1.725   8.656  19.372  0.00  0.00    +0.000 A 
ATOM      9  N   UNL     1       1.958   7.542  20.113  0.00  0.00    +0.000 NA
ATOM     10  C   UNL     1       2.608   6.495  19.549  0.00  0.00    +0.000 A 
ATOM     11  C   UNL     1       3.079   6.482  18.246  0.00  0.00    +0.000 A 
ATOM     12  C   UNL     1       2.874   7.636  17.490  0.00  0.00    +0.000 A 
ATOM     13  C   UNL     1       2.200   8.720  18.055  0.00  0.00    +0.000 A 
ATOM     14  F   UNL     1       2.046   9.812  17.292  0.00  0.00    +0.000 F 
BRANCH  11  15
ATOM     15  C   UNL     1       3.775   5.285  17.684  0.00  0.00    +0.000 C 
ATOM     16  F   UNL     1       4.590   4.655  18.575  0.00  0.00    +0.000 F 
ATOM     17  F   UNL     1       2.904   4.336  17.243  0.00  0.00    +0.000 F 
ATOM     18  F   UNL     1       4.560   5.596  16.617  0.00  0.00    +0.000 F 
ENDBRANCH  11  15
ENDBRANCH   7   8
BRANCH   4  19
ATOM     19  S   UNL     1      -0.527  12.606  22.099  0.00  0.00    +0.000 S 
ATOM     20  O   UNL     1      -0.673  11.750  23.252  0.00  0.00    +0.000 OA
ATOM     21  O   UNL     1       0.727  13.249  21.778  0.00  0.00    +0.000 OA
BRANCH  19  22
ATOM     22  C   UNL     1      -1.819  13.864  22.101  0.00  0.00    +0.000 C 
BRANCH  22  23
ATOM     23  C   UNL     1      -3.142  13.429  22.724  0.00  0.00    +0.000 C 
ATOM     24  C   UNL     1      -3.108  12.248  23.726  0.00  0.00    +0.000 C 
ATOM     25  C   UNL     1      -4.472  12.353  24.448  0.00  0.00    +0.000 C 
ATOM     26  C   UNL     1      -5.125  13.600  23.802  0.00  0.00    +0.000 C 
ATOM     27  C   UNL     1      -5.602  13.192  22.395  0.00  0.00    +0.000 C 
ATOM     28  C   UNL     1      -4.249  13.026  21.740  0.00  0.00    +0.000 C 
ATOM     29  O   UNL     1      -4.103  12.604  20.609  0.00  0.00    +0.000 OA
ATOM     30  C   UNL     1      -3.911  14.530  23.533  0.00  0.00    +0.000 C 
ATOM     31  C   UNL     1      -4.260  15.802  22.731  0.00  0.00    +0.000 C 
ATOM     32  C   UNL     1      -3.232  15.012  24.832  0.00  0.00    +0.000 C 
ENDBRANCH  22  23
ENDBRANCH  19  22
ENDBRANCH   4  19
TORSDOF 5
ENDMDL
MODEL 6
REMARK VINA RESULT:      -6.9      1.706      2.251
REMARK  Name = 
REMARK  8 active torsions:
REMARK  status: ('A' for Active; 'I' for Inactive)
REMARK    1  A    between atoms: C_1  and  C_2
REMARK    2  A    between atoms: N_4  and  S_5
REMARK    3  A    between atoms: S_5  and  C_8
REMARK    4  A    between atoms: C_8  and  C_9
REMARK    5  A    between atoms: C_16  and  C_17
REMARK    6  A    between atoms: C_16  and  C_18
REMARK    7  A    between atoms: N_21  and  C_22
REMARK    8  A    between atoms: C_25  and  C_26
REMARK                            x       y       z     vdW  Elec       q    Type
REMARK                         _______ _______ _______ _____ _____    ______ ____
ROOT
ATOM      1  C   UNL     1      -0.990  10.213  20.758  0.00  0.00    +0.000 C 
ATOM      2  C   UNL     1      -0.518  10.561  19.346  0.00  0.00    +0.000 C 
ATOM      3  C   UNL     1      -1.047  11.934  18.857  0.00  0.00    +0.000 C 
ATOM      4  N   UNL     1      -0.248  13.116  19.339  0.00  0.00    +0.000 NA
ATOM      5  C   UNL     1       1.187  12.932  18.988  0.00  0.00    +0.000 C 
ATOM      6  C   UNL     1       1.770  11.637  19.582  0.00  0.00    +0.000 C 
ATOM      7  N   UNL     1       0.954  10.472  19.230  0.00  0.00    +0.000 N 
ENDROOT
BRANCH   7   8
ATOM      8  C   UNL     1       1.544   9.261  18.925  0.00  0.00    +0.000 A 
ATOM      9  N   UNL     1       1.974   9.082  17.649  0.00  0.00    +0.000 NA
ATOM     10  C   UNL     1       2.654   7.954  17.330  0.00  0.00    +0.000 A 
ATOM     11  C   UNL     1       2.935   6.935  18.227  0.00  0.00    +0.000 A 
ATOM     12  C   UNL     1       2.466   7.096  19.531  0.00  0.00    +0.000 A 
ATOM     13  C   UNL     1       1.771   8.256  19.875  0.00  0.00    +0.000 A 
ATOM     14  F   UNL     1       1.326   8.352  21.137  0.00  0.00    +0.000 F 
BRANCH  11  15
ATOM     15  C   UNL     1       3.704   5.723  17.808  0.00  0.00    +0.000 C 
ATOM     16  F   UNL     1       4.396   5.136  18.823  0.00  0.00    +0.000 F 
ATOM     17  F   UNL     1       2.901   4.750  17.295  0.00  0.00    +0.000 F 
ATOM     18  F   UNL     1       4.620   6.000  16.842  0.00  0.00    +0.000 F 
ENDBRANCH  11  15
ENDBRANCH   7   8
BRANCH   4  19
ATOM     19  S   UNL     1      -0.599  13.688  20.902  0.00  0.00    +0.000 S 
ATOM     20  O   UNL     1       0.189  12.882  21.804  0.00  0.00    +0.000 OA
ATOM     21  O   UNL     1      -0.493  15.129  20.874  0.00  0.00    +0.000 OA
BRANCH  19  22
ATOM     22  C   UNL     1      -2.343  13.256  21.060  0.00  0.00    +0.000 C 
BRANCH  22  23
ATOM     23  C   UNL     1      -2.958  13.541  22.427  0.00  0.00    +0.000 C 
ATOM     24  C   UNL     1      -2.343  14.691  23.264  0.00  0.00    +0.000 C 
ATOM     25  C   UNL     1      -3.423  14.969  24.335  0.00  0.00    +0.000 C 
ATOM     26  C   UNL     1      -4.550  13.969  23.978  0.00  0.00    +0.000 C 
ATOM     27  C   UNL     1      -4.084  12.571  24.429  0.00  0.00    +0.000 C 
ATOM     28  C   UNL     1      -2.985  12.363  23.412  0.00  0.00    +0.000 C 
ATOM     29  O   UNL     1      -2.235  11.405  23.426  0.00  0.00    +0.000 OA
ATOM     30  C   UNL     1      -4.482  13.906  22.428  0.00  0.00    +0.000 C 
ATOM     31  C   UNL     1      -5.407  12.840  21.802  0.00  0.00    +0.000 C 
ATOM     32  C   UNL     1      -4.856  15.247  21.762  0.00  0.00    +0.000 C 
ENDBRANCH  22  23
ENDBRANCH  19  22
ENDBRANCH   4  19
TORSDOF 5
ENDMDL
MODEL 7
REMARK VINA RESULT:      -6.9      2.242      3.332
REMARK  Name = 
REMARK  8 active torsions:
REMARK  status: ('A' for Active; 'I' for Inactive)
REMARK    1  A    between atoms: C_1  and  C_2
REMARK    2  A    between atoms: N_4  and  S_5
REMARK    3  A    between atoms: S_5  and  C_8
REMARK    4  A    between atoms: C_8  and  C_9
REMARK    5  A    between atoms: C_16  and  C_17
REMARK    6  A    between atoms: C_16  and  C_18
REMARK    7  A    between atoms: N_21  and  C_22
REMARK    8  A    between atoms: C_25  and  C_26
REMARK                            x       y       z     vdW  Elec       q    Type
REMARK                         _______ _______ _______ _____ _____    ______ ____
ROOT
ATOM      1  C   UNL     1      -1.718  10.269  18.853  0.00  0.00    +0.000 C 
ATOM      2  C   UNL     1      -0.372  10.990  18.776  0.00  0.00    +0.000 C 
ATOM      3  C   UNL     1      -0.504  12.528  18.927  0.00  0.00    +0.000 C 
ATOM      4  N   UNL     1      -0.600  13.008  20.351  0.00  0.00    +0.000 NA
ATOM      5  C   UNL     1       0.550  12.483  21.139  0.00  0.00    +0.000 C 
ATOM      6  C   UNL     1       0.619  10.945  21.114  0.00  0.00    +0.000 C 
ATOM      7  N   UNL     1       0.599  10.431  19.742  0.00  0.00    +0.000 N 
ENDROOT
BRANCH   7   8
ATOM      8  C   UNL     1       1.374   9.345  19.383  0.00  0.00    +0.000 A 
ATOM      9  N   UNL     1       1.430   8.305  20.254  0.00  0.00    +0.000 NA
ATOM     10  C   UNL     1       2.089   7.177  19.899  0.00  0.00    +0.000 A 
ATOM     11  C   UNL     1       2.742   7.006  18.688  0.00  0.00    +0.000 A 
ATOM     12  C   UNL     1       2.718   8.083  17.801  0.00  0.00    +0.000 A 
ATOM     13  C   UNL     1       2.037   9.249  18.152  0.00  0.00    +0.000 A 
ATOM     14  F   UNL     1       2.060  10.261  17.271  0.00  0.00    +0.000 F 
BRANCH  11  15
ATOM     15  C   UNL     1       3.439   5.726  18.355  0.00  0.00    +0.000 C 
ATOM     16  F   UNL     1       3.849   5.645  17.059  0.00  0.00    +0.000 F 
ATOM     17  F   UNL     1       4.555   5.529  19.110  0.00  0.00    +0.000 F 
ATOM     18  F   UNL     1       2.649   4.638  18.565  0.00  0.00    +0.000 F 
ENDBRANCH  11  15
ENDBRANCH   7   8
BRANCH   4  19
ATOM     19  S   UNL     1      -2.137  12.938  21.078  0.00  0.00    +0.000 S 
ATOM     20  O   UNL     1      -3.088  13.000  19.995  0.00  0.00    +0.000 OA
ATOM     21  O   UNL     1      -2.124  11.845  22.023  0.00  0.00    +0.000 OA
BRANCH  19  22
ATOM     22  C   UNL     1      -2.165  14.483  22.008  0.00  0.00    +0.000 C 
BRANCH  22  23
ATOM     23  C   UNL     1      -3.530  14.878  22.562  0.00  0.00    +0.000 C 
ATOM     24  C   UNL     1      -4.560  13.746  22.804  0.00  0.00    +0.000 C 
ATOM     25  C   UNL     1      -5.612  14.412  23.722  0.00  0.00    +0.000 C 
ATOM     26  C   UNL     1      -5.056  15.842  23.929  0.00  0.00    +0.000 C 
ATOM     27  C   UNL     1      -5.308  16.625  22.627  0.00  0.00    +0.000 C 
ATOM     28  C   UNL     1      -4.321  15.904  21.737  0.00  0.00    +0.000 C 
ATOM     29  O   UNL     1      -4.222  16.114  20.543  0.00  0.00    +0.000 OA
ATOM     30  C   UNL     1      -3.519  15.620  23.943  0.00  0.00    +0.000 C 
ATOM     31  C   UNL     1      -2.696  16.926  23.973  0.00  0.00    +0.000 C 
ATOM     32  C   UNL     1      -3.051  14.786  25.154  0.00  0.00    +0.000 C 
ENDBRANCH  22  23
ENDBRANCH  19  22
ENDBRANCH   4  19
TORSDOF 5
ENDMDL
MODEL 8
REMARK VINA RESULT:      -6.9      1.999      3.248
REMARK  Name = 
REMARK  8 active torsions:
REMARK  status: ('A' for Active; 'I' for Inactive)
REMARK    1  A    between atoms: C_1  and  C_2
REMARK    2  A    between atoms: N_4  and  S_5
REMARK    3  A    between atoms: S_5  and  C_8
REMARK    4  A    between atoms: C_8  and  C_9
REMARK    5  A    between atoms: C_16  and  C_17
REMARK    6  A    between atoms: C_16  and  C_18
REMARK    7  A    between atoms: N_21  and  C_22
REMARK    8  A    between atoms: C_25  and  C_26
REMARK                            x       y       z     vdW  Elec       q    Type
REMARK                         _______ _______ _______ _____ _____    ______ ____
ROOT
ATOM      1  C   UNL     1      -0.073   9.629  17.746  0.00  0.00    +0.000 C 
ATOM      2  C   UNL     1       1.233   9.871  18.503  0.00  0.00    +0.000 C 
ATOM      3  C   UNL     1       1.423  11.353  18.917  0.00  0.00    +0.000 C 
ATOM      4  N   UNL     1       0.701  11.744  20.180  0.00  0.00    +0.000 NA
ATOM      5  C   UNL     1       1.081  10.820  21.284  0.00  0.00    +0.000 C 
ATOM      6  C   UNL     1       0.774   9.350  20.946  0.00  0.00    +0.000 C 
ATOM      7  N   UNL     1       1.364   8.961  19.662  0.00  0.00    +0.000 N 
ENDROOT
BRANCH   7   8
ATOM      8  C   UNL     1       1.917   7.708  19.489  0.00  0.00    +0.000 A 
ATOM      9  N   UNL     1       1.677   6.783  20.454  0.00  0.00    +0.000 NA
ATOM     10  C   UNL     1       2.108   5.511  20.276  0.00  0.00    +0.000 A 
ATOM     11  C   UNL     1       2.809   5.076  19.162  0.00  0.00    +0.000 A 
ATOM     12  C   UNL     1       3.090   6.028  18.182  0.00  0.00    +0.000 A 
ATOM     13  C   UNL     1       2.646   7.340  18.349  0.00  0.00    +0.000 A 
ATOM     14  F   UNL     1       2.958   8.220  17.386  0.00  0.00    +0.000 F 
BRANCH  11  15
ATOM     15  C   UNL     1       3.242   3.652  19.025  0.00  0.00    +0.000 C 
ATOM     16  F   UNL     1       3.473   3.270  17.739  0.00  0.00    +0.000 F 
ATOM     17  F   UNL     1       4.395   3.391  19.702  0.00  0.00    +0.000 F 
ATOM     18  F   UNL     1       2.318   2.781  19.514  0.00  0.00    +0.000 F 
ENDBRANCH  11  15
ENDBRANCH   7   8
BRANCH   4  19
ATOM     19  S   UNL     1      -0.948  12.136  20.027  0.00  0.00    +0.000 S 
ATOM     20  O   UNL     1      -1.040  13.012  18.883  0.00  0.00    +0.000 OA
ATOM     21  O   UNL     1      -1.699  10.904  20.108  0.00  0.00    +0.000 OA
BRANCH  19  22
ATOM     22  C   UNL     1      -1.237  13.071  21.541  0.00  0.00    +0.000 C 
BRANCH  22  23
ATOM     23  C   UNL     1      -2.636  13.663  21.677  0.00  0.00    +0.000 C 
ATOM     24  C   UNL     1      -3.788  12.963  20.912  0.00  0.00    +0.000 C 
ATOM     25  C   UNL     1      -5.060  13.532  21.584  0.00  0.00    +0.000 C 
ATOM     26  C   UNL     1      -4.498  14.473  22.678  0.00  0.00    +0.000 C 
ATOM     27  C   UNL     1      -3.982  15.742  21.971  0.00  0.00    +0.000 C 
ATOM     28  C   UNL     1      -2.788  15.136  21.270  0.00  0.00    +0.000 C 
ATOM     29  O   UNL     1      -2.093  15.752  20.483  0.00  0.00    +0.000 OA
ATOM     30  C   UNL     1      -3.206  13.745  23.135  0.00  0.00    +0.000 C 
ATOM     31  C   UNL     1      -2.344  14.557  24.125  0.00  0.00    +0.000 C 
ATOM     32  C   UNL     1      -3.497  12.394  23.823  0.00  0.00    +0.000 C 
ENDBRANCH  22  23
ENDBRANCH  19  22
ENDBRANCH   4  19
TORSDOF 5
ENDMDL
MODEL 9
REMARK VINA RESULT:      -6.9      2.171      3.239
REMARK  Name = 
REMARK  8 active torsions:
REMARK  status: ('A' for Active; 'I' for Inactive)
REMARK    1  A    between atoms: C_1  and  C_2
REMARK    2  A    between atoms: N_4  and  S_5
REMARK    3  A    between atoms: S_5  and  C_8
REMARK    4  A    between atoms: C_8  and  C_9
REMARK    5  A    between atoms: C_16  and  C_17
REMARK    6  A    between atoms: C_16  and  C_18
REMARK    7  A    between atoms: N_21  and  C_22
REMARK    8  A    between atoms: C_25  and  C_26
REMARK                            x       y       z     vdW  Elec       q    Type
REMARK                         _______ _______ _______ _____ _____    ______ ____
ROOT
ATOM      1  C   UNL     1      -1.587  10.007  18.723  0.00  0.00    +0.000 C 
ATOM      2  C   UNL     1      -0.234  10.718  18.736  0.00  0.00    +0.000 C 
ATOM      3  C   UNL     1      -0.362  12.253  18.916  0.00  0.00    +0.000 C 
ATOM      4  N   UNL     1      -0.532  12.700  20.345  0.00  0.00    +0.000 NA
ATOM      5  C   UNL     1       0.570  12.147  21.180  0.00  0.00    +0.000 C 
ATOM      6  C   UNL     1       0.629  10.609  21.122  0.00  0.00    +0.000 C 
ATOM      7  N   UNL     1       0.679  10.127  19.739  0.00  0.00    +0.000 N 
ENDROOT
BRANCH   7   8
ATOM      8  C   UNL     1       1.464   9.044  19.396  0.00  0.00    +0.000 A 
ATOM      9  N   UNL     1       1.498   8.001  20.265  0.00  0.00    +0.000 NA
ATOM     10  C   UNL     1       2.168   6.874  19.922  0.00  0.00    +0.000 A 
ATOM     11  C   UNL     1       2.852   6.708  18.728  0.00  0.00    +0.000 A 
ATOM     12  C   UNL     1       2.850   7.788  17.845  0.00  0.00    +0.000 A 
ATOM     13  C   UNL     1       2.158   8.952  18.182  0.00  0.00    +0.000 A 
ATOM     14  F   UNL     1       2.203   9.967  17.306  0.00  0.00    +0.000 F 
BRANCH  11  15
ATOM     15  C   UNL     1       3.558   5.430  18.409  0.00  0.00    +0.000 C 
ATOM     16  F   UNL     1       4.774   5.309  19.011  0.00  0.00    +0.000 F 
ATOM     17  F   UNL     1       2.846   4.333  18.789  0.00  0.00    +0.000 F 
ATOM     18  F   UNL     1       3.785   5.284  17.075  0.00  0.00    +0.000 F 
ENDBRANCH  11  15
ENDBRANCH   7   8
BRANCH   4  19
ATOM     19  S   UNL     1      -2.106  12.627  20.985  0.00  0.00    +0.000 S 
ATOM     20  O   UNL     1      -2.997  12.729  19.855  0.00  0.00    +0.000 OA
ATOM     21  O   UNL     1      -2.155  11.507  21.898  0.00  0.00    +0.000 OA
BRANCH  19  22
ATOM     22  C   UNL     1      -2.170  14.145  21.956  0.00  0.00    +0.000 C 
BRANCH  22  23
ATOM     23  C   UNL     1      -3.564  14.558  22.418  0.00  0.00    +0.000 C 
ATOM     24  C   UNL     1      -4.777  13.910  21.703  0.00  0.00    +0.000 C 
ATOM     25  C   UNL     1      -5.956  14.209  22.659  0.00  0.00    +0.000 C 
ATOM     26  C   UNL     1      -5.285  14.969  23.829  0.00  0.00    +0.000 C 
ATOM     27  C   UNL     1      -4.978  16.395  23.335  0.00  0.00    +0.000 C 
ATOM     28  C   UNL     1      -3.878  16.059  22.354  0.00  0.00    +0.000 C 
ATOM     29  O   UNL     1      -3.365  16.882  21.619  0.00  0.00    +0.000 OA
ATOM     30  C   UNL     1      -3.890  14.296  23.929  0.00  0.00    +0.000 C 
ATOM     31  C   UNL     1      -2.932  14.981  24.928  0.00  0.00    +0.000 C 
ATOM     32  C   UNL     1      -3.973  12.816  24.356  0.00  0.00    +0.000 C 
ENDBRANCH  22  23
ENDBRANCH  19  22
ENDBRANCH   4  19
TORSDOF 5
ENDMDL
