MODEL 1
REMARK VINA RESULT:      -7.7      0.000      0.000
REMARK  Name = 
REMARK  10 active torsions:
REMARK  status: ('A' for Active; 'I' for Inactive)
REMARK    1  A    between atoms: C_1  and  O_2
REMARK    2  A    between atoms: O_2  and  C_3
REMARK    3  A    between atoms: C_8  and  N_9
REMARK    4  A    between atoms: N_9  and  S_10
REMARK    5  A    between atoms: S_10  and  C_13
REMARK    6  A    between atoms: C_17  and  C_18
REMARK    7  A    between atoms: N_20  and  C_21
REMARK    8  A    between atoms: C_21  and  C_22
REMARK    9  A    between atoms: C_22  and  C_23
REMARK   10  A    between atoms: C_22  and  N_28
REMARK                            x       y       z     vdW  Elec       q    Type
REMARK                         _______ _______ _______ _____ _____    ______ ____
ROOT
ATOM      1  C   UNL     1       2.093   7.522  19.200  0.00  0.00    +0.000 A 
ATOM      2  C   UNL     1       2.077   8.297  18.033  0.00  0.00    +0.000 A 
ATOM      3  C   UNL     1       1.603   9.605  18.090  0.00  0.00    +0.000 A 
ATOM      4  C   UNL     1       1.133  10.134  19.296  0.00  0.00    +0.000 A 
ATOM      5  C   UNL     1       1.129   9.345  20.459  0.00  0.00    +0.000 A 
ATOM      6  C   UNL     1       1.620   8.042  20.409  0.00  0.00    +0.000 A 
ENDROOT
BRANCH   5   7
ATOM      7  C   UNL     1       0.626   9.936  21.730  0.00  0.00    +0.000 C 
ATOM      8  O   UNL     1       1.223   9.719  22.778  0.00  0.00    +0.000 OA
ATOM      9  N   UNL     1      -0.512  10.716  21.646  0.00  0.00    +0.000 N 
ATOM     10  H   UNL     1      -0.816  11.061  20.744  0.00  0.00    +0.000 HD
BRANCH   9  11
ATOM     11  C   UNL     1      -1.051  11.365  22.836  0.00  0.00    +0.000 C 
BRANCH  11  12
ATOM     12  C   UNL     1      -1.107  12.923  22.768  0.00  0.00    +0.000 C 
BRANCH  12  13
ATOM     13  C   UNL     1      -0.278  13.460  21.629  0.00  0.00    +0.000 A 
ATOM     14  C   UNL     1       0.955  14.078  21.539  0.00  0.00    +0.000 A 
ATOM     15  C   UNL     1       1.189  14.315  20.163  0.00  0.00    +0.000 A 
ATOM     16  C   UNL     1       0.079  13.854  19.499  0.00  0.00    +0.000 A 
ATOM     17  O   UNL     1      -0.822  13.351  20.378  0.00  0.00    +0.000 OA
ENDBRANCH  12  13
BRANCH  12  18
ATOM     18  N   UNL     1      -2.511  13.405  22.791  0.00  0.00    +0.000 NA
ATOM     19  C   UNL     1      -2.770  14.632  23.548  0.00  0.00    +0.000 C 
ATOM     20  C   UNL     1      -3.361  14.188  24.869  0.00  0.00    +0.000 C 
ATOM     21  C   UNL     1      -4.147  12.946  24.508  0.00  0.00    +0.000 C 
ATOM     22  C   UNL     1      -3.497  12.409  23.235  0.00  0.00    +0.000 C 
ENDBRANCH  12  18
ENDBRANCH  11  12
ENDBRANCH   9  11
ENDBRANCH   5   7
BRANCH   1  23
ATOM     23  S   UNL     1       2.573   5.812  19.161  0.00  0.00    +0.000 S 
ATOM     24  O   UNL     1       1.877   5.172  18.069  0.00  0.00    +0.000 OA
ATOM     25  O   UNL     1       2.434   5.335  20.521  0.00  0.00    +0.000 OA
BRANCH  23  26
ATOM     26  N   UNL     1       4.233   5.845  18.834  0.00  0.00    +0.000 N 
ATOM     27  H   UNL     1       4.702   6.662  19.222  0.00  0.00    +0.000 HD
BRANCH  26  33
ATOM     28  C   UNL     1       4.930   4.034  17.299  0.00  0.00    +0.000 A 
ATOM     29  C   UNL     1       5.480   3.669  16.065  0.00  0.00    +0.000 A 
ATOM     30  C   UNL     1       5.681   4.623  15.067  0.00  0.00    +0.000 A 
ATOM     31  C   UNL     1       5.367   5.957  15.307  0.00  0.00    +0.000 A 
ATOM     32  C   UNL     1       4.898   6.344  16.560  0.00  0.00    +0.000 A 
ATOM     33  C   UNL     1       4.691   5.393  17.563  0.00  0.00    +0.000 A 
BRANCH  28  35
ATOM     34  C   UNL     1       3.574   2.194  17.877  0.00  0.00    +0.000 C 
ATOM     35  O   UNL     1       4.588   3.123  18.271  0.00  0.00    +0.000 OA
ENDBRANCH  28  35
ENDBRANCH  26  33
ENDBRANCH  23  26
ENDBRANCH   1  23
TORSDOF 9
ENDMDL
MODEL 2
REMARK VINA RESULT:      -7.7      2.664      4.458
REMARK  Name = 
REMARK  10 active torsions:
REMARK  status: ('A' for Active; 'I' for Inactive)
REMARK    1  A    between atoms: C_1  and  O_2
REMARK    2  A    between atoms: O_2  and  C_3
REMARK    3  A    between atoms: C_8  and  N_9
REMARK    4  A    between atoms: N_9  and  S_10
REMARK    5  A    between atoms: S_10  and  C_13
REMARK    6  A    between atoms: C_17  and  C_18
REMARK    7  A    between atoms: N_20  and  C_21
REMARK    8  A    between atoms: C_21  and  C_22
REMARK    9  A    between atoms: C_22  and  C_23
REMARK   10  A    between atoms: C_22  and  N_28
REMARK                            x       y       z     vdW  Elec       q    Type
REMARK                         _______ _______ _______ _____ _____    ______ ____
ROOT
ATOM      1  C   UNL     1       2.479   4.515  18.745  0.00  0.00    +0.000 A 
ATOM      2  C   UNL     1       2.437   4.342  20.135  0.00  0.00    +0.000 A 
ATOM      3  C   UNL     1       2.243   5.452  20.953  0.00  0.00    +0.000 A 
ATOM      4  C   UNL     1       2.109   6.727  20.394  0.00  0.00    +0.000 A 
ATOM      5  C   UNL     1       2.175   6.898  19.001  0.00  0.00    +0.000 A 
ATOM      6  C   UNL     1       2.350   5.787  18.178  0.00  0.00    +0.000 A 
ENDROOT
BRANCH   5   7
ATOM      7  C   UNL     1       2.024   8.266  18.434  0.00  0.00    +0.000 C 
ATOM      8  O   UNL     1       2.679   8.592  17.451  0.00  0.00    +0.000 OA
ATOM      9  N   UNL     1       1.126   9.106  19.066  0.00  0.00    +0.000 N 
ATOM     10  H   UNL     1       0.443   8.718  19.703  0.00  0.00    +0.000 HD
BRANCH   9  11
ATOM     11  C   UNL     1       0.887  10.451  18.553  0.00  0.00    +0.000 C 
BRANCH  11  12
ATOM     12  C   UNL     1       0.748  11.557  19.645  0.00  0.00    +0.000 C 
BRANCH  12  13
ATOM     13  C   UNL     1       0.300  10.982  20.965  0.00  0.00    +0.000 A 
ATOM     14  C   UNL     1      -0.863  11.058  21.708  0.00  0.00    +0.000 A 
ATOM     15  C   UNL     1      -0.660  10.261  22.860  0.00  0.00    +0.000 A 
ATOM     16  C   UNL     1       0.618   9.767  22.766  0.00  0.00    +0.000 A 
ATOM     17  O   UNL     1       1.214  10.212  21.633  0.00  0.00    +0.000 OA
ENDBRANCH  12  13
BRANCH  12  18
ATOM     18  N   UNL     1       1.976  12.387  19.718  0.00  0.00    +0.000 NA
ATOM     19  C   UNL     1       1.906  13.589  20.553  0.00  0.00    +0.000 C 
ATOM     20  C   UNL     1       1.704  14.748  19.599  0.00  0.00    +0.000 C 
ATOM     21  C   UNL     1       2.466  14.326  18.362  0.00  0.00    +0.000 C 
ATOM     22  C   UNL     1       2.518  12.801  18.415  0.00  0.00    +0.000 C 
ENDBRANCH  12  18
ENDBRANCH  11  12
ENDBRANCH   9  11
ENDBRANCH   5   7
BRANCH   1  23
ATOM     23  S   UNL     1       2.845   3.155  17.662  0.00  0.00    +0.000 S 
ATOM     24  O   UNL     1       2.518   3.551  16.312  0.00  0.00    +0.000 OA
ATOM     25  O   UNL     1       2.233   1.993  18.271  0.00  0.00    +0.000 OA
BRANCH  23  26
ATOM     26  N   UNL     1       4.518   2.940  17.801  0.00  0.00    +0.000 N 
ATOM     27  H   UNL     1       4.775   2.215  18.469  0.00  0.00    +0.000 HD
BRANCH  26  33
ATOM     28  C   UNL     1       5.853   4.595  16.535  0.00  0.00    +0.000 A 
ATOM     29  C   UNL     1       6.763   5.659  16.564  0.00  0.00    +0.000 A 
ATOM     30  C   UNL     1       7.091   6.281  17.769  0.00  0.00    +0.000 A 
ATOM     31  C   UNL     1       6.539   5.823  18.961  0.00  0.00    +0.000 A 
ATOM     32  C   UNL     1       5.698   4.713  18.954  0.00  0.00    +0.000 A 
ATOM     33  C   UNL     1       5.362   4.086  17.750  0.00  0.00    +0.000 A 
BRANCH  28  35
ATOM     34  C   UNL     1       6.352   3.995  14.310  0.00  0.00    +0.000 C 
ATOM     35  O   UNL     1       5.392   4.028  15.371  0.00  0.00    +0.000 OA
ENDBRANCH  28  35
ENDBRANCH  26  33
ENDBRANCH  23  26
ENDBRANCH   1  23
TORSDOF 9
ENDMDL
MODEL 3
REMARK VINA RESULT:      -7.6      2.000     10.501
REMARK  Name = 
REMARK  10 active torsions:
REMARK  status: ('A' for Active; 'I' for Inactive)
REMARK    1  A    between atoms: C_1  and  O_2
REMARK    2  A    between atoms: O_2  and  C_3
REMARK    3  A    between atoms: C_8  and  N_9
REMARK    4  A    between atoms: N_9  and  S_10
REMARK    5  A    between atoms: S_10  and  C_13
REMARK    6  A    between atoms: C_17  and  C_18
REMARK    7  A    between atoms: N_20  and  C_21
REMARK    8  A    between atoms: C_21  and  C_22
REMARK    9  A    between atoms: C_22  and  C_23
REMARK   10  A    between atoms: C_22  and  N_28
REMARK                            x       y       z     vdW  Elec       q    Type
REMARK                         _______ _______ _______ _____ _____    ______ ____
ROOT
ATOM      1  C   UNL     1       0.660  10.304  20.384  0.00  0.00    +0.000 A 
ATOM      2  C   UNL     1       0.641  10.746  19.055  0.00  0.00    +0.000 A 
ATOM      3  C   UNL     1       1.118   9.906  18.052  0.00  0.00    +0.000 A 
ATOM      4  C   UNL     1       1.625   8.642  18.371  0.00  0.00    +0.000 A 
ATOM      5  C   UNL     1       1.662   8.213  19.708  0.00  0.00    +0.000 A 
ATOM      6  C   UNL     1       1.169   9.044  20.712  0.00  0.00    +0.000 A 
ENDROOT
BRANCH   5   7
ATOM      7  C   UNL     1       2.203   6.861  20.018  0.00  0.00    +0.000 C 
ATOM      8  O   UNL     1       1.579   6.112  20.760  0.00  0.00    +0.000 OA
ATOM      9  N   UNL     1       3.408   6.523  19.430  0.00  0.00    +0.000 N 
ATOM     10  H   UNL     1       3.751   7.064  18.647  0.00  0.00    +0.000 HD
BRANCH   9  11
ATOM     11  C   UNL     1       3.991   5.204  19.648  0.00  0.00    +0.000 C 
BRANCH  11  12
ATOM     12  C   UNL     1       4.013   4.278  18.392  0.00  0.00    +0.000 C 
BRANCH  12  13
ATOM     13  C   UNL     1       5.335   4.349  17.671  0.00  0.00    +0.000 A 
ATOM     14  C   UNL     1       5.716   4.298  16.344  0.00  0.00    +0.000 A 
ATOM     15  C   UNL     1       7.123   4.452  16.321  0.00  0.00    +0.000 A 
ATOM     16  C   UNL     1       7.520   4.561  17.631  0.00  0.00    +0.000 A 
ATOM     17  O   UNL     1       6.448   4.483  18.457  0.00  0.00    +0.000 OA
ENDBRANCH  12  13
BRANCH  12  18
ATOM     18  N   UNL     1       3.572   2.903  18.739  0.00  0.00    +0.000 NA
ATOM     19  C   UNL     1       2.542   2.310  17.883  0.00  0.00    +0.000 C 
ATOM     20  C   UNL     1       1.239   2.449  18.641  0.00  0.00    +0.000 C 
ATOM     21  C   UNL     1       1.656   2.321  20.090  0.00  0.00    +0.000 C 
ATOM     22  C   UNL     1       3.126   2.732  20.129  0.00  0.00    +0.000 C 
ENDBRANCH  12  18
ENDBRANCH  11  12
ENDBRANCH   9  11
ENDBRANCH   5   7
BRANCH   1  23
ATOM     23  S   UNL     1       0.178  11.378  21.715  0.00  0.00    +0.000 S 
ATOM     24  O   UNL     1       1.035  12.540  21.691  0.00  0.00    +0.000 OA
ATOM     25  O   UNL     1       0.091  10.534  22.888  0.00  0.00    +0.000 OA
BRANCH  23  26
ATOM     26  N   UNL     1      -1.408  11.834  21.338  0.00  0.00    +0.000 N 
ATOM     27  H   UNL     1      -1.541  12.043  20.349  0.00  0.00    +0.000 HD
BRANCH  26  33
ATOM     28  C   UNL     1      -2.044  14.050  22.238  0.00  0.00    +0.000 A 
ATOM     29  C   UNL     1      -2.690  14.784  23.240  0.00  0.00    +0.000 A 
ATOM     30  C   UNL     1      -3.498  14.144  24.180  0.00  0.00    +0.000 A 
ATOM     31  C   UNL     1      -3.639  12.760  24.149  0.00  0.00    +0.000 A 
ATOM     32  C   UNL     1      -2.934  12.013  23.209  0.00  0.00    +0.000 A 
ATOM     33  C   UNL     1      -2.126  12.647  22.261  0.00  0.00    +0.000 A 
BRANCH  28  35
ATOM     34  C   UNL     1      -2.043  15.687  20.542  0.00  0.00    +0.000 C 
ATOM     35  O   UNL     1      -1.343  14.633  21.209  0.00  0.00    +0.000 OA
ENDBRANCH  28  35
ENDBRANCH  26  33
ENDBRANCH  23  26
ENDBRANCH   1  23
TORSDOF 9
ENDMDL
MODEL 4
REMARK VINA RESULT:      -7.6      3.212     10.078
REMARK  Name = 
REMARK  10 active torsions:
REMARK  status: ('A' for Active; 'I' for Inactive)
REMARK    1  A    between atoms: C_1  and  O_2
REMARK    2  A    between atoms: O_2  and  C_3
REMARK    3  A    between atoms: C_8  and  N_9
REMARK    4  A    between atoms: N_9  and  S_10
REMARK    5  A    between atoms: S_10  and  C_13
REMARK    6  A    between atoms: C_17  and  C_18
REMARK    7  A    between atoms: N_20  and  C_21
REMARK    8  A    between atoms: C_21  and  C_22
REMARK    9  A    between atoms: C_22  and  C_23
REMARK   10  A    between atoms: C_22  and  N_28
REMARK                            x       y       z     vdW  Elec       q    Type
REMARK                         _______ _______ _______ _____ _____    ______ ____
ROOT
ATOM      1  C   UNL     1      -0.001  10.766  20.338  0.00  0.00    +0.000 A 
ATOM      2  C   UNL     1      -0.071  10.148  21.593  0.00  0.00    +0.000 A 
ATOM      3  C   UNL     1       0.606   8.949  21.800  0.00  0.00    +0.000 A 
ATOM      4  C   UNL     1       1.334   8.360  20.761  0.00  0.00    +0.000 A 
ATOM      5  C   UNL     1       1.381   8.972  19.497  0.00  0.00    +0.000 A 
ATOM      6  C   UNL     1       0.721  10.182  19.292  0.00  0.00    +0.000 A 
ENDROOT
BRANCH   5   7
ATOM      7  C   UNL     1       2.167   8.325  18.411  0.00  0.00    +0.000 C 
ATOM      8  O   UNL     1       2.195   8.832  17.295  0.00  0.00    +0.000 OA
ATOM      9  N   UNL     1       2.839   7.161  18.737  0.00  0.00    +0.000 N 
ATOM     10  H   UNL     1       2.985   6.925  19.710  0.00  0.00    +0.000 HD
BRANCH   9  11
ATOM     11  C   UNL     1       3.664   6.483  17.744  0.00  0.00    +0.000 C 
BRANCH  11  12
ATOM     12  C   UNL     1       4.593   5.365  18.313  0.00  0.00    +0.000 C 
BRANCH  12  13
ATOM     13  C   UNL     1       3.889   4.033  18.370  0.00  0.00    +0.000 A 
ATOM     14  C   UNL     1       3.971   2.864  17.637  0.00  0.00    +0.000 A 
ATOM     15  C   UNL     1       3.052   1.958  18.217  0.00  0.00    +0.000 A 
ATOM     16  C   UNL     1       2.447   2.631  19.250  0.00  0.00    +0.000 A 
ATOM     17  O   UNL     1       2.933   3.893  19.340  0.00  0.00    +0.000 OA
ENDBRANCH  12  13
BRANCH  12  18
ATOM     18  N   UNL     1       5.896   5.346  17.602  0.00  0.00    +0.000 NA
ATOM     19  C   UNL     1       7.042   4.819  18.347  0.00  0.00    +0.000 C 
ATOM     20  C   UNL     1       7.817   6.028  18.827  0.00  0.00    +0.000 C 
ATOM     21  C   UNL     1       7.610   7.043  17.724  0.00  0.00    +0.000 C 
ATOM     22  C   UNL     1       6.308   6.639  17.037  0.00  0.00    +0.000 C 
ENDBRANCH  12  18
ENDBRANCH  11  12
ENDBRANCH   9  11
ENDBRANCH   5   7
BRANCH   1  23
ATOM     23  S   UNL     1      -0.942  12.231  19.982  0.00  0.00    +0.000 S 
ATOM     24  O   UNL     1      -0.464  12.784  18.737  0.00  0.00    +0.000 OA
ATOM     25  O   UNL     1      -0.930  13.010  21.203  0.00  0.00    +0.000 OA
BRANCH  23  26
ATOM     26  N   UNL     1      -2.529  11.677  19.786  0.00  0.00    +0.000 N 
ATOM     27  H   UNL     1      -2.813  11.009  20.502  0.00  0.00    +0.000 HD
BRANCH  26  33
ATOM     28  C   UNL     1      -4.301  11.839  18.066  0.00  0.00    +0.000 A 
ATOM     29  C   UNL     1      -4.754  11.482  16.790  0.00  0.00    +0.000 A 
ATOM     30  C   UNL     1      -3.904  10.842  15.888  0.00  0.00    +0.000 A 
ATOM     31  C   UNL     1      -2.604  10.522  16.264  0.00  0.00    +0.000 A 
ATOM     32  C   UNL     1      -2.170  10.797  17.559  0.00  0.00    +0.000 A 
ATOM     33  C   UNL     1      -3.015  11.441  18.467  0.00  0.00    +0.000 A 
BRANCH  28  35
ATOM     34  C   UNL     1      -6.301  13.034  18.431  0.00  0.00    +0.000 C 
ATOM     35  O   UNL     1      -5.045  12.584  18.950  0.00  0.00    +0.000 OA
ENDBRANCH  28  35
ENDBRANCH  26  33
ENDBRANCH  23  26
ENDBRANCH   1  23
TORSDOF 9
ENDMDL
MODEL 5
REMARK VINA RESULT:      -7.6      2.568      4.057
REMARK  Name = 
REMARK  10 active torsions:
REMARK  status: ('A' for Active; 'I' for Inactive)
REMARK    1  A    between atoms: C_1  and  O_2
REMARK    2  A    between atoms: O_2  and  C_3
REMARK    3  A    between atoms: C_8  and  N_9
REMARK    4  A    between atoms: N_9  and  S_10
REMARK    5  A    between atoms: S_10  and  C_13
REMARK    6  A    between atoms: C_17  and  C_18
REMARK    7  A    between atoms: N_20  and  C_21
REMARK    8  A    between atoms: C_21  and  C_22
REMARK    9  A    between atoms: C_22  and  C_23
REMARK   10  A    between atoms: C_22  and  N_28
REMARK                            x       y       z     vdW  Elec       q    Type
REMARK                         _______ _______ _______ _____ _____    ______ ____
ROOT
ATOM      1  C   UNL     1       2.377   4.579  18.765  0.00  0.00    +0.000 A 
ATOM      2  C   UNL     1       2.198   4.482  20.150  0.00  0.00    +0.000 A 
ATOM      3  C   UNL     1       2.000   5.642  20.894  0.00  0.00    +0.000 A 
ATOM      4  C   UNL     1       1.997   6.892  20.267  0.00  0.00    +0.000 A 
ATOM      5  C   UNL     1       2.200   6.986  18.880  0.00  0.00    +0.000 A 
ATOM      6  C   UNL     1       2.380   5.826  18.130  0.00  0.00    +0.000 A 
ENDROOT
BRANCH   5   7
ATOM      7  C   UNL     1       2.187   8.329  18.238  0.00  0.00    +0.000 C 
ATOM      8  O   UNL     1       2.783   8.504  17.181  0.00  0.00    +0.000 OA
ATOM      9  N   UNL     1       1.482   9.324  18.890  0.00  0.00    +0.000 N 
ATOM     10  H   UNL     1       0.816   9.074  19.610  0.00  0.00    +0.000 HD
BRANCH   9  11
ATOM     11  C   UNL     1       1.384  10.659  18.312  0.00  0.00    +0.000 C 
BRANCH  11  12
ATOM     12  C   UNL     1       0.259  11.557  18.913  0.00  0.00    +0.000 C 
BRANCH  12  13
ATOM     13  C   UNL     1      -1.092  11.216  18.337  0.00  0.00    +0.000 A 
ATOM     14  C   UNL     1      -2.263  11.921  18.136  0.00  0.00    +0.000 A 
ATOM     15  C   UNL     1      -3.172  11.028  17.519  0.00  0.00    +0.000 A 
ATOM     16  C   UNL     1      -2.515   9.828  17.404  0.00  0.00    +0.000 A 
ATOM     17  O   UNL     1      -1.262   9.925  17.912  0.00  0.00    +0.000 OA
ENDBRANCH  12  13
BRANCH  12  18
ATOM     18  N   UNL     1       0.316  11.557  20.396  0.00  0.00    +0.000 NA
ATOM     19  C   UNL     1      -0.962  11.429  21.101  0.00  0.00    +0.000 C 
ATOM     20  C   UNL     1      -1.331  12.826  21.551  0.00  0.00    +0.000 C 
ATOM     21  C   UNL     1       0.008  13.473  21.834  0.00  0.00    +0.000 C 
ATOM     22  C   UNL     1       1.019  12.706  20.986  0.00  0.00    +0.000 C 
ENDBRANCH  12  18
ENDBRANCH  11  12
ENDBRANCH   9  11
ENDBRANCH   5   7
BRANCH   1  23
ATOM     23  S   UNL     1       2.754   3.146  17.785  0.00  0.00    +0.000 S 
ATOM     24  O   UNL     1       2.564   3.486  16.394  0.00  0.00    +0.000 OA
ATOM     25  O   UNL     1       2.027   2.052  18.394  0.00  0.00    +0.000 OA
BRANCH  23  26
ATOM     26  N   UNL     1       4.394   2.851  18.079  0.00  0.00    +0.000 N 
ATOM     27  H   UNL     1       4.553   2.171  18.822  0.00  0.00    +0.000 HD
BRANCH  26  33
ATOM     28  C   UNL     1       5.960   4.287  16.810  0.00  0.00    +0.000 A 
ATOM     29  C   UNL     1       6.927   5.299  16.832  0.00  0.00    +0.000 A 
ATOM     30  C   UNL     1       7.162   6.031  17.996  0.00  0.00    +0.000 A 
ATOM     31  C   UNL     1       6.457   5.736  19.158  0.00  0.00    +0.000 A 
ATOM     32  C   UNL     1       5.553   4.676  19.170  0.00  0.00    +0.000 A 
ATOM     33  C   UNL     1       5.310   3.940  18.006  0.00  0.00    +0.000 A 
BRANCH  28  35
ATOM     34  C   UNL     1       6.164   4.149  14.465  0.00  0.00    +0.000 C 
ATOM     35  O   UNL     1       5.592   3.620  15.665  0.00  0.00    +0.000 OA
ENDBRANCH  28  35
ENDBRANCH  26  33
ENDBRANCH  23  26
ENDBRANCH   1  23
TORSDOF 9
ENDMDL
MODEL 6
REMARK VINA RESULT:      -7.6      2.554     10.225
REMARK  Name = 
REMARK  10 active torsions:
REMARK  status: ('A' for Active; 'I' for Inactive)
REMARK    1  A    between atoms: C_1  and  O_2
REMARK    2  A    between atoms: O_2  and  C_3
REMARK    3  A    between atoms: C_8  and  N_9
REMARK    4  A    between atoms: N_9  and  S_10
REMARK    5  A    between atoms: S_10  and  C_13
REMARK    6  A    between atoms: C_17  and  C_18
REMARK    7  A    between atoms: N_20  and  C_21
REMARK    8  A    between atoms: C_21  and  C_22
REMARK    9  A    between atoms: C_22  and  C_23
REMARK   10  A    between atoms: C_22  and  N_28
REMARK                            x       y       z     vdW  Elec       q    Type
REMARK                         _______ _______ _______ _____ _____    ______ ____
ROOT
ATOM      1  C   UNL     1       1.370   7.770  20.593  0.00  0.00    +0.000 A 
ATOM      2  C   UNL     1       1.218   6.485  21.128  0.00  0.00    +0.000 A 
ATOM      3  C   UNL     1       1.831   5.407  20.495  0.00  0.00    +0.000 A 
ATOM      4  C   UNL     1       2.576   5.603  19.328  0.00  0.00    +0.000 A 
ATOM      5  C   UNL     1       2.705   6.892  18.782  0.00  0.00    +0.000 A 
ATOM      6  C   UNL     1       2.109   7.975  19.424  0.00  0.00    +0.000 A 
ENDROOT
BRANCH   5   7
ATOM      7  C   UNL     1       3.508   7.072  17.541  0.00  0.00    +0.000 C 
ATOM      8  O   UNL     1       3.433   8.123  16.915  0.00  0.00    +0.000 OA
ATOM      9  N   UNL     1       4.314   6.014  17.161  0.00  0.00    +0.000 N 
ATOM     10  H   UNL     1       4.527   5.284  17.829  0.00  0.00    +0.000 HD
BRANCH   9  11
ATOM     11  C   UNL     1       5.163   6.120  15.980  0.00  0.00    +0.000 C 
BRANCH  11  12
ATOM     12  C   UNL     1       6.242   5.001  15.842  0.00  0.00    +0.000 C 
BRANCH  12  13
ATOM     13  C   UNL     1       6.464   4.618  14.401  0.00  0.00    +0.000 A 
ATOM     14  C   UNL     1       5.876   3.710  13.541  0.00  0.00    +0.000 A 
ATOM     15  C   UNL     1       6.530   3.854  12.293  0.00  0.00    +0.000 A 
ATOM     16  C   UNL     1       7.491   4.818  12.471  0.00  0.00    +0.000 A 
ATOM     17  O   UNL     1       7.472   5.275  13.747  0.00  0.00    +0.000 OA
ENDBRANCH  12  13
BRANCH  12  18
ATOM     18  N   UNL     1       7.476   5.361  16.583  0.00  0.00    +0.000 NA
ATOM     19  C   UNL     1       7.757   4.596  17.801  0.00  0.00    +0.000 C 
ATOM     20  C   UNL     1       7.330   5.478  18.955  0.00  0.00    +0.000 C 
ATOM     21  C   UNL     1       7.622   6.878  18.458  0.00  0.00    +0.000 C 
ATOM     22  C   UNL     1       7.591   6.784  16.934  0.00  0.00    +0.000 C 
ENDBRANCH  12  18
ENDBRANCH  11  12
ENDBRANCH   9  11
ENDBRANCH   5   7
BRANCH   1  23
ATOM     23  S   UNL     1       0.513   9.162  21.289  0.00  0.00    +0.000 S 
ATOM     24  O   UNL     1       1.482  10.009  21.943  0.00  0.00    +0.000 OA
ATOM     25  O   UNL     1      -0.610   8.608  22.016  0.00  0.00    +0.000 OA
BRANCH  23  26
ATOM     26  N   UNL     1      -0.138   9.971  19.952  0.00  0.00    +0.000 N 
ATOM     27  H   UNL     1      -0.259   9.368  19.138  0.00  0.00    +0.000 HD
BRANCH  26  33
ATOM     28  C   UNL     1      -0.376  12.411  20.285  0.00  0.00    +0.000 A 
ATOM     29  C   UNL     1       0.006  13.704  19.908  0.00  0.00    +0.000 A 
ATOM     30  C   UNL     1       1.088  13.903  19.050  0.00  0.00    +0.000 A 
ATOM     31  C   UNL     1       1.776  12.810  18.533  0.00  0.00    +0.000 A 
ATOM     32  C   UNL     1       1.352  11.518  18.835  0.00  0.00    +0.000 A 
ATOM     33  C   UNL     1       0.270  11.311  19.696  0.00  0.00    +0.000 A 
BRANCH  28  35
ATOM     34  C   UNL     1      -0.969  12.482  22.566  0.00  0.00    +0.000 C 
ATOM     35  O   UNL     1      -1.347  12.155  21.225  0.00  0.00    +0.000 OA
ENDBRANCH  28  35
ENDBRANCH  26  33
ENDBRANCH  23  26
ENDBRANCH   1  23
TORSDOF 9
ENDMDL
MODEL 7
REMARK VINA RESULT:      -7.6      2.747     10.108
REMARK  Name = 
REMARK  10 active torsions:
REMARK  status: ('A' for Active; 'I' for Inactive)
REMARK    1  A    between atoms: C_1  and  O_2
REMARK    2  A    between atoms: O_2  and  C_3
REMARK    3  A    between atoms: C_8  and  N_9
REMARK    4  A    between atoms: N_9  and  S_10
REMARK    5  A    between atoms: S_10  and  C_13
REMARK    6  A    between atoms: C_17  and  C_18
REMARK    7  A    between atoms: N_20  and  C_21
REMARK    8  A    between atoms: C_21  and  C_22
REMARK    9  A    between atoms: C_22  and  C_23
REMARK   10  A    between atoms: C_22  and  N_28
REMARK                            x       y       z     vdW  Elec       q    Type
REMARK                         _______ _______ _______ _____ _____    ______ ____
ROOT
ATOM      1  C   UNL     1       1.703   7.099  20.338  0.00  0.00    +0.000 A 
ATOM      2  C   UNL     1       1.338   5.989  21.110  0.00  0.00    +0.000 A 
ATOM      3  C   UNL     1       1.756   4.720  20.718  0.00  0.00    +0.000 A 
ATOM      4  C   UNL     1       2.517   4.554  19.557  0.00  0.00    +0.000 A 
ATOM      5  C   UNL     1       2.861   5.668  18.773  0.00  0.00    +0.000 A 
ATOM      6  C   UNL     1       2.461   6.942  19.173  0.00  0.00    +0.000 A 
ENDROOT
BRANCH   5   7
ATOM      7  C   UNL     1       3.676   5.463  17.544  0.00  0.00    +0.000 C 
ATOM      8  O   UNL     1       3.634   4.386  16.960  0.00  0.00    +0.000 OA
ATOM      9  N   UNL     1       4.450   6.529  17.125  0.00  0.00    +0.000 N 
ATOM     10  H   UNL     1       4.263   7.455  17.488  0.00  0.00    +0.000 HD
BRANCH   9  11
ATOM     11  C   UNL     1       5.249   6.428  15.909  0.00  0.00    +0.000 C 
BRANCH  11  12
ATOM     12  C   UNL     1       6.218   5.206  15.857  0.00  0.00    +0.000 C 
BRANCH  12  13
ATOM     13  C   UNL     1       6.426   4.721  14.445  0.00  0.00    +0.000 A 
ATOM     14  C   UNL     1       5.809   3.777  13.646  0.00  0.00    +0.000 A 
ATOM     15  C   UNL     1       6.465   3.818  12.392  0.00  0.00    +0.000 A 
ATOM     16  C   UNL     1       7.456   4.761  12.506  0.00  0.00    +0.000 A 
ATOM     17  O   UNL     1       7.453   5.301  13.750  0.00  0.00    +0.000 OA
ENDBRANCH  12  13
BRANCH  12  18
ATOM     18  N   UNL     1       7.469   5.488  16.604  0.00  0.00    +0.000 NA
ATOM     19  C   UNL     1       7.723   4.667  17.790  0.00  0.00    +0.000 C 
ATOM     20  C   UNL     1       7.337   5.521  18.979  0.00  0.00    +0.000 C 
ATOM     21  C   UNL     1       7.682   6.926  18.534  0.00  0.00    +0.000 C 
ATOM     22  C   UNL     1       7.641   6.891  17.008  0.00  0.00    +0.000 C 
ENDBRANCH  12  18
ENDBRANCH  11  12
ENDBRANCH   9  11
ENDBRANCH   5   7
BRANCH   1  23
ATOM     23  S   UNL     1       1.098   8.725  20.724  0.00  0.00    +0.000 S 
ATOM     24  O   UNL     1       1.968   9.307  21.718  0.00  0.00    +0.000 OA
ATOM     25  O   UNL     1      -0.320   8.567  20.968  0.00  0.00    +0.000 OA
BRANCH  23  26
ATOM     26  N   UNL     1       1.239   9.584  19.272  0.00  0.00    +0.000 N 
ATOM     27  H   UNL     1       2.150  10.025  19.154  0.00  0.00    +0.000 HD
BRANCH  26  33
ATOM     28  C   UNL     1      -0.205  11.594  19.279  0.00  0.00    +0.000 A 
ATOM     29  C   UNL     1      -1.384  12.210  18.845  0.00  0.00    +0.000 A 
ATOM     30  C   UNL     1      -2.176  11.616  17.862  0.00  0.00    +0.000 A 
ATOM     31  C   UNL     1      -1.814  10.383  17.328  0.00  0.00    +0.000 A 
ATOM     32  C   UNL     1      -0.688   9.722  17.813  0.00  0.00    +0.000 A 
ATOM     33  C   UNL     1       0.112  10.313  18.795  0.00  0.00    +0.000 A 
BRANCH  28  35
ATOM     34  C   UNL     1       0.102  12.613  21.382  0.00  0.00    +0.000 C 
ATOM     35  O   UNL     1       0.682  12.188  20.146  0.00  0.00    +0.000 OA
ENDBRANCH  28  35
ENDBRANCH  26  33
ENDBRANCH  23  26
ENDBRANCH   1  23
TORSDOF 9
ENDMDL
MODEL 8
REMARK VINA RESULT:      -7.5      1.225      2.685
REMARK  Name = 
REMARK  10 active torsions:
REMARK  status: ('A' for Active; 'I' for Inactive)
REMARK    1  A    between atoms: C_1  and  O_2
REMARK    2  A    between atoms: O_2  and  C_3
REMARK    3  A    between atoms: C_8  and  N_9
REMARK    4  A    between atoms: N_9  and  S_10
REMARK    5  A    between atoms: S_10  and  C_13
REMARK    6  A    between atoms: C_17  and  C_18
REMARK    7  A    between atoms: N_20  and  C_21
REMARK    8  A    between atoms: C_21  and  C_22
REMARK    9  A    between atoms: C_22  and  C_23
REMARK   10  A    between atoms: C_22  and  N_28
REMARK                            x       y       z     vdW  Elec       q    Type
REMARK                         _______ _______ _______ _____ _____    ______ ____
ROOT
ATOM      1  C   UNL     1       1.960   7.393  19.697  0.00  0.00    +0.000 A 
ATOM      2  C   UNL     1       2.006   8.157  18.524  0.00  0.00    +0.000 A 
ATOM      3  C   UNL     1       1.534   9.467  18.545  0.00  0.00    +0.000 A 
ATOM      4  C   UNL     1       1.005  10.008  19.721  0.00  0.00    +0.000 A 
ATOM      5  C   UNL     1       0.940   9.230  20.890  0.00  0.00    +0.000 A 
ATOM      6  C   UNL     1       1.429   7.925  20.877  0.00  0.00    +0.000 A 
ENDROOT
BRANCH   5   7
ATOM      7  C   UNL     1       0.376   9.834  22.128  0.00  0.00    +0.000 C 
ATOM      8  O   UNL     1       0.967   9.700  23.194  0.00  0.00    +0.000 OA
ATOM      9  N   UNL     1      -0.811  10.530  21.997  0.00  0.00    +0.000 N 
ATOM     10  H   UNL     1      -1.122  10.818  21.078  0.00  0.00    +0.000 HD
BRANCH   9  11
ATOM     11  C   UNL     1      -1.414  11.186  23.151  0.00  0.00    +0.000 C 
BRANCH  11  12
ATOM     12  C   UNL     1      -2.055  12.578  22.858  0.00  0.00    +0.000 C 
BRANCH  12  13
ATOM     13  C   UNL     1      -3.491  12.636  23.314  0.00  0.00    +0.000 A 
ATOM     14  C   UNL     1      -4.140  12.357  24.502  0.00  0.00    +0.000 A 
ATOM     15  C   UNL     1      -5.510  12.645  24.291  0.00  0.00    +0.000 A 
ATOM     16  C   UNL     1      -5.621  13.057  22.986  0.00  0.00    +0.000 A 
ATOM     17  O   UNL     1      -4.408  13.039  22.380  0.00  0.00    +0.000 OA
ENDBRANCH  12  13
BRANCH  12  18
ATOM     18  N   UNL     1      -1.199  13.676  23.372  0.00  0.00    +0.000 NA
ATOM     19  C   UNL     1      -1.890  14.835  23.941  0.00  0.00    +0.000 C 
ATOM     20  C   UNL     1      -1.862  15.904  22.870  0.00  0.00    +0.000 C 
ATOM     21  C   UNL     1      -0.547  15.661  22.161  0.00  0.00    +0.000 C 
ATOM     22  C   UNL     1      -0.215  14.192  22.410  0.00  0.00    +0.000 C 
ENDBRANCH  12  18
ENDBRANCH  11  12
ENDBRANCH   9  11
ENDBRANCH   5   7
BRANCH   1  23
ATOM     23  S   UNL     1       2.435   5.681  19.698  0.00  0.00    +0.000 S 
ATOM     24  O   UNL     1       1.740   5.019  18.619  0.00  0.00    +0.000 OA
ATOM     25  O   UNL     1       2.293   5.235  21.068  0.00  0.00    +0.000 OA
BRANCH  23  26
ATOM     26  N   UNL     1       4.097   5.703  19.374  0.00  0.00    +0.000 N 
ATOM     27  H   UNL     1       4.589   6.455  19.854  0.00  0.00    +0.000 HD
BRANCH  26  33
ATOM     28  C   UNL     1       4.763   4.062  17.646  0.00  0.00    +0.000 A 
ATOM     29  C   UNL     1       5.303   3.828  16.376  0.00  0.00    +0.000 A 
ATOM     30  C   UNL     1       5.513   4.883  15.488  0.00  0.00    +0.000 A 
ATOM     31  C   UNL     1       5.218   6.187  15.874  0.00  0.00    +0.000 A 
ATOM     32  C   UNL     1       4.759   6.440  17.165  0.00  0.00    +0.000 A 
ATOM     33  C   UNL     1       4.543   5.387  18.059  0.00  0.00    +0.000 A 
BRANCH  28  35
ATOM     34  C   UNL     1       3.539   2.069  17.952  0.00  0.00    +0.000 C 
ATOM     35  O   UNL     1       4.412   3.055  18.514  0.00  0.00    +0.000 OA
ENDBRANCH  28  35
ENDBRANCH  26  33
ENDBRANCH  23  26
ENDBRANCH   1  23
TORSDOF 9
ENDMDL
MODEL 9
REMARK VINA RESULT:      -7.5      0.666      1.054
REMARK  Name = 
REMARK  10 active torsions:
REMARK  status: ('A' for Active; 'I' for Inactive)
REMARK    1  A    between atoms: C_1  and  O_2
REMARK    2  A    between atoms: O_2  and  C_3
REMARK    3  A    between atoms: C_8  and  N_9
REMARK    4  A    between atoms: N_9  and  S_10
REMARK    5  A    between atoms: S_10  and  C_13
REMARK    6  A    between atoms: C_17  and  C_18
REMARK    7  A    between atoms: N_20  and  C_21
REMARK    8  A    between atoms: C_21  and  C_22
REMARK    9  A    between atoms: C_22  and  C_23
REMARK   10  A    between atoms: C_22  and  N_28
REMARK                            x       y       z     vdW  Elec       q    Type
REMARK                         _______ _______ _______ _____ _____    ______ ____
ROOT
ATOM      1  C   UNL     1       1.982   7.409  19.647  0.00  0.00    +0.000 A 
ATOM      2  C   UNL     1       2.036   8.179  18.478  0.00  0.00    +0.000 A 
ATOM      3  C   UNL     1       1.566   9.489  18.503  0.00  0.00    +0.000 A 
ATOM      4  C   UNL     1       1.031  10.025  19.679  0.00  0.00    +0.000 A 
ATOM      5  C   UNL     1       0.958   9.241  20.842  0.00  0.00    +0.000 A 
ATOM      6  C   UNL     1       1.444   7.935  20.825  0.00  0.00    +0.000 A 
ENDROOT
BRANCH   5   7
ATOM      7  C   UNL     1       0.387   9.839  22.081  0.00  0.00    +0.000 C 
ATOM      8  O   UNL     1       0.935   9.642  23.159  0.00  0.00    +0.000 OA
ATOM      9  N   UNL     1      -0.756  10.603  21.934  0.00  0.00    +0.000 N 
ATOM     10  H   UNL     1      -1.021  10.934  21.015  0.00  0.00    +0.000 HD
BRANCH   9  11
ATOM     11  C   UNL     1      -1.360  11.258  23.089  0.00  0.00    +0.000 C 
BRANCH  11  12
ATOM     12  C   UNL     1      -1.256  12.815  23.092  0.00  0.00    +0.000 C 
BRANCH  12  13
ATOM     13  C   UNL     1      -0.762  13.342  21.769  0.00  0.00    +0.000 A 
ATOM     14  C   UNL     1       0.295  14.144  21.381  0.00  0.00    +0.000 A 
ATOM     15  C   UNL     1       0.228  14.248  19.971  0.00  0.00    +0.000 A 
ATOM     16  C   UNL     1      -0.876  13.529  19.584  0.00  0.00    +0.000 A 
ATOM     17  O   UNL     1      -1.492  12.991  20.665  0.00  0.00    +0.000 OA
ENDBRANCH  12  13
BRANCH  12  18
ATOM     18  N   UNL     1      -2.520  13.430  23.569  0.00  0.00    +0.000 NA
ATOM     19  C   UNL     1      -3.724  12.598  23.490  0.00  0.00    +0.000 C 
ATOM     20  C   UNL     1      -4.472  13.065  22.259  0.00  0.00    +0.000 C 
ATOM     21  C   UNL     1      -4.166  14.546  22.199  0.00  0.00    +0.000 C 
ATOM     22  C   UNL     1      -2.848  14.722  22.949  0.00  0.00    +0.000 C 
ENDBRANCH  12  18
ENDBRANCH  11  12
ENDBRANCH   9  11
ENDBRANCH   5   7
BRANCH   1  23
ATOM     23  S   UNL     1       2.454   5.696  19.641  0.00  0.00    +0.000 S 
ATOM     24  O   UNL     1       1.760   5.040  18.557  0.00  0.00    +0.000 OA
ATOM     25  O   UNL     1       2.306   5.244  21.008  0.00  0.00    +0.000 OA
BRANCH  23  26
ATOM     26  N   UNL     1       4.115   5.716  19.322  0.00  0.00    +0.000 N 
ATOM     27  H   UNL     1       4.608   6.465  19.806  0.00  0.00    +0.000 HD
BRANCH  26  33
ATOM     28  C   UNL     1       4.818   4.084  17.598  0.00  0.00    +0.000 A 
ATOM     29  C   UNL     1       5.358   3.858  16.327  0.00  0.00    +0.000 A 
ATOM     30  C   UNL     1       5.537   4.914  15.433  0.00  0.00    +0.000 A 
ATOM     31  C   UNL     1       5.209   6.211  15.814  0.00  0.00    +0.000 A 
ATOM     32  C   UNL     1       4.749   6.459  17.106  0.00  0.00    +0.000 A 
ATOM     33  C   UNL     1       4.565   5.405  18.006  0.00  0.00    +0.000 A 
BRANCH  28  35
ATOM     34  C   UNL     1       3.557   2.124  17.958  0.00  0.00    +0.000 C 
ATOM     35  O   UNL     1       4.498   3.073  18.473  0.00  0.00    +0.000 OA
ENDBRANCH  28  35
ENDBRANCH  26  33
ENDBRANCH  23  26
ENDBRANCH   1  23
TORSDOF 9
ENDMDL
