MODEL 1
REMARK VINA RESULT:      -7.0      0.000      0.000
REMARK  Name = 
REMARK  10 active torsions:
REMARK  status: ('A' for Active; 'I' for Inactive)
REMARK    1  A    between atoms: C_1  and  O_2
REMARK    2  A    between atoms: O_2  and  N_3
REMARK    3  A    between atoms: C_4  and  C_5
REMARK    4  A    between atoms: C_4  and  C_10
REMARK    5  A    between atoms: C_5  and  C_6
REMARK    6  A    between atoms: N_7  and  O_8
REMARK    7  A    between atoms: O_8  and  C_9
REMARK    8  A    between atoms: C_13  and  C_14
REMARK    9  A    between atoms: C_14  and  C_15
REMARK   10  A    between atoms: C_14  and  C_16
REMARK                            x       y       z     vdW  Elec       q    Type
REMARK                         _______ _______ _______ _____ _____    ______ ____
ROOT
ATOM      1  N   UNL     1       7.841   4.500  16.959  0.00  0.00    +0.000 NA
ATOM      2  C   UNL     1       6.715   4.559  16.294  0.00  0.00    +0.000 C 
ENDROOT
BRANCH   2   3
ATOM      3  C   UNL     1       5.328   4.411  16.853  0.00  0.00    +0.000 A 
ATOM      4  C   UNL     1       4.780   3.144  17.093  0.00  0.00    +0.000 A 
ATOM      5  C   UNL     1       3.506   3.012  17.660  0.00  0.00    +0.000 A 
ATOM      6  C   UNL     1       2.738   4.139  17.986  0.00  0.00    +0.000 A 
ATOM      7  C   UNL     1       3.276   5.402  17.720  0.00  0.00    +0.000 A 
ATOM      8  C   UNL     1       4.560   5.533  17.191  0.00  0.00    +0.000 A 
BRANCH   6   9
ATOM      9  C   UNL     1       1.389   3.987  18.658  0.00  0.00    +0.000 C 
ATOM     10  C   UNL     1       0.929   2.528  18.640  0.00  0.00    +0.000 C 
ATOM     11  C   UNL     1       1.382   4.522  20.090  0.00  0.00    +0.000 C 
ENDBRANCH   6   9
ENDBRANCH   2   3
BRANCH   1  13
ATOM     12  C   UNL     1       7.907   5.646  18.967  0.00  0.00    +0.000 C 
ATOM     13  O   UNL     1       7.648   4.400  18.342  0.00  0.00    +0.000 OA
ENDBRANCH   1  13
BRANCH   2  14
ATOM     14  C   UNL     1       6.852   4.809  14.793  0.00  0.00    +0.000 C 
BRANCH  14  15
ATOM     15  C   UNL     1       5.959   3.946  13.949  0.00  0.00    +0.000 C 
ATOM     16  N   UNL     1       6.160   3.826  12.676  0.00  0.00    +0.000 NA
BRANCH  16  17
ATOM     17  O   UNL     1       5.192   2.954  12.149  0.00  0.00    +0.000 OA
ATOM     18  C   UNL     1       5.854   1.885  11.485  0.00  0.00    +0.000 C 
ENDBRANCH  16  17
ENDBRANCH  14  15
ENDBRANCH   2  14
TORSDOF 6
ENDMDL
MODEL 2
REMARK VINA RESULT:      -6.7      0.918      1.444
REMARK  Name = 
REMARK  10 active torsions:
REMARK  status: ('A' for Active; 'I' for Inactive)
REMARK    1  A    between atoms: C_1  and  O_2
REMARK    2  A    between atoms: O_2  and  N_3
REMARK    3  A    between atoms: C_4  and  C_5
REMARK    4  A    between atoms: C_4  and  C_10
REMARK    5  A    between atoms: C_5  and  C_6
REMARK    6  A    between atoms: N_7  and  O_8
REMARK    7  A    between atoms: O_8  and  C_9
REMARK    8  A    between atoms: C_13  and  C_14
REMARK    9  A    between atoms: C_14  and  C_15
REMARK   10  A    between atoms: C_14  and  C_16
REMARK                            x       y       z     vdW  Elec       q    Type
REMARK                         _______ _______ _______ _____ _____    ______ ____
ROOT
ATOM      1  N   UNL     1       7.421   4.958  17.058  0.00  0.00    +0.000 NA
ATOM      2  C   UNL     1       6.194   5.038  16.609  0.00  0.00    +0.000 C 
ENDROOT
BRANCH   2   3
ATOM      3  C   UNL     1       4.936   4.689  17.355  0.00  0.00    +0.000 A 
ATOM      4  C   UNL     1       4.205   5.672  18.033  0.00  0.00    +0.000 A 
ATOM      5  C   UNL     1       3.008   5.351  18.686  0.00  0.00    +0.000 A 
ATOM      6  C   UNL     1       2.518   4.037  18.693  0.00  0.00    +0.000 A 
ATOM      7  C   UNL     1       3.264   3.052  18.039  0.00  0.00    +0.000 A 
ATOM      8  C   UNL     1       4.435   3.380  17.358  0.00  0.00    +0.000 A 
BRANCH   6   9
ATOM      9  C   UNL     1       1.190   3.712  19.346  0.00  0.00    +0.000 C 
ATOM     10  C   UNL     1       0.626   2.394  18.817  0.00  0.00    +0.000 C 
ATOM     11  C   UNL     1       1.283   3.668  20.872  0.00  0.00    +0.000 C 
ENDBRANCH   6   9
ENDBRANCH   2   3
BRANCH   1  13
ATOM     12  C   UNL     1       7.837   5.742  19.194  0.00  0.00    +0.000 C 
ATOM     13  O   UNL     1       7.481   4.613  18.413  0.00  0.00    +0.000 OA
ENDBRANCH   1  13
BRANCH   2  14
ATOM     14  C   UNL     1       6.051   5.546  15.175  0.00  0.00    +0.000 C 
BRANCH  14  15
ATOM     15  C   UNL     1       6.355   4.510  14.131  0.00  0.00    +0.000 C 
ATOM     16  N   UNL     1       5.406   3.963  13.442  0.00  0.00    +0.000 NA
BRANCH  16  17
ATOM     17  O   UNL     1       5.976   3.051  12.538  0.00  0.00    +0.000 OA
ATOM     18  C   UNL     1       7.030   3.700  11.837  0.00  0.00    +0.000 C 
ENDBRANCH  16  17
ENDBRANCH  14  15
ENDBRANCH   2  14
TORSDOF 6
ENDMDL
MODEL 3
REMARK VINA RESULT:      -6.6      2.264      4.614
REMARK  Name = 
REMARK  10 active torsions:
REMARK  status: ('A' for Active; 'I' for Inactive)
REMARK    1  A    between atoms: C_1  and  O_2
REMARK    2  A    between atoms: O_2  and  N_3
REMARK    3  A    between atoms: C_4  and  C_5
REMARK    4  A    between atoms: C_4  and  C_10
REMARK    5  A    between atoms: C_5  and  C_6
REMARK    6  A    between atoms: N_7  and  O_8
REMARK    7  A    between atoms: O_8  and  C_9
REMARK    8  A    between atoms: C_13  and  C_14
REMARK    9  A    between atoms: C_14  and  C_15
REMARK   10  A    between atoms: C_14  and  C_16
REMARK                            x       y       z     vdW  Elec       q    Type
REMARK                         _______ _______ _______ _____ _____    ______ ____
ROOT
ATOM      1  N   UNL     1       6.975   4.620  16.120  0.00  0.00    +0.000 NA
ATOM      2  C   UNL     1       6.524   4.954  17.303  0.00  0.00    +0.000 C 
ENDROOT
BRANCH   2   3
ATOM      3  C   UNL     1       5.168   4.642  17.872  0.00  0.00    +0.000 A 
ATOM      4  C   UNL     1       4.013   5.238  17.349  0.00  0.00    +0.000 A 
ATOM      5  C   UNL     1       2.748   4.907  17.851  0.00  0.00    +0.000 A 
ATOM      6  C   UNL     1       2.603   3.987  18.899  0.00  0.00    +0.000 A 
ATOM      7  C   UNL     1       3.760   3.415  19.438  0.00  0.00    +0.000 A 
ATOM      8  C   UNL     1       5.015   3.716  18.912  0.00  0.00    +0.000 A 
BRANCH   6   9
ATOM      9  C   UNL     1       1.227   3.588  19.391  0.00  0.00    +0.000 C 
ATOM     10  C   UNL     1       0.771   2.278  18.746  0.00  0.00    +0.000 C 
ATOM     11  C   UNL     1       1.159   3.474  20.914  0.00  0.00    +0.000 C 
ENDBRANCH   6   9
ENDBRANCH   2   3
BRANCH   1  13
ATOM     12  C   UNL     1       6.319   3.905  14.021  0.00  0.00    +0.000 C 
ATOM     13  O   UNL     1       6.090   3.795  15.416  0.00  0.00    +0.000 OA
ENDBRANCH   1  13
BRANCH   2  14
ATOM     14  C   UNL     1       7.498   5.740  18.179  0.00  0.00    +0.000 C 
BRANCH  14  15
ATOM     15  C   UNL     1       7.524   7.213  17.888  0.00  0.00    +0.000 C 
ATOM     16  N   UNL     1       8.406   7.984  18.441  0.00  0.00    +0.000 NA
BRANCH  16  17
ATOM     17  O   UNL     1       8.206   9.296  17.980  0.00  0.00    +0.000 OA
ATOM     18  C   UNL     1       9.029  10.176  18.736  0.00  0.00    +0.000 C 
ENDBRANCH  16  17
ENDBRANCH  14  15
ENDBRANCH   2  14
TORSDOF 6
ENDMDL
MODEL 4
REMARK VINA RESULT:      -6.6      2.814      4.982
REMARK  Name = 
REMARK  10 active torsions:
REMARK  status: ('A' for Active; 'I' for Inactive)
REMARK    1  A    between atoms: C_1  and  O_2
REMARK    2  A    between atoms: O_2  and  N_3
REMARK    3  A    between atoms: C_4  and  C_5
REMARK    4  A    between atoms: C_4  and  C_10
REMARK    5  A    between atoms: C_5  and  C_6
REMARK    6  A    between atoms: N_7  and  O_8
REMARK    7  A    between atoms: O_8  and  C_9
REMARK    8  A    between atoms: C_13  and  C_14
REMARK    9  A    between atoms: C_14  and  C_15
REMARK   10  A    between atoms: C_14  and  C_16
REMARK                            x       y       z     vdW  Elec       q    Type
REMARK                         _______ _______ _______ _____ _____    ______ ____
ROOT
ATOM      1  N   UNL     1       7.196   6.228  15.941  0.00  0.00    +0.000 NA
ATOM      2  C   UNL     1       6.790   6.300  17.183  0.00  0.00    +0.000 C 
ENDROOT
BRANCH   2   3
ATOM      3  C   UNL     1       5.484   5.803  17.736  0.00  0.00    +0.000 A 
ATOM      4  C   UNL     1       5.419   4.609  18.466  0.00  0.00    +0.000 A 
ATOM      5  C   UNL     1       4.208   4.175  19.020  0.00  0.00    +0.000 A 
ATOM      6  C   UNL     1       3.027   4.910  18.847  0.00  0.00    +0.000 A 
ATOM      7  C   UNL     1       3.089   6.087  18.093  0.00  0.00    +0.000 A 
ATOM      8  C   UNL     1       4.302   6.538  17.575  0.00  0.00    +0.000 A 
BRANCH   6   9
ATOM      9  C   UNL     1       1.737   4.465  19.503  0.00  0.00    +0.000 C 
ATOM     10  C   UNL     1       1.197   3.193  18.849  0.00  0.00    +0.000 C 
ATOM     11  C   UNL     1       1.887   4.257  21.011  0.00  0.00    +0.000 C 
ENDBRANCH   6   9
ENDBRANCH   2   3
BRANCH   1  13
ATOM     12  C   UNL     1       6.974   4.362  14.593  0.00  0.00    +0.000 C 
ATOM     13  O   UNL     1       6.320   5.502  15.126  0.00  0.00    +0.000 OA
ENDBRANCH   1  13
BRANCH   2  14
ATOM     14  C   UNL     1       7.767   6.959  18.156  0.00  0.00    +0.000 C 
BRANCH  14  15
ATOM     15  C   UNL     1       8.061   8.397  17.840  0.00  0.00    +0.000 C 
ATOM     16  N   UNL     1       8.682   9.151  18.690  0.00  0.00    +0.000 NA
BRANCH  16  17
ATOM     17  O   UNL     1       8.833  10.430  18.129  0.00  0.00    +0.000 OA
ATOM     18  C   UNL     1       9.905  11.095  18.787  0.00  0.00    +0.000 C 
ENDBRANCH  16  17
ENDBRANCH  14  15
ENDBRANCH   2  14
TORSDOF 6
ENDMDL
MODEL 5
REMARK VINA RESULT:      -6.5      1.554      1.838
REMARK  Name = 
REMARK  10 active torsions:
REMARK  status: ('A' for Active; 'I' for Inactive)
REMARK    1  A    between atoms: C_1  and  O_2
REMARK    2  A    between atoms: O_2  and  N_3
REMARK    3  A    between atoms: C_4  and  C_5
REMARK    4  A    between atoms: C_4  and  C_10
REMARK    5  A    between atoms: C_5  and  C_6
REMARK    6  A    between atoms: N_7  and  O_8
REMARK    7  A    between atoms: O_8  and  C_9
REMARK    8  A    between atoms: C_13  and  C_14
REMARK    9  A    between atoms: C_14  and  C_15
REMARK   10  A    between atoms: C_14  and  C_16
REMARK                            x       y       z     vdW  Elec       q    Type
REMARK                         _______ _______ _______ _____ _____    ______ ____
ROOT
ATOM      1  N   UNL     1       7.346   6.504  16.391  0.00  0.00    +0.000 NA
ATOM      2  C   UNL     1       6.623   5.413  16.437  0.00  0.00    +0.000 C 
ENDROOT
BRANCH   2   3
ATOM      3  C   UNL     1       5.478   5.129  17.368  0.00  0.00    +0.000 A 
ATOM      4  C   UNL     1       5.661   4.349  18.516  0.00  0.00    +0.000 A 
ATOM      5  C   UNL     1       4.602   4.127  19.406  0.00  0.00    +0.000 A 
ATOM      6  C   UNL     1       3.329   4.664  19.166  0.00  0.00    +0.000 A 
ATOM      7  C   UNL     1       3.142   5.420  18.003  0.00  0.00    +0.000 A 
ATOM      8  C   UNL     1       4.206   5.671  17.138  0.00  0.00    +0.000 A 
BRANCH   6   9
ATOM      9  C   UNL     1       2.208   4.472  20.166  0.00  0.00    +0.000 C 
ATOM     10  C   UNL     1       1.701   5.818  20.687  0.00  0.00    +0.000 C 
ATOM     11  C   UNL     1       1.046   3.659  19.596  0.00  0.00    +0.000 C 
ENDBRANCH   6   9
ENDBRANCH   2   3
BRANCH   1  13
ATOM     12  C   UNL     1       7.935   8.360  17.638  0.00  0.00    +0.000 C 
ATOM     13  O   UNL     1       6.873   7.504  17.248  0.00  0.00    +0.000 OA
ENDBRANCH   1  13
BRANCH   2  14
ATOM     14  C   UNL     1       7.000   4.332  15.425  0.00  0.00    +0.000 C 
BRANCH  14  15
ATOM     15  C   UNL     1       5.954   4.093  14.374  0.00  0.00    +0.000 C 
ATOM     16  N   UNL     1       6.284   3.695  13.187  0.00  0.00    +0.000 NA
BRANCH  16  17
ATOM     17  O   UNL     1       5.114   3.540  12.425  0.00  0.00    +0.000 OA
ATOM     18  C   UNL     1       5.281   2.430  11.552  0.00  0.00    +0.000 C 
ENDBRANCH  16  17
ENDBRANCH  14  15
ENDBRANCH   2  14
TORSDOF 6
ENDMDL
MODEL 6
REMARK VINA RESULT:      -6.5      1.822      4.060
REMARK  Name = 
REMARK  10 active torsions:
REMARK  status: ('A' for Active; 'I' for Inactive)
REMARK    1  A    between atoms: C_1  and  O_2
REMARK    2  A    between atoms: O_2  and  N_3
REMARK    3  A    between atoms: C_4  and  C_5
REMARK    4  A    between atoms: C_4  and  C_10
REMARK    5  A    between atoms: C_5  and  C_6
REMARK    6  A    between atoms: N_7  and  O_8
REMARK    7  A    between atoms: O_8  and  C_9
REMARK    8  A    between atoms: C_13  and  C_14
REMARK    9  A    between atoms: C_14  and  C_15
REMARK   10  A    between atoms: C_14  and  C_16
REMARK                            x       y       z     vdW  Elec       q    Type
REMARK                         _______ _______ _______ _____ _____    ______ ____
ROOT
ATOM      1  N   UNL     1       7.104   4.428  15.739  0.00  0.00    +0.000 NA
ATOM      2  C   UNL     1       6.618   4.686  16.927  0.00  0.00    +0.000 C 
ENDROOT
BRANCH   2   3
ATOM      3  C   UNL     1       5.204   4.473  17.389  0.00  0.00    +0.000 A 
ATOM      4  C   UNL     1       4.603   3.210  17.309  0.00  0.00    +0.000 A 
ATOM      5  C   UNL     1       3.302   3.005  17.785  0.00  0.00    +0.000 A 
ATOM      6  C   UNL     1       2.560   4.058  18.339  0.00  0.00    +0.000 A 
ATOM      7  C   UNL     1       3.152   5.324  18.392  0.00  0.00    +0.000 A 
ATOM      8  C   UNL     1       4.461   5.518  17.952  0.00  0.00    +0.000 A 
BRANCH   6   9
ATOM      9  C   UNL     1       1.178   3.813  18.910  0.00  0.00    +0.000 C 
ATOM     10  C   UNL     1       0.808   2.331  18.834  0.00  0.00    +0.000 C 
ATOM     11  C   UNL     1       1.040   4.315  20.347  0.00  0.00    +0.000 C 
ENDBRANCH   6   9
ENDBRANCH   2   3
BRANCH   1  13
ATOM     12  C   UNL     1       6.454   4.089  13.545  0.00  0.00    +0.000 C 
ATOM     13  O   UNL     1       6.181   3.787  14.904  0.00  0.00    +0.000 OA
ENDBRANCH   1  13
BRANCH   2  14
ATOM     14  C   UNL     1       7.615   5.258  17.933  0.00  0.00    +0.000 C 
BRANCH  14  15
ATOM     15  C   UNL     1       7.597   6.757  18.019  0.00  0.00    +0.000 C 
ATOM     16  N   UNL     1       7.563   7.484  16.948  0.00  0.00    +0.000 NA
BRANCH  16  17
ATOM     17  O   UNL     1       7.538   8.838  17.325  0.00  0.00    +0.000 OA
ATOM     18  C   UNL     1       8.485   9.040  18.367  0.00  0.00    +0.000 C 
ENDBRANCH  16  17
ENDBRANCH  14  15
ENDBRANCH   2  14
TORSDOF 6
ENDMDL
MODEL 7
REMARK VINA RESULT:      -6.4      1.296      1.446
REMARK  Name = 
REMARK  10 active torsions:
REMARK  status: ('A' for Active; 'I' for Inactive)
REMARK    1  A    between atoms: C_1  and  O_2
REMARK    2  A    between atoms: O_2  and  N_3
REMARK    3  A    between atoms: C_4  and  C_5
REMARK    4  A    between atoms: C_4  and  C_10
REMARK    5  A    between atoms: C_5  and  C_6
REMARK    6  A    between atoms: N_7  and  O_8
REMARK    7  A    between atoms: O_8  and  C_9
REMARK    8  A    between atoms: C_13  and  C_14
REMARK    9  A    between atoms: C_14  and  C_15
REMARK   10  A    between atoms: C_14  and  C_16
REMARK                            x       y       z     vdW  Elec       q    Type
REMARK                         _______ _______ _______ _____ _____    ______ ____
ROOT
ATOM      1  N   UNL     1       7.456   5.045  17.198  0.00  0.00    +0.000 NA
ATOM      2  C   UNL     1       6.191   4.994  16.867  0.00  0.00    +0.000 C 
ENDROOT
BRANCH   2   3
ATOM      3  C   UNL     1       5.066   4.428  17.688  0.00  0.00    +0.000 A 
ATOM      4  C   UNL     1       4.468   3.209  17.345  0.00  0.00    +0.000 A 
ATOM      5  C   UNL     1       3.453   2.661  18.140  0.00  0.00    +0.000 A 
ATOM      6  C   UNL     1       2.997   3.323  19.289  0.00  0.00    +0.000 A 
ATOM      7  C   UNL     1       3.577   4.554  19.614  0.00  0.00    +0.000 A 
ATOM      8  C   UNL     1       4.613   5.079  18.842  0.00  0.00    +0.000 A 
BRANCH   6   9
ATOM      9  C   UNL     1       1.945   2.692  20.177  0.00  0.00    +0.000 C 
ATOM     10  C   UNL     1       2.313   2.839  21.654  0.00  0.00    +0.000 C 
ATOM     11  C   UNL     1       0.547   3.260  19.926  0.00  0.00    +0.000 C 
ENDBRANCH   6   9
ENDBRANCH   2   3
BRANCH   1  13
ATOM     12  C   UNL     1       8.044   5.709  19.334  0.00  0.00    +0.000 C 
ATOM     13  O   UNL     1       7.692   4.611  18.508  0.00  0.00    +0.000 OA
ENDBRANCH   1  13
BRANCH   2  14
ATOM     14  C   UNL     1       5.845   5.583  15.500  0.00  0.00    +0.000 C 
BRANCH  14  15
ATOM     15  C   UNL     1       6.408   4.806  14.345  0.00  0.00    +0.000 C 
ATOM     16  N   UNL     1       5.675   3.961  13.693  0.00  0.00    +0.000 NA
BRANCH  16  17
ATOM     17  O   UNL     1       6.448   3.397  12.664  0.00  0.00    +0.000 OA
ATOM     18  C   UNL     1       5.586   2.692  11.779  0.00  0.00    +0.000 C 
ENDBRANCH  16  17
ENDBRANCH  14  15
ENDBRANCH   2  14
TORSDOF 6
ENDMDL
MODEL 8
REMARK VINA RESULT:      -6.4      2.432      4.697
REMARK  Name = 
REMARK  10 active torsions:
REMARK  status: ('A' for Active; 'I' for Inactive)
REMARK    1  A    between atoms: C_1  and  O_2
REMARK    2  A    between atoms: O_2  and  N_3
REMARK    3  A    between atoms: C_4  and  C_5
REMARK    4  A    between atoms: C_4  and  C_10
REMARK    5  A    between atoms: C_5  and  C_6
REMARK    6  A    between atoms: N_7  and  O_8
REMARK    7  A    between atoms: O_8  and  C_9
REMARK    8  A    between atoms: C_13  and  C_14
REMARK    9  A    between atoms: C_14  and  C_15
REMARK   10  A    between atoms: C_14  and  C_16
REMARK                            x       y       z     vdW  Elec       q    Type
REMARK                         _______ _______ _______ _____ _____    ______ ____
ROOT
ATOM      1  N   UNL     1       6.449   5.787  15.387  0.00  0.00    +0.000 NA
ATOM      2  C   UNL     1       6.266   5.687  16.679  0.00  0.00    +0.000 C 
ENDROOT
BRANCH   2   3
ATOM      3  C   UNL     1       5.092   5.059  17.378  0.00  0.00    +0.000 A 
ATOM      4  C   UNL     1       5.067   3.686  17.651  0.00  0.00    +0.000 A 
ATOM      5  C   UNL     1       3.994   3.114  18.346  0.00  0.00    +0.000 A 
ATOM      6  C   UNL     1       2.909   3.894  18.771  0.00  0.00    +0.000 A 
ATOM      7  C   UNL     1       2.923   5.260  18.472  0.00  0.00    +0.000 A 
ATOM      8  C   UNL     1       4.010   5.834  17.814  0.00  0.00    +0.000 A 
BRANCH   6   9
ATOM      9  C   UNL     1       1.784   3.278  19.577  0.00  0.00    +0.000 C 
ATOM     10  C   UNL     1       1.018   4.348  20.357  0.00  0.00    +0.000 C 
ATOM     11  C   UNL     1       0.818   2.467  18.712  0.00  0.00    +0.000 C 
ENDBRANCH   6   9
ENDBRANCH   2   3
BRANCH   1  13
ATOM     12  C   UNL     1       6.027   4.009  13.968  0.00  0.00    +0.000 C 
ATOM     13  O   UNL     1       5.465   5.120  14.647  0.00  0.00    +0.000 OA
ENDBRANCH   1  13
BRANCH   2  14
ATOM     14  C   UNL     1       7.378   6.272  17.547  0.00  0.00    +0.000 C 
BRANCH  14  15
ATOM     15  C   UNL     1       7.545   7.758  17.400  0.00  0.00    +0.000 C 
ATOM     16  N   UNL     1       8.246   8.435  18.252  0.00  0.00    +0.000 NA
BRANCH  16  17
ATOM     17  O   UNL     1       8.242   9.785  17.863  0.00  0.00    +0.000 OA
ATOM     18  C   UNL     1       9.204  10.488  18.640  0.00  0.00    +0.000 C 
ENDBRANCH  16  17
ENDBRANCH  14  15
ENDBRANCH   2  14
TORSDOF 6
ENDMDL
MODEL 9
REMARK VINA RESULT:      -6.4      2.121      2.557
REMARK  Name = 
REMARK  10 active torsions:
REMARK  status: ('A' for Active; 'I' for Inactive)
REMARK    1  A    between atoms: C_1  and  O_2
REMARK    2  A    between atoms: O_2  and  N_3
REMARK    3  A    between atoms: C_4  and  C_5
REMARK    4  A    between atoms: C_4  and  C_10
REMARK    5  A    between atoms: C_5  and  C_6
REMARK    6  A    between atoms: N_7  and  O_8
REMARK    7  A    between atoms: O_8  and  C_9
REMARK    8  A    between atoms: C_13  and  C_14
REMARK    9  A    between atoms: C_14  and  C_15
REMARK   10  A    between atoms: C_14  and  C_16
REMARK                            x       y       z     vdW  Elec       q    Type
REMARK                         _______ _______ _______ _____ _____    ______ ____
ROOT
ATOM      1  N   UNL     1       7.491   6.790  16.553  0.00  0.00    +0.000 NA
ATOM      2  C   UNL     1       6.762   5.710  16.680  0.00  0.00    +0.000 C 
ENDROOT
BRANCH   2   3
ATOM      3  C   UNL     1       5.591   5.516  17.602  0.00  0.00    +0.000 A 
ATOM      4  C   UNL     1       4.283   5.762  17.165  0.00  0.00    +0.000 A 
ATOM      5  C   UNL     1       3.191   5.533  18.012  0.00  0.00    +0.000 A 
ATOM      6  C   UNL     1       3.376   5.069  19.322  0.00  0.00    +0.000 A 
ATOM      7  C   UNL     1       4.685   4.851  19.765  0.00  0.00    +0.000 A 
ATOM      8  C   UNL     1       5.768   5.043  18.908  0.00  0.00    +0.000 A 
BRANCH   6   9
ATOM      9  C   UNL     1       2.186   4.763  20.208  0.00  0.00    +0.000 C 
ATOM     10  C   UNL     1       1.533   6.050  20.714  0.00  0.00    +0.000 C 
ATOM     11  C   UNL     1       1.146   3.886  19.511  0.00  0.00    +0.000 C 
ENDBRANCH   6   9
ENDBRANCH   2   3
BRANCH   1  13
ATOM     12  C   UNL     1       8.073   8.626  17.833  0.00  0.00    +0.000 C 
ATOM     13  O   UNL     1       7.000   7.867  17.301  0.00  0.00    +0.000 OA
ENDBRANCH   1  13
BRANCH   2  14
ATOM     14  C   UNL     1       7.162   4.539  15.783  0.00  0.00    +0.000 C 
BRANCH  14  15
ATOM     15  C   UNL     1       7.174   4.873  14.319  0.00  0.00    +0.000 C 
ATOM     16  N   UNL     1       8.167   5.518  13.793  0.00  0.00    +0.000 NA
BRANCH  16  17
ATOM     17  O   UNL     1       7.921   5.677  12.419  0.00  0.00    +0.000 OA
ATOM     18  C   UNL     1       7.286   4.502  11.930  0.00  0.00    +0.000 C 
ENDBRANCH  16  17
ENDBRANCH  14  15
ENDBRANCH   2  14
TORSDOF 6
ENDMDL
