MODEL 1
REMARK VINA RESULT:      -9.1      0.000      0.000
REMARK  Name = 
REMARK  5 active torsions:
REMARK  status: ('A' for Active; 'I' for Inactive)
REMARK    1  A    between atoms: C_1  and  N_2
REMARK    2  A    between atoms: C_10  and  C_11
REMARK    3  A    between atoms: C_18  and  C_19
REMARK    4  A    between atoms: C_19  and  C_20
REMARK    5  A    between atoms: C_20  and  C_21
REMARK                            x       y       z     vdW  Elec       q    Type
REMARK                         _______ _______ _______ _____ _____    ______ ____
ROOT
ATOM      1  C   UNL     1       1.536   8.168  21.160  0.00  0.00    +0.000 C 
ATOM      2  N   UNL     1       1.901   7.216  20.111  0.00  0.00    +0.000 N 
ATOM      3  C   UNL     1       1.745   5.823  20.504  0.00  0.00    +0.000 C 
ATOM      4  C   UNL     1       1.904   4.752  19.451  0.00  0.00    +0.000 A 
ATOM      5  C   UNL     1       0.978   3.687  19.437  0.00  0.00    +0.000 A 
ATOM      6  C   UNL     1       1.178   2.559  18.644  0.00  0.00    +0.000 A 
ATOM      7  C   UNL     1       2.317   2.467  17.862  0.00  0.00    +0.000 A 
ATOM      8  C   UNL     1       3.221   3.525  17.837  0.00  0.00    +0.000 A 
ATOM      9  C   UNL     1       3.026   4.696  18.604  0.00  0.00    +0.000 A 
ATOM     10  C   UNL     1       3.990   5.888  18.538  0.00  0.00    +0.000 C 
ATOM     11  N   UNL     1       3.297   7.122  18.157  0.00  0.00    +0.000 NA
ATOM     12  C   UNL     1       2.402   7.661  18.897  0.00  0.00    +0.000 C 
ENDROOT
BRANCH  10  13
ATOM     13  C   UNL     1       5.150   5.642  17.555  0.00  0.00    +0.000 A 
ATOM     14  C   UNL     1       4.968   5.856  16.174  0.00  0.00    +0.000 A 
ATOM     15  C   UNL     1       5.899   5.389  15.248  0.00  0.00    +0.000 A 
ATOM     16  C   UNL     1       7.032   4.709  15.686  0.00  0.00    +0.000 A 
ATOM     17  C   UNL     1       7.257   4.535  17.052  0.00  0.00    +0.000 A 
ATOM     18  C   UNL     1       6.329   5.009  17.984  0.00  0.00    +0.000 A 
ENDBRANCH  10  13
BRANCH  12  19
ATOM     19  C   UNL     1       1.865   9.009  18.381  0.00  0.00    +0.000 C 
BRANCH  19  20
ATOM     20  C   UNL     1       0.581   8.890  17.559  0.00  0.00    +0.000 C 
BRANCH  20  21
ATOM     21  C   UNL     1      -0.454   9.893  18.018  0.00  0.00    +0.000 A 
ATOM     22  C   UNL     1      -1.662  10.033  17.321  0.00  0.00    +0.000 A 
ATOM     23  C   UNL     1      -2.602  10.983  17.722  0.00  0.00    +0.000 A 
ATOM     24  C   UNL     1      -2.344  11.804  18.818  0.00  0.00    +0.000 A 
ATOM     25  C   UNL     1      -1.145  11.676  19.516  0.00  0.00    +0.000 A 
ATOM     26  C   UNL     1      -0.203  10.725  19.117  0.00  0.00    +0.000 A 
ENDBRANCH  20  21
ENDBRANCH  19  20
ENDBRANCH  12  19
TORSDOF 4
ENDMDL
MODEL 2
REMARK VINA RESULT:      -8.9      0.400      1.386
REMARK  Name = 
REMARK  5 active torsions:
REMARK  status: ('A' for Active; 'I' for Inactive)
REMARK    1  A    between atoms: C_1  and  N_2
REMARK    2  A    between atoms: C_10  and  C_11
REMARK    3  A    between atoms: C_18  and  C_19
REMARK    4  A    between atoms: C_19  and  C_20
REMARK    5  A    between atoms: C_20  and  C_21
REMARK                            x       y       z     vdW  Elec       q    Type
REMARK                         _______ _______ _______ _____ _____    ______ ____
ROOT
ATOM      1  C   UNL     1       1.703   8.209  21.049  0.00  0.00    +0.000 C 
ATOM      2  N   UNL     1       1.979   7.154  20.073  0.00  0.00    +0.000 N 
ATOM      3  C   UNL     1       1.728   5.811  20.573  0.00  0.00    +0.000 C 
ATOM      4  C   UNL     1       1.792   4.655  19.604  0.00  0.00    +0.000 A 
ATOM      5  C   UNL     1       0.790   3.663  19.683  0.00  0.00    +0.000 A 
ATOM      6  C   UNL     1       0.894   2.466  18.977  0.00  0.00    +0.000 A 
ATOM      7  C   UNL     1       2.010   2.230  18.192  0.00  0.00    +0.000 A 
ATOM      8  C   UNL     1       2.988   3.214  18.075  0.00  0.00    +0.000 A 
ATOM      9  C   UNL     1       2.892   4.451  18.751  0.00  0.00    +0.000 A 
ATOM     10  C   UNL     1       3.939   5.560  18.583  0.00  0.00    +0.000 C 
ATOM     11  N   UNL     1       3.332   6.809  18.116  0.00  0.00    +0.000 NA
ATOM     12  C   UNL     1       2.491   7.467  18.822  0.00  0.00    +0.000 C 
ENDROOT
BRANCH  10  13
ATOM     13  C   UNL     1       5.061   5.154  17.609  0.00  0.00    +0.000 A 
ATOM     14  C   UNL     1       6.292   4.679  18.103  0.00  0.00    +0.000 A 
ATOM     15  C   UNL     1       7.402   4.564  17.266  0.00  0.00    +0.000 A 
ATOM     16  C   UNL     1       7.298   4.912  15.923  0.00  0.00    +0.000 A 
ATOM     17  C   UNL     1       6.073   5.333  15.404  0.00  0.00    +0.000 A 
ATOM     18  C   UNL     1       4.955   5.443  16.238  0.00  0.00    +0.000 A 
ENDBRANCH  10  13
BRANCH  12  19
ATOM     19  C   UNL     1       2.045   8.809  18.210  0.00  0.00    +0.000 C 
BRANCH  19  20
ATOM     20  C   UNL     1       0.653   8.769  17.579  0.00  0.00    +0.000 C 
BRANCH  20  21
ATOM     21  C   UNL     1      -0.177   9.956  18.015  0.00  0.00    +0.000 A 
ATOM     22  C   UNL     1       0.362  10.916  18.881  0.00  0.00    +0.000 A 
ATOM     23  C   UNL     1      -0.414  11.993  19.312  0.00  0.00    +0.000 A 
ATOM     24  C   UNL     1      -1.736  12.117  18.888  0.00  0.00    +0.000 A 
ATOM     25  C   UNL     1      -2.283  11.166  18.030  0.00  0.00    +0.000 A 
ATOM     26  C   UNL     1      -1.508  10.088  17.595  0.00  0.00    +0.000 A 
ENDBRANCH  20  21
ENDBRANCH  19  20
ENDBRANCH  12  19
TORSDOF 4
ENDMDL
MODEL 3
REMARK VINA RESULT:      -8.6      1.241      1.589
REMARK  Name = 
REMARK  5 active torsions:
REMARK  status: ('A' for Active; 'I' for Inactive)
REMARK    1  A    between atoms: C_1  and  N_2
REMARK    2  A    between atoms: C_10  and  C_11
REMARK    3  A    between atoms: C_18  and  C_19
REMARK    4  A    between atoms: C_19  and  C_20
REMARK    5  A    between atoms: C_20  and  C_21
REMARK                            x       y       z     vdW  Elec       q    Type
REMARK                         _______ _______ _______ _____ _____    ______ ____
ROOT
ATOM      1  C   UNL     1       1.391   8.132  20.953  0.00  0.00    +0.000 C 
ATOM      2  N   UNL     1       1.823   7.118  19.991  0.00  0.00    +0.000 N 
ATOM      3  C   UNL     1       1.813   5.763  20.522  0.00  0.00    +0.000 C 
ATOM      4  C   UNL     1       2.052   4.613  19.573  0.00  0.00    +0.000 A 
ATOM      5  C   UNL     1       1.234   3.468  19.693  0.00  0.00    +0.000 A 
ATOM      6  C   UNL     1       1.525   2.291  19.007  0.00  0.00    +0.000 A 
ATOM      7  C   UNL     1       2.650   2.230  18.202  0.00  0.00    +0.000 A 
ATOM      8  C   UNL     1       3.445   3.361  18.044  0.00  0.00    +0.000 A 
ATOM      9  C   UNL     1       3.154   4.580  18.699  0.00  0.00    +0.000 A 
ATOM     10  C   UNL     1       3.995   5.845  18.487  0.00  0.00    +0.000 C 
ATOM     11  N   UNL     1       3.176   6.963  18.010  0.00  0.00    +0.000 NA
ATOM     12  C   UNL     1       2.250   7.485  18.723  0.00  0.00    +0.000 C 
ENDROOT
BRANCH  10  13
ATOM     13  C   UNL     1       5.151   5.613  17.495  0.00  0.00    +0.000 A 
ATOM     14  C   UNL     1       4.948   5.799  16.113  0.00  0.00    +0.000 A 
ATOM     15  C   UNL     1       5.882   5.341  15.184  0.00  0.00    +0.000 A 
ATOM     16  C   UNL     1       7.037   4.700  15.621  0.00  0.00    +0.000 A 
ATOM     17  C   UNL     1       7.281   4.556  16.987  0.00  0.00    +0.000 A 
ATOM     18  C   UNL     1       6.350   5.020  17.922  0.00  0.00    +0.000 A 
ENDBRANCH  10  13
BRANCH  12  19
ATOM     19  C   UNL     1       1.571   8.718  18.097  0.00  0.00    +0.000 C 
BRANCH  19  20
ATOM     20  C   UNL     1       2.499   9.925  17.947  0.00  0.00    +0.000 C 
BRANCH  20  21
ATOM     21  C   UNL     1       1.788  11.207  18.318  0.00  0.00    +0.000 A 
ATOM     22  C   UNL     1       0.461  11.176  18.769  0.00  0.00    +0.000 A 
ATOM     23  C   UNL     1      -0.208  12.361  19.077  0.00  0.00    +0.000 A 
ATOM     24  C   UNL     1       0.439  13.588  18.935  0.00  0.00    +0.000 A 
ATOM     25  C   UNL     1       1.757  13.630  18.484  0.00  0.00    +0.000 A 
ATOM     26  C   UNL     1       2.429  12.445  18.176  0.00  0.00    +0.000 A 
ENDBRANCH  20  21
ENDBRANCH  19  20
ENDBRANCH  12  19
TORSDOF 4
ENDMDL
MODEL 4
REMARK VINA RESULT:      -8.5      1.250      1.963
REMARK  Name = 
REMARK  5 active torsions:
REMARK  status: ('A' for Active; 'I' for Inactive)
REMARK    1  A    between atoms: C_1  and  N_2
REMARK    2  A    between atoms: C_10  and  C_11
REMARK    3  A    between atoms: C_18  and  C_19
REMARK    4  A    between atoms: C_19  and  C_20
REMARK    5  A    between atoms: C_20  and  C_21
REMARK                            x       y       z     vdW  Elec       q    Type
REMARK                         _______ _______ _______ _____ _____    ______ ____
ROOT
ATOM      1  C   UNL     1       1.514   8.320  20.864  0.00  0.00    +0.000 C 
ATOM      2  N   UNL     1       1.848   7.181  20.008  0.00  0.00    +0.000 N 
ATOM      3  C   UNL     1       1.764   5.894  20.684  0.00  0.00    +0.000 C 
ATOM      4  C   UNL     1       1.897   4.635  19.862  0.00  0.00    +0.000 A 
ATOM      5  C   UNL     1       1.009   3.570  20.125  0.00  0.00    +0.000 A 
ATOM      6  C   UNL     1       1.201   2.308  19.565  0.00  0.00    +0.000 A 
ATOM      7  C   UNL     1       2.293   2.083  18.745  0.00  0.00    +0.000 A 
ATOM      8  C   UNL     1       3.157   3.133  18.447  0.00  0.00    +0.000 A 
ATOM      9  C   UNL     1       2.968   4.432  18.971  0.00  0.00    +0.000 A 
ATOM     10  C   UNL     1       3.884   5.606  18.603  0.00  0.00    +0.000 C 
ATOM     11  N   UNL     1       3.127   6.720  18.026  0.00  0.00    +0.000 NA
ATOM     12  C   UNL     1       2.259   7.379  18.699  0.00  0.00    +0.000 C 
ENDROOT
BRANCH  10  13
ATOM     13  C   UNL     1       4.991   5.189  17.615  0.00  0.00    +0.000 A 
ATOM     14  C   UNL     1       6.240   4.749  18.094  0.00  0.00    +0.000 A 
ATOM     15  C   UNL     1       7.333   4.626  17.237  0.00  0.00    +0.000 A 
ATOM     16  C   UNL     1       7.192   4.932  15.886  0.00  0.00    +0.000 A 
ATOM     17  C   UNL     1       5.949   5.317  15.384  0.00  0.00    +0.000 A 
ATOM     18  C   UNL     1       4.849   5.434  16.239  0.00  0.00    +0.000 A 
ENDBRANCH  10  13
BRANCH  12  19
ATOM     19  C   UNL     1       1.646   8.582  17.957  0.00  0.00    +0.000 C 
BRANCH  19  20
ATOM     20  C   UNL     1       2.560   9.807  17.902  0.00  0.00    +0.000 C 
BRANCH  20  21
ATOM     21  C   UNL     1       1.797  11.070  18.232  0.00  0.00    +0.000 A 
ATOM     22  C   UNL     1       2.428  12.319  18.150  0.00  0.00    +0.000 A 
ATOM     23  C   UNL     1       1.736  13.483  18.489  0.00  0.00    +0.000 A 
ATOM     24  C   UNL     1       0.411  13.410  18.916  0.00  0.00    +0.000 A 
ATOM     25  C   UNL     1      -0.224  12.173  19.004  0.00  0.00    +0.000 A 
ATOM     26  C   UNL     1       0.466  11.007  18.664  0.00  0.00    +0.000 A 
ENDBRANCH  20  21
ENDBRANCH  19  20
ENDBRANCH  12  19
TORSDOF 4
ENDMDL
MODEL 5
REMARK VINA RESULT:      -8.4      1.007      1.525
REMARK  Name = 
REMARK  5 active torsions:
REMARK  status: ('A' for Active; 'I' for Inactive)
REMARK    1  A    between atoms: C_1  and  N_2
REMARK    2  A    between atoms: C_10  and  C_11
REMARK    3  A    between atoms: C_18  and  C_19
REMARK    4  A    between atoms: C_19  and  C_20
REMARK    5  A    between atoms: C_20  and  C_21
REMARK                            x       y       z     vdW  Elec       q    Type
REMARK                         _______ _______ _______ _____ _____    ______ ____
ROOT
ATOM      1  C   UNL     1       1.412   8.081  20.881  0.00  0.00    +0.000 C 
ATOM      2  N   UNL     1       1.888   7.027  19.984  0.00  0.00    +0.000 N 
ATOM      3  C   UNL     1       1.979   5.717  20.613  0.00  0.00    +0.000 C 
ATOM      4  C   UNL     1       2.270   4.517  19.746  0.00  0.00    +0.000 A 
ATOM      5  C   UNL     1       1.532   3.335  19.973  0.00  0.00    +0.000 A 
ATOM      6  C   UNL     1       1.884   2.130  19.368  0.00  0.00    +0.000 A 
ATOM      7  C   UNL     1       2.991   2.079  18.538  0.00  0.00    +0.000 A 
ATOM      8  C   UNL     1       3.707   3.244  18.276  0.00  0.00    +0.000 A 
ATOM      9  C   UNL     1       3.352   4.488  18.847  0.00  0.00    +0.000 A 
ATOM     10  C   UNL     1       4.103   5.784  18.518  0.00  0.00    +0.000 C 
ATOM     11  N   UNL     1       3.202   6.809  17.983  0.00  0.00    +0.000 NA
ATOM     12  C   UNL     1       2.260   7.323  18.681  0.00  0.00    +0.000 C 
ENDROOT
BRANCH  10  13
ATOM     13  C   UNL     1       5.248   5.552  17.514  0.00  0.00    +0.000 A 
ATOM     14  C   UNL     1       5.016   5.682  16.131  0.00  0.00    +0.000 A 
ATOM     15  C   UNL     1       5.948   5.219  15.202  0.00  0.00    +0.000 A 
ATOM     16  C   UNL     1       7.130   4.630  15.640  0.00  0.00    +0.000 A 
ATOM     17  C   UNL     1       7.402   4.542  17.006  0.00  0.00    +0.000 A 
ATOM     18  C   UNL     1       6.473   5.011  17.940  0.00  0.00    +0.000 A 
ENDBRANCH  10  13
BRANCH  12  19
ATOM     19  C   UNL     1       1.488   8.460  17.985  0.00  0.00    +0.000 C 
BRANCH  19  20
ATOM     20  C   UNL     1       2.238   9.793  17.961  0.00  0.00    +0.000 C 
BRANCH  20  21
ATOM     21  C   UNL     1       1.359  10.920  18.455  0.00  0.00    +0.000 A 
ATOM     22  C   UNL     1       1.910  12.180  18.726  0.00  0.00    +0.000 A 
ATOM     23  C   UNL     1       1.107  13.211  19.216  0.00  0.00    +0.000 A 
ATOM     24  C   UNL     1      -0.251  12.992  19.446  0.00  0.00    +0.000 A 
ATOM     25  C   UNL     1      -0.808  11.742  19.182  0.00  0.00    +0.000 A 
ATOM     26  C   UNL     1      -0.007  10.709  18.690  0.00  0.00    +0.000 A 
ENDBRANCH  20  21
ENDBRANCH  19  20
ENDBRANCH  12  19
TORSDOF 4
ENDMDL
MODEL 6
REMARK VINA RESULT:      -7.8      0.487      1.094
REMARK  Name = 
REMARK  5 active torsions:
REMARK  status: ('A' for Active; 'I' for Inactive)
REMARK    1  A    between atoms: C_1  and  N_2
REMARK    2  A    between atoms: C_10  and  C_11
REMARK    3  A    between atoms: C_18  and  C_19
REMARK    4  A    between atoms: C_19  and  C_20
REMARK    5  A    between atoms: C_20  and  C_21
REMARK                            x       y       z     vdW  Elec       q    Type
REMARK                         _______ _______ _______ _____ _____    ______ ____
ROOT
ATOM      1  C   UNL     1       1.676   8.173  21.419  0.00  0.00    +0.000 C 
ATOM      2  N   UNL     1       1.962   7.231  20.337  0.00  0.00    +0.000 N 
ATOM      3  C   UNL     1       1.826   5.834  20.723  0.00  0.00    +0.000 C 
ATOM      4  C   UNL     1       1.906   4.776  19.650  0.00  0.00    +0.000 A 
ATOM      5  C   UNL     1       0.975   3.715  19.688  0.00  0.00    +0.000 A 
ATOM      6  C   UNL     1       1.113   2.595  18.870  0.00  0.00    +0.000 A 
ATOM      7  C   UNL     1       2.195   2.507  18.010  0.00  0.00    +0.000 A 
ATOM      8  C   UNL     1       3.100   3.561  17.934  0.00  0.00    +0.000 A 
ATOM      9  C   UNL     1       2.966   4.725  18.726  0.00  0.00    +0.000 A 
ATOM     10  C   UNL     1       3.929   5.912  18.607  0.00  0.00    +0.000 C 
ATOM     11  N   UNL     1       3.218   7.154  18.289  0.00  0.00    +0.000 NA
ATOM     12  C   UNL     1       2.379   7.688  19.096  0.00  0.00    +0.000 C 
ENDROOT
BRANCH  10  13
ATOM     13  C   UNL     1       5.016   5.672  17.542  0.00  0.00    +0.000 A 
ATOM     14  C   UNL     1       4.782   6.023  16.198  0.00  0.00    +0.000 A 
ATOM     15  C   UNL     1       5.628   5.575  15.184  0.00  0.00    +0.000 A 
ATOM     16  C   UNL     1       6.726   4.779  15.498  0.00  0.00    +0.000 A 
ATOM     17  C   UNL     1       7.005   4.467  16.829  0.00  0.00    +0.000 A 
ATOM     18  C   UNL     1       6.163   4.920  17.849  0.00  0.00    +0.000 A 
ENDBRANCH  10  13
BRANCH  12  19
ATOM     19  C   UNL     1       1.814   9.045  18.634  0.00  0.00    +0.000 C 
BRANCH  19  20
ATOM     20  C   UNL     1       0.679   9.573  19.512  0.00  0.00    +0.000 C 
BRANCH  20  21
ATOM     21  C   UNL     1      -0.442  10.138  18.670  0.00  0.00    +0.000 A 
ATOM     22  C   UNL     1      -1.054  11.348  19.025  0.00  0.00    +0.000 A 
ATOM     23  C   UNL     1      -2.113  11.852  18.268  0.00  0.00    +0.000 A 
ATOM     24  C   UNL     1      -2.574  11.152  17.155  0.00  0.00    +0.000 A 
ATOM     25  C   UNL     1      -1.975   9.947  16.795  0.00  0.00    +0.000 A 
ATOM     26  C   UNL     1      -0.914   9.440  17.549  0.00  0.00    +0.000 A 
ENDBRANCH  20  21
ENDBRANCH  19  20
ENDBRANCH  12  19
TORSDOF 4
ENDMDL
MODEL 7
REMARK VINA RESULT:      -7.7      1.951      8.315
REMARK  Name = 
REMARK  5 active torsions:
REMARK  status: ('A' for Active; 'I' for Inactive)
REMARK    1  A    between atoms: C_1  and  N_2
REMARK    2  A    between atoms: C_10  and  C_11
REMARK    3  A    between atoms: C_18  and  C_19
REMARK    4  A    between atoms: C_19  and  C_20
REMARK    5  A    between atoms: C_20  and  C_21
REMARK                            x       y       z     vdW  Elec       q    Type
REMARK                         _______ _______ _______ _____ _____    ______ ____
ROOT
ATOM      1  C   UNL     1       1.409   9.136  22.318  0.00  0.00    +0.000 C 
ATOM      2  N   UNL     1       0.984   9.929  21.164  0.00  0.00    +0.000 N 
ATOM      3  C   UNL     1       0.760  11.334  21.467  0.00  0.00    +0.000 C 
ATOM      4  C   UNL     1       0.507  12.289  20.325  0.00  0.00    +0.000 A 
ATOM      5  C   UNL     1       1.155  13.543  20.348  0.00  0.00    +0.000 A 
ATOM      6  C   UNL     1       0.813  14.555  19.453  0.00  0.00    +0.000 A 
ATOM      7  C   UNL     1      -0.196  14.339  18.530  0.00  0.00    +0.000 A 
ATOM      8  C   UNL     1      -0.820  13.096  18.472  0.00  0.00    +0.000 A 
ATOM      9  C   UNL     1      -0.469  12.039  19.343  0.00  0.00    +0.000 A 
ATOM     10  C   UNL     1      -1.114  10.651  19.246  0.00  0.00    +0.000 C 
ATOM     11  N   UNL     1      -0.110   9.602  19.048  0.00  0.00    +0.000 NA
ATOM     12  C   UNL     1       0.774   9.325  19.933  0.00  0.00    +0.000 C 
ENDROOT
BRANCH  10  13
ATOM     13  C   UNL     1      -2.151  10.571  18.110  0.00  0.00    +0.000 A 
ATOM     14  C   UNL     1      -1.816   9.960  16.886  0.00  0.00    +0.000 A 
ATOM     15  C   UNL     1      -2.630  10.112  15.763  0.00  0.00    +0.000 A 
ATOM     16  C   UNL     1      -3.794  10.868  15.849  0.00  0.00    +0.000 A 
ATOM     17  C   UNL     1      -4.171  11.436  17.067  0.00  0.00    +0.000 A 
ATOM     18  C   UNL     1      -3.361  11.279  18.196  0.00  0.00    +0.000 A 
ENDBRANCH  10  13
BRANCH  12  19
ATOM     19  C   UNL     1       1.673   8.122  19.592  0.00  0.00    +0.000 C 
BRANCH  19  20
ATOM     20  C   UNL     1       2.430   8.270  18.271  0.00  0.00    +0.000 C 
BRANCH  20  21
ATOM     21  C   UNL     1       3.034   6.953  17.839  0.00  0.00    +0.000 A 
ATOM     22  C   UNL     1       2.371   5.748  18.109  0.00  0.00    +0.000 A 
ATOM     23  C   UNL     1       2.944   4.529  17.743  0.00  0.00    +0.000 A 
ATOM     24  C   UNL     1       4.185   4.501  17.109  0.00  0.00    +0.000 A 
ATOM     25  C   UNL     1       4.854   5.693  16.839  0.00  0.00    +0.000 A 
ATOM     26  C   UNL     1       4.282   6.915  17.203  0.00  0.00    +0.000 A 
ENDBRANCH  20  21
ENDBRANCH  19  20
ENDBRANCH  12  19
TORSDOF 4
ENDMDL
MODEL 8
REMARK VINA RESULT:      -7.7      1.684      4.329
REMARK  Name = 
REMARK  5 active torsions:
REMARK  status: ('A' for Active; 'I' for Inactive)
REMARK    1  A    between atoms: C_1  and  N_2
REMARK    2  A    between atoms: C_10  and  C_11
REMARK    3  A    between atoms: C_18  and  C_19
REMARK    4  A    between atoms: C_19  and  C_20
REMARK    5  A    between atoms: C_20  and  C_21
REMARK                            x       y       z     vdW  Elec       q    Type
REMARK                         _______ _______ _______ _____ _____    ______ ____
ROOT
ATOM      1  C   UNL     1       1.772   9.832  17.926  0.00  0.00    +0.000 C 
ATOM      2  N   UNL     1       2.467   8.587  18.256  0.00  0.00    +0.000 N 
ATOM      3  C   UNL     1       3.386   8.135  17.222  0.00  0.00    +0.000 C 
ATOM      4  C   UNL     1       4.300   6.973  17.525  0.00  0.00    +0.000 A 
ATOM      5  C   UNL     1       5.649   7.060  17.116  0.00  0.00    +0.000 A 
ATOM      6  C   UNL     1       6.497   5.956  17.164  0.00  0.00    +0.000 A 
ATOM      7  C   UNL     1       6.009   4.738  17.607  0.00  0.00    +0.000 A 
ATOM      8  C   UNL     1       4.692   4.645  18.049  0.00  0.00    +0.000 A 
ATOM      9  C   UNL     1       3.819   5.756  18.044  0.00  0.00    +0.000 A 
ATOM     10  C   UNL     1       2.384   5.673  18.581  0.00  0.00    +0.000 C 
ATOM     11  N   UNL     1       2.149   6.651  19.646  0.00  0.00    +0.000 NA
ATOM     12  C   UNL     1       2.185   7.914  19.436  0.00  0.00    +0.000 C 
ENDROOT
BRANCH  10  13
ATOM     13  C   UNL     1       2.044   4.267  19.109  0.00  0.00    +0.000 A 
ATOM     14  C   UNL     1       1.493   3.299  18.247  0.00  0.00    +0.000 A 
ATOM     15  C   UNL     1       0.932   2.126  18.752  0.00  0.00    +0.000 A 
ATOM     16  C   UNL     1       0.922   1.898  20.125  0.00  0.00    +0.000 A 
ATOM     17  C   UNL     1       1.512   2.820  20.990  0.00  0.00    +0.000 A 
ATOM     18  C   UNL     1       2.082   3.993  20.487  0.00  0.00    +0.000 A 
ENDBRANCH  10  13
BRANCH  12  19
ATOM     19  C   UNL     1       1.807   8.781  20.652  0.00  0.00    +0.000 C 
BRANCH  19  20
ATOM     20  C   UNL     1       0.433   8.457  21.239  0.00  0.00    +0.000 C 
BRANCH  20  21
ATOM     21  C   UNL     1      -0.328   9.720  21.574  0.00  0.00    +0.000 A 
ATOM     22  C   UNL     1      -0.609  10.663  20.576  0.00  0.00    +0.000 A 
ATOM     23  C   UNL     1      -1.280  11.846  20.890  0.00  0.00    +0.000 A 
ATOM     24  C   UNL     1      -1.671  12.101  22.203  0.00  0.00    +0.000 A 
ATOM     25  C   UNL     1      -1.393  11.172  23.204  0.00  0.00    +0.000 A 
ATOM     26  C   UNL     1      -0.724   9.986  22.892  0.00  0.00    +0.000 A 
ENDBRANCH  20  21
ENDBRANCH  19  20
ENDBRANCH  12  19
TORSDOF 4
ENDMDL
MODEL 9
REMARK VINA RESULT:      -7.6      0.813      1.161
REMARK  Name = 
REMARK  5 active torsions:
REMARK  status: ('A' for Active; 'I' for Inactive)
REMARK    1  A    between atoms: C_1  and  N_2
REMARK    2  A    between atoms: C_10  and  C_11
REMARK    3  A    between atoms: C_18  and  C_19
REMARK    4  A    between atoms: C_19  and  C_20
REMARK    5  A    between atoms: C_20  and  C_21
REMARK                            x       y       z     vdW  Elec       q    Type
REMARK                         _______ _______ _______ _____ _____    ______ ____
ROOT
ATOM      1  C   UNL     1       1.833   8.394  21.579  0.00  0.00    +0.000 C 
ATOM      2  N   UNL     1       1.878   7.419  20.489  0.00  0.00    +0.000 N 
ATOM      3  C   UNL     1       1.791   6.036  20.936  0.00  0.00    +0.000 C 
ATOM      4  C   UNL     1       1.633   4.950  19.899  0.00  0.00    +0.000 A 
ATOM      5  C   UNL     1       0.706   3.916  20.152  0.00  0.00    +0.000 A 
ATOM      6  C   UNL     1       0.655   2.773  19.356  0.00  0.00    +0.000 A 
ATOM      7  C   UNL     1       1.542   2.635  18.302  0.00  0.00    +0.000 A 
ATOM      8  C   UNL     1       2.438   3.662  18.017  0.00  0.00    +0.000 A 
ATOM      9  C   UNL     1       2.488   4.848  18.786  0.00  0.00    +0.000 A 
ATOM     10  C   UNL     1       3.434   6.006  18.444  0.00  0.00    +0.000 C 
ATOM     11  N   UNL     1       2.701   7.258  18.237  0.00  0.00    +0.000 NA
ATOM     12  C   UNL     1       2.050   7.834  19.178  0.00  0.00    +0.000 C 
ENDROOT
BRANCH  10  13
ATOM     13  C   UNL     1       4.283   5.711  17.193  0.00  0.00    +0.000 A 
ATOM     14  C   UNL     1       4.920   4.463  17.047  0.00  0.00    +0.000 A 
ATOM     15  C   UNL     1       5.899   4.270  16.072  0.00  0.00    +0.000 A 
ATOM     16  C   UNL     1       6.249   5.316  15.224  0.00  0.00    +0.000 A 
ATOM     17  C   UNL     1       5.590   6.542  15.318  0.00  0.00    +0.000 A 
ATOM     18  C   UNL     1       4.603   6.738  16.289  0.00  0.00    +0.000 A 
ENDBRANCH  10  13
BRANCH  12  19
ATOM     19  C   UNL     1       1.435   9.194  18.798  0.00  0.00    +0.000 C 
BRANCH  19  20
ATOM     20  C   UNL     1       0.518   9.139  17.575  0.00  0.00    +0.000 C 
BRANCH  20  21
ATOM     21  C   UNL     1      -0.756   9.918  17.815  0.00  0.00    +0.000 A 
ATOM     22  C   UNL     1      -1.923   9.602  17.107  0.00  0.00    +0.000 A 
ATOM     23  C   UNL     1      -3.089  10.343  17.301  0.00  0.00    +0.000 A 
ATOM     24  C   UNL     1      -3.100  11.410  18.198  0.00  0.00    +0.000 A 
ATOM     25  C   UNL     1      -1.943  11.735  18.904  0.00  0.00    +0.000 A 
ATOM     26  C   UNL     1      -0.775  10.994  18.713  0.00  0.00    +0.000 A 
ENDBRANCH  20  21
ENDBRANCH  19  20
ENDBRANCH  12  19
TORSDOF 4
ENDMDL
