MODEL 1
REMARK VINA RESULT:      -7.9      0.000      0.000
REMARK  Name = 
REMARK  2 active torsions:
REMARK  status: ('A' for Active; 'I' for Inactive)
REMARK    1  A    between atoms: C_6  and  N_7
REMARK    2  A    between atoms: N_7  and  C_8
REMARK                            x       y       z     vdW  Elec       q    Type
REMARK                         _______ _______ _______ _____ _____    ______ ____
ROOT
ATOM      1  F   UNL     1       8.797   7.843  18.882  0.00  0.00    +0.000 F 
ATOM      2  C   UNL     1       7.952   6.905  18.438  0.00  0.00    +0.000 A 
ATOM      3  C   UNL     1       7.419   5.992  19.329  0.00  0.00    +0.000 A 
ATOM      4  C   UNL     1       6.539   5.019  18.858  0.00  0.00    +0.000 A 
ATOM      5  C   UNL     1       6.188   4.946  17.483  0.00  0.00    +0.000 A 
ATOM      6  C   UNL     1       5.295   3.989  16.921  0.00  0.00    +0.000 A 
ATOM      7  C   UNL     1       5.087   4.000  15.537  0.00  0.00    +0.000 A 
ATOM      8  C   UNL     1       5.698   4.971  14.774  0.00  0.00    +0.000 A 
ATOM      9  N   UNL     1       6.511   5.915  15.281  0.00  0.00    +0.000 NA
ATOM     10  C   UNL     1       6.759   5.895  16.597  0.00  0.00    +0.000 A 
ATOM     11  C   UNL     1       7.625   6.857  17.091  0.00  0.00    +0.000 A 
ENDROOT
BRANCH   6  12
ATOM     12  N   UNL     1       4.657   2.996  17.710  0.00  0.00    +0.000 N 
ATOM     13  H   UNL     1       5.297   2.473  18.297  0.00  0.00    +0.000 HD
BRANCH  12  14
ATOM     14  C   UNL     1       3.394   3.054  18.347  0.00  0.00    +0.000 A 
ATOM     15  C   UNL     1       2.418   2.063  18.182  0.00  0.00    +0.000 A 
ATOM     16  C   UNL     1       1.169   2.177  18.799  0.00  0.00    +0.000 A 
ATOM     17  C   UNL     1       0.879   3.289  19.585  0.00  0.00    +0.000 A 
ATOM     18  C   UNL     1       1.841   4.282  19.752  0.00  0.00    +0.000 A 
ATOM     19 BR   UNL     1       1.445   5.801  20.805  0.00  0.00    +0.000 Br
ATOM     20  C   UNL     1       3.090   4.171  19.136  0.00  0.00    +0.000 A 
ENDBRANCH  12  14
ENDBRANCH   6  12
TORSDOF 2
ENDMDL
MODEL 2
REMARK VINA RESULT:      -7.9      1.047      1.086
REMARK  Name = 
REMARK  2 active torsions:
REMARK  status: ('A' for Active; 'I' for Inactive)
REMARK    1  A    between atoms: C_6  and  N_7
REMARK    2  A    between atoms: N_7  and  C_8
REMARK                            x       y       z     vdW  Elec       q    Type
REMARK                         _______ _______ _______ _____ _____    ______ ____
ROOT
ATOM      1  F   UNL     1       8.704   7.767  18.921  0.00  0.00    +0.000 F 
ATOM      2  C   UNL     1       7.899   6.825  18.415  0.00  0.00    +0.000 A 
ATOM      3  C   UNL     1       7.265   5.941  19.268  0.00  0.00    +0.000 A 
ATOM      4  C   UNL     1       6.428   4.964  18.732  0.00  0.00    +0.000 A 
ATOM      5  C   UNL     1       6.223   4.857  17.330  0.00  0.00    +0.000 A 
ATOM      6  C   UNL     1       5.383   3.894  16.702  0.00  0.00    +0.000 A 
ATOM      7  C   UNL     1       5.321   3.869  15.304  0.00  0.00    +0.000 A 
ATOM      8  C   UNL     1       6.020   4.814  14.584  0.00  0.00    +0.000 A 
ATOM      9  N   UNL     1       6.786   5.764  15.150  0.00  0.00    +0.000 NA
ATOM     10  C   UNL     1       6.895   5.778  16.485  0.00  0.00    +0.000 A 
ATOM     11  C   UNL     1       7.715   6.745  17.042  0.00  0.00    +0.000 A 
ENDROOT
BRANCH   6  12
ATOM     12  N   UNL     1       4.654   2.928  17.445  0.00  0.00    +0.000 N 
ATOM     13  H   UNL     1       5.239   2.335  18.022  0.00  0.00    +0.000 HD
BRANCH  12  14
ATOM     14  C   UNL     1       3.387   3.064  18.064  0.00  0.00    +0.000 A 
ATOM     15  C   UNL     1       2.253   3.511  17.375  0.00  0.00    +0.000 A 
ATOM     16  C   UNL     1       1.030   3.667  18.033  0.00  0.00    +0.000 A 
ATOM     17  C   UNL     1       0.928   3.382  19.392  0.00  0.00    +0.000 A 
ATOM     18  C   UNL     1       2.052   2.941  20.087  0.00  0.00    +0.000 A 
ATOM     19 BR   UNL     1       1.922   2.570  21.937  0.00  0.00    +0.000 Br
ATOM     20  C   UNL     1       3.276   2.785  19.432  0.00  0.00    +0.000 A 
ENDBRANCH  12  14
ENDBRANCH   6  12
TORSDOF 2
ENDMDL
MODEL 3
REMARK VINA RESULT:      -7.8      2.379      3.496
REMARK  Name = 
REMARK  2 active torsions:
REMARK  status: ('A' for Active; 'I' for Inactive)
REMARK    1  A    between atoms: C_6  and  N_7
REMARK    2  A    between atoms: N_7  and  C_8
REMARK                            x       y       z     vdW  Elec       q    Type
REMARK                         _______ _______ _______ _____ _____    ______ ____
ROOT
ATOM      1  F   UNL     1       7.566   4.829  11.605  0.00  0.00    +0.000 F 
ATOM      2  C   UNL     1       7.110   4.625  12.847  0.00  0.00    +0.000 A 
ATOM      3  C   UNL     1       6.162   3.644  13.072  0.00  0.00    +0.000 A 
ATOM      4  C   UNL     1       5.694   3.438  14.368  0.00  0.00    +0.000 A 
ATOM      5  C   UNL     1       6.167   4.220  15.456  0.00  0.00    +0.000 A 
ATOM      6  C   UNL     1       5.747   4.073  16.809  0.00  0.00    +0.000 A 
ATOM      7  C   UNL     1       6.256   4.954  17.769  0.00  0.00    +0.000 A 
ATOM      8  C   UNL     1       7.193   5.891  17.390  0.00  0.00    +0.000 A 
ATOM      9  N   UNL     1       7.643   6.026  16.130  0.00  0.00    +0.000 NA
ATOM     10  C   UNL     1       7.135   5.222  15.186  0.00  0.00    +0.000 A 
ATOM     11  C   UNL     1       7.591   5.402  13.891  0.00  0.00    +0.000 A 
ENDROOT
BRANCH   6  12
ATOM     12  N   UNL     1       4.790   3.099  17.200  0.00  0.00    +0.000 N 
ATOM     13  H   UNL     1       5.203   2.231  17.521  0.00  0.00    +0.000 HD
BRANCH  12  14
ATOM     14  C   UNL     1       3.556   3.294  17.866  0.00  0.00    +0.000 A 
ATOM     15  C   UNL     1       2.430   3.829  17.231  0.00  0.00    +0.000 A 
ATOM     16  C   UNL     1       1.241   4.040  17.935  0.00  0.00    +0.000 A 
ATOM     17  C   UNL     1       1.167   3.722  19.289  0.00  0.00    +0.000 A 
ATOM     18  C   UNL     1       2.284   3.192  19.931  0.00  0.00    +0.000 A 
ATOM     19 BR   UNL     1       2.192   2.773  21.773  0.00  0.00    +0.000 Br
ATOM     20  C   UNL     1       3.473   2.981  19.229  0.00  0.00    +0.000 A 
ENDBRANCH  12  14
ENDBRANCH   6  12
TORSDOF 2
ENDMDL
MODEL 4
REMARK VINA RESULT:      -7.7      3.826      6.454
REMARK  Name = 
REMARK  2 active torsions:
REMARK  status: ('A' for Active; 'I' for Inactive)
REMARK    1  A    between atoms: C_6  and  N_7
REMARK    2  A    between atoms: N_7  and  C_8
REMARK                            x       y       z     vdW  Elec       q    Type
REMARK                         _______ _______ _______ _____ _____    ______ ____
ROOT
ATOM      1  F   UNL     1       0.389   2.288  18.849  0.00  0.00    +0.000 F 
ATOM      2  C   UNL     1       1.463   2.931  18.374  0.00  0.00    +0.000 A 
ATOM      3  C   UNL     1       2.506   2.204  17.830  0.00  0.00    +0.000 A 
ATOM      4  C   UNL     1       3.619   2.882  17.337  0.00  0.00    +0.000 A 
ATOM      5  C   UNL     1       3.703   4.300  17.390  0.00  0.00    +0.000 A 
ATOM      6  C   UNL     1       4.799   5.069  16.905  0.00  0.00    +0.000 A 
ATOM      7  C   UNL     1       4.770   6.458  17.077  0.00  0.00    +0.000 A 
ATOM      8  C   UNL     1       3.660   7.041  17.647  0.00  0.00    +0.000 A 
ATOM      9  N   UNL     1       2.590   6.347  18.074  0.00  0.00    +0.000 NA
ATOM     10  C   UNL     1       2.616   5.011  17.960  0.00  0.00    +0.000 A 
ATOM     11  C   UNL     1       1.517   4.316  18.436  0.00  0.00    +0.000 A 
ENDROOT
BRANCH   6  12
ATOM     12  N   UNL     1       5.937   4.468  16.307  0.00  0.00    +0.000 N 
ATOM     13  H   UNL     1       6.209   3.594  16.742  0.00  0.00    +0.000 HD
BRANCH  12  14
ATOM     14  C   UNL     1       6.298   4.430  14.938  0.00  0.00    +0.000 A 
ATOM     15  C   UNL     1       7.478   5.002  14.451  0.00  0.00    +0.000 A 
ATOM     16  C   UNL     1       7.778   4.976  13.085  0.00  0.00    +0.000 A 
ATOM     17  C   UNL     1       6.895   4.379  12.189  0.00  0.00    +0.000 A 
ATOM     18  C   UNL     1       5.716   3.811  12.665  0.00  0.00    +0.000 A 
ATOM     19 BR   UNL     1       4.506   3.014  11.448  0.00  0.00    +0.000 Br
ATOM     20  C   UNL     1       5.413   3.836  14.028  0.00  0.00    +0.000 A 
ENDBRANCH  12  14
ENDBRANCH   6  12
TORSDOF 2
ENDMDL
MODEL 5
REMARK VINA RESULT:      -7.6      2.236      3.320
REMARK  Name = 
REMARK  2 active torsions:
REMARK  status: ('A' for Active; 'I' for Inactive)
REMARK    1  A    between atoms: C_6  and  N_7
REMARK    2  A    between atoms: N_7  and  C_8
REMARK                            x       y       z     vdW  Elec       q    Type
REMARK                         _______ _______ _______ _____ _____    ______ ____
ROOT
ATOM      1  F   UNL     1       6.885   4.426  12.426  0.00  0.00    +0.000 F 
ATOM      2  C   UNL     1       6.684   4.467  13.749  0.00  0.00    +0.000 A 
ATOM      3  C   UNL     1       5.891   3.505  14.347  0.00  0.00    +0.000 A 
ATOM      4  C   UNL     1       5.689   3.556  15.725  0.00  0.00    +0.000 A 
ATOM      5  C   UNL     1       6.275   4.577  16.520  0.00  0.00    +0.000 A 
ATOM      6  C   UNL     1       6.124   4.699  17.931  0.00  0.00    +0.000 A 
ATOM      7  C   UNL     1       6.712   5.792  18.576  0.00  0.00    +0.000 A 
ATOM      8  C   UNL     1       7.471   6.677  17.841  0.00  0.00    +0.000 A 
ATOM      9  N   UNL     1       7.669   6.565  16.516  0.00  0.00    +0.000 NA
ATOM     10  C   UNL     1       7.077   5.550  15.870  0.00  0.00    +0.000 A 
ATOM     11  C   UNL     1       7.270   5.475  14.501  0.00  0.00    +0.000 A 
ENDROOT
BRANCH   6  12
ATOM     12  N   UNL     1       5.352   3.779  18.689  0.00  0.00    +0.000 N 
ATOM     13  H   UNL     1       5.807   3.474  19.542  0.00  0.00    +0.000 HD
BRANCH  12  14
ATOM     14  C   UNL     1       3.950   3.757  18.886  0.00  0.00    +0.000 A 
ATOM     15  C   UNL     1       3.049   4.316  17.972  0.00  0.00    +0.000 A 
ATOM     16  C   UNL     1       1.674   4.306  18.222  0.00  0.00    +0.000 A 
ATOM     17  C   UNL     1       1.183   3.739  19.395  0.00  0.00    +0.000 A 
ATOM     18  C   UNL     1       2.072   3.184  20.313  0.00  0.00    +0.000 A 
ATOM     19 BR   UNL     1       1.410   2.429  21.915  0.00  0.00    +0.000 Br
ATOM     20  C   UNL     1       3.447   3.193  20.066  0.00  0.00    +0.000 A 
ENDBRANCH  12  14
ENDBRANCH   6  12
TORSDOF 2
ENDMDL
MODEL 6
REMARK VINA RESULT:      -7.4      3.794      5.619
REMARK  Name = 
REMARK  2 active torsions:
REMARK  status: ('A' for Active; 'I' for Inactive)
REMARK    1  A    between atoms: C_6  and  N_7
REMARK    2  A    between atoms: N_7  and  C_8
REMARK                            x       y       z     vdW  Elec       q    Type
REMARK                         _______ _______ _______ _____ _____    ______ ____
ROOT
ATOM      1  F   UNL     1       5.411   3.257  15.968  0.00  0.00    +0.000 F 
ATOM      2  C   UNL     1       4.663   3.797  16.938  0.00  0.00    +0.000 A 
ATOM      3  C   UNL     1       4.947   5.074  17.386  0.00  0.00    +0.000 A 
ATOM      4  C   UNL     1       4.163   5.628  18.395  0.00  0.00    +0.000 A 
ATOM      5  C   UNL     1       3.086   4.904  18.975  0.00  0.00    +0.000 A 
ATOM      6  C   UNL     1       2.234   5.397  20.004  0.00  0.00    +0.000 A 
ATOM      7  C   UNL     1       1.248   4.549  20.521  0.00  0.00    +0.000 A 
ATOM      8  C   UNL     1       1.090   3.293  19.976  0.00  0.00    +0.000 A 
ATOM      9  N   UNL     1       1.848   2.816  18.973  0.00  0.00    +0.000 NA
ATOM     10  C   UNL     1       2.828   3.594  18.494  0.00  0.00    +0.000 A 
ATOM     11  C   UNL     1       3.616   3.068  17.484  0.00  0.00    +0.000 A 
ENDROOT
BRANCH   6  12
ATOM     12  N   UNL     1       2.391   6.695  20.557  0.00  0.00    +0.000 N 
ATOM     13  H   UNL     1       3.347   6.913  20.815  0.00  0.00    +0.000 HD
BRANCH  12  14
ATOM     14  C   UNL     1       1.730   7.894  20.194  0.00  0.00    +0.000 A 
ATOM     15  C   UNL     1       1.796   8.433  18.904  0.00  0.00    +0.000 A 
ATOM     16  C   UNL     1       1.160   9.639  18.597  0.00  0.00    +0.000 A 
ATOM     17  C   UNL     1       0.452  10.324  19.581  0.00  0.00    +0.000 A 
ATOM     18  C   UNL     1       0.384   9.797  20.868  0.00  0.00    +0.000 A 
ATOM     19 BR   UNL     1      -0.563  10.733  22.212  0.00  0.00    +0.000 Br
ATOM     20  C   UNL     1       1.019   8.593  21.178  0.00  0.00    +0.000 A 
ENDBRANCH  12  14
ENDBRANCH   6  12
TORSDOF 2
ENDMDL
MODEL 7
REMARK VINA RESULT:      -7.4      2.015      3.092
REMARK  Name = 
REMARK  2 active torsions:
REMARK  status: ('A' for Active; 'I' for Inactive)
REMARK    1  A    between atoms: C_6  and  N_7
REMARK    2  A    between atoms: N_7  and  C_8
REMARK                            x       y       z     vdW  Elec       q    Type
REMARK                         _______ _______ _______ _____ _____    ______ ____
ROOT
ATOM      1  F   UNL     1       7.180   4.724  13.015  0.00  0.00    +0.000 F 
ATOM      2  C   UNL     1       6.856   4.632  14.311  0.00  0.00    +0.000 A 
ATOM      3  C   UNL     1       5.912   3.705  14.712  0.00  0.00    +0.000 A 
ATOM      4  C   UNL     1       5.582   3.616  16.064  0.00  0.00    +0.000 A 
ATOM      5  C   UNL     1       6.191   4.463  17.029  0.00  0.00    +0.000 A 
ATOM      6  C   UNL     1       5.915   4.434  18.426  0.00  0.00    +0.000 A 
ATOM      7  C   UNL     1       6.549   5.369  19.253  0.00  0.00    +0.000 A 
ATOM      8  C   UNL     1       7.464   6.240  18.703  0.00  0.00    +0.000 A 
ATOM      9  N   UNL     1       7.778   6.263  17.396  0.00  0.00    +0.000 NA
ATOM     10  C   UNL     1       7.150   5.406  16.578  0.00  0.00    +0.000 A 
ATOM     11  C   UNL     1       7.468   5.470  15.232  0.00  0.00    +0.000 A 
ENDROOT
BRANCH   6  12
ATOM     12  N   UNL     1       4.981   3.528  18.993  0.00  0.00    +0.000 N 
ATOM     13  H   UNL     1       5.413   2.780  19.523  0.00  0.00    +0.000 HD
BRANCH  12  14
ATOM     14  C   UNL     1       3.708   3.806  19.546  0.00  0.00    +0.000 A 
ATOM     15  C   UNL     1       2.772   2.804  19.831  0.00  0.00    +0.000 A 
ATOM     16  C   UNL     1       1.511   3.125  20.342  0.00  0.00    +0.000 A 
ATOM     17  C   UNL     1       1.169   4.456  20.570  0.00  0.00    +0.000 A 
ATOM     18  C   UNL     1       2.092   5.459  20.286  0.00  0.00    +0.000 A 
ATOM     19 BR   UNL     1       1.625   7.268  20.578  0.00  0.00    +0.000 Br
ATOM     20  C   UNL     1       3.352   5.142  19.774  0.00  0.00    +0.000 A 
ENDBRANCH  12  14
ENDBRANCH   6  12
TORSDOF 2
ENDMDL
MODEL 8
REMARK VINA RESULT:      -7.3      2.471      3.849
REMARK  Name = 
REMARK  2 active torsions:
REMARK  status: ('A' for Active; 'I' for Inactive)
REMARK    1  A    between atoms: C_6  and  N_7
REMARK    2  A    between atoms: N_7  and  C_8
REMARK                            x       y       z     vdW  Elec       q    Type
REMARK                         _______ _______ _______ _____ _____    ______ ____
ROOT
ATOM      1  F   UNL     1       7.311   4.092  11.605  0.00  0.00    +0.000 F 
ATOM      2  C   UNL     1       6.774   4.281  12.816  0.00  0.00    +0.000 A 
ATOM      3  C   UNL     1       5.554   3.705  13.118  0.00  0.00    +0.000 A 
ATOM      4  C   UNL     1       5.003   3.907  14.382  0.00  0.00    +0.000 A 
ATOM      5  C   UNL     1       5.667   4.697  15.359  0.00  0.00    +0.000 A 
ATOM      6  C   UNL     1       5.178   4.949  16.672  0.00  0.00    +0.000 A 
ATOM      7  C   UNL     1       5.912   5.795  17.510  0.00  0.00    +0.000 A 
ATOM      8  C   UNL     1       7.113   6.304  17.064  0.00  0.00    +0.000 A 
ATOM      9  N   UNL     1       7.623   6.049  15.847  0.00  0.00    +0.000 NA
ATOM     10  C   UNL     1       6.914   5.277  15.011  0.00  0.00    +0.000 A 
ATOM     11  C   UNL     1       7.445   5.055  13.752  0.00  0.00    +0.000 A 
ENDROOT
BRANCH   6  12
ATOM     12  N   UNL     1       3.946   4.414  17.134  0.00  0.00    +0.000 N 
ATOM     13  H   UNL     1       3.857   3.415  16.986  0.00  0.00    +0.000 HD
BRANCH  12  14
ATOM     14  C   UNL     1       3.205   4.775  18.286  0.00  0.00    +0.000 A 
ATOM     15  C   UNL     1       2.908   6.104  18.608  0.00  0.00    +0.000 A 
ATOM     16  C   UNL     1       2.206   6.420  19.775  0.00  0.00    +0.000 A 
ATOM     17  C   UNL     1       1.797   5.406  20.638  0.00  0.00    +0.000 A 
ATOM     18  C   UNL     1       2.091   4.081  20.328  0.00  0.00    +0.000 A 
ATOM     19 BR   UNL     1       1.552   2.703  21.505  0.00  0.00    +0.000 Br
ATOM     20  C   UNL     1       2.793   3.763  19.163  0.00  0.00    +0.000 A 
ENDBRANCH  12  14
ENDBRANCH   6  12
TORSDOF 2
ENDMDL
MODEL 9
REMARK VINA RESULT:      -7.3      4.317      6.120
REMARK  Name = 
REMARK  2 active torsions:
REMARK  status: ('A' for Active; 'I' for Inactive)
REMARK    1  A    between atoms: C_6  and  N_7
REMARK    2  A    between atoms: N_7  and  C_8
REMARK                            x       y       z     vdW  Elec       q    Type
REMARK                         _______ _______ _______ _____ _____    ______ ____
ROOT
ATOM      1  F   UNL     1       0.361   1.284  18.765  0.00  0.00    +0.000 F 
ATOM      2  C   UNL     1       0.981   2.466  18.880  0.00  0.00    +0.000 A 
ATOM      3  C   UNL     1       0.612   3.332  19.893  0.00  0.00    +0.000 A 
ATOM      4  C   UNL     1       1.263   4.559  20.006  0.00  0.00    +0.000 A 
ATOM      5  C   UNL     1       2.289   4.936  19.097  0.00  0.00    +0.000 A 
ATOM      6  C   UNL     1       3.006   6.165  19.144  0.00  0.00    +0.000 A 
ATOM      7  C   UNL     1       3.952   6.427  18.147  0.00  0.00    +0.000 A 
ATOM      8  C   UNL     1       4.206   5.466  17.193  0.00  0.00    +0.000 A 
ATOM      9  N   UNL     1       3.577   4.278  17.148  0.00  0.00    +0.000 NA
ATOM     10  C   UNL     1       2.635   4.024  18.067  0.00  0.00    +0.000 A 
ATOM     11  C   UNL     1       1.980   2.808  17.980  0.00  0.00    +0.000 A 
ENDROOT
BRANCH   6  12
ATOM     12  N   UNL     1       2.752   7.150  20.135  0.00  0.00    +0.000 N 
ATOM     13  H   UNL     1       3.592   7.502  20.581  0.00  0.00    +0.000 HD
BRANCH  12  14
ATOM     14  C   UNL     1       1.773   8.173  20.130  0.00  0.00    +0.000 A 
ATOM     15  C   UNL     1       1.429   8.886  18.976  0.00  0.00    +0.000 A 
ATOM     16  C   UNL     1       0.484   9.915  19.023  0.00  0.00    +0.000 A 
ATOM     17  C   UNL     1      -0.127  10.245  20.230  0.00  0.00    +0.000 A 
ATOM     18  C   UNL     1       0.211   9.543  21.385  0.00  0.00    +0.000 A 
ATOM     19 BR   UNL     1      -0.605  10.001  23.029  0.00  0.00    +0.000 Br
ATOM     20  C   UNL     1       1.156   8.516  21.341  0.00  0.00    +0.000 A 
ENDBRANCH  12  14
ENDBRANCH   6  12
TORSDOF 2
ENDMDL
