MODEL 1
REMARK VINA RESULT:      -7.4      0.000      0.000
REMARK  Name = 
REMARK  7 active torsions:
REMARK  status: ('A' for Active; 'I' for Inactive)
REMARK    1  A    between atoms: C_2  and  O_3
REMARK    2  A    between atoms: C_2  and  C_4
REMARK    3  A    between atoms: C_4  and  C_5
REMARK    4  A    between atoms: C_5  and  C_6
REMARK    5  A    between atoms: C_9  and  N_10
REMARK    6  A    between atoms: N_10  and  C_11
REMARK    7  A    between atoms: C_11  and  C_12
REMARK                            x       y       z     vdW  Elec       q    Type
REMARK                         _______ _______ _______ _____ _____    ______ ____
ROOT
ATOM      1  C   UNL     1       1.870   7.316  20.250  0.00  0.00    +0.000 A 
ATOM      2  C   UNL     1       2.285   7.575  18.940  0.00  0.00    +0.000 A 
ATOM      3  C   UNL     1       2.521   6.520  18.053  0.00  0.00    +0.000 A 
ATOM      4  C   UNL     1       2.398   5.187  18.462  0.00  0.00    +0.000 A 
ATOM      5  C   UNL     1       1.942   4.941  19.758  0.00  0.00    +0.000 A 
ATOM      6  C   UNL     1       1.692   5.987  20.647  0.00  0.00    +0.000 A 
ENDROOT
BRANCH   4   7
ATOM      7  N   UNL     1       2.611   4.161  17.539  0.00  0.00    +0.000 N 
ATOM      8  H   UNL     1       2.592   4.510  16.581  0.00  0.00    +0.000 HD
BRANCH   7   9
ATOM      9  C   UNL     1       3.742   3.258  17.762  0.00  0.00    +0.000 C 
BRANCH   9  10
ATOM     10  C   UNL     1       4.987   3.985  17.316  0.00  0.00    +0.000 A 
ATOM     11  C   UNL     1       5.136   4.377  15.962  0.00  0.00    +0.000 A 
ATOM     12  C   UNL     1       6.109   5.308  15.590  0.00  0.00    +0.000 A 
ATOM     13  C   UNL     1       6.865   5.857  16.600  0.00  0.00    +0.000 A 
ATOM     14  C   UNL     1       6.770   5.426  17.906  0.00  0.00    +0.000 A 
ATOM     15  C   UNL     1       5.879   4.457  18.292  0.00  0.00    +0.000 A 
ATOM     16  O   UNL     1       7.526   6.180  18.752  0.00  0.00    +0.000 OA
ATOM     17  C   UNL     1       7.768   7.306  17.885  0.00  0.00    +0.000 C 
ATOM     18  O   UNL     1       7.679   6.946  16.489  0.00  0.00    +0.000 OA
ENDBRANCH   9  10
ENDBRANCH   7   9
ENDBRANCH   4   7
BRANCH   1  19
ATOM     19  C   UNL     1       1.610   8.432  21.228  0.00  0.00    +0.000 C 
BRANCH  19  20
ATOM     20  C   UNL     1       0.124   8.585  21.549  0.00  0.00    +0.000 C 
BRANCH  20  22
ATOM     21  O   UNL     1       0.359  10.913  22.180  0.00  0.00    +0.000 OA
ATOM     22  C   UNL     1      -0.127   9.810  22.378  0.00  0.00    +0.000 C 
BRANCH  22  23
ATOM     23  O   UNL     1      -0.986   9.576  23.402  0.00  0.00    +0.000 OA
ATOM     24  H   UNL     1      -0.571   9.663  24.285  0.00  0.00    +0.000 HD
ENDBRANCH  22  23
ENDBRANCH  20  22
ENDBRANCH  19  20
ENDBRANCH   1  19
TORSDOF 7
ENDMDL
MODEL 2
REMARK VINA RESULT:      -7.4      0.749      1.266
REMARK  Name = 
REMARK  7 active torsions:
REMARK  status: ('A' for Active; 'I' for Inactive)
REMARK    1  A    between atoms: C_2  and  O_3
REMARK    2  A    between atoms: C_2  and  C_4
REMARK    3  A    between atoms: C_4  and  C_5
REMARK    4  A    between atoms: C_5  and  C_6
REMARK    5  A    between atoms: C_9  and  N_10
REMARK    6  A    between atoms: N_10  and  C_11
REMARK    7  A    between atoms: C_11  and  C_12
REMARK                            x       y       z     vdW  Elec       q    Type
REMARK                         _______ _______ _______ _____ _____    ______ ____
ROOT
ATOM      1  C   UNL     1       1.698   7.806  20.134  0.00  0.00    +0.000 A 
ATOM      2  C   UNL     1       1.570   6.594  20.820  0.00  0.00    +0.000 A 
ATOM      3  C   UNL     1       1.948   5.394  20.209  0.00  0.00    +0.000 A 
ATOM      4  C   UNL     1       2.414   5.368  18.889  0.00  0.00    +0.000 A 
ATOM      5  C   UNL     1       2.578   6.587  18.230  0.00  0.00    +0.000 A 
ATOM      6  C   UNL     1       2.216   7.791  18.835  0.00  0.00    +0.000 A 
ENDROOT
BRANCH   4   7
ATOM      7  N   UNL     1       2.811   4.155  18.324  0.00  0.00    +0.000 N 
ATOM      8  H   UNL     1       2.821   4.202  17.305  0.00  0.00    +0.000 HD
BRANCH   7   9
ATOM      9  C   UNL     1       4.020   3.513  18.847  0.00  0.00    +0.000 C 
BRANCH   9  10
ATOM     10  C   UNL     1       5.198   4.144  18.145  0.00  0.00    +0.000 A 
ATOM     11  C   UNL     1       5.230   4.212  16.730  0.00  0.00    +0.000 A 
ATOM     12  C   UNL     1       6.134   5.052  16.075  0.00  0.00    +0.000 A 
ATOM     13  C   UNL     1       6.939   5.839  16.865  0.00  0.00    +0.000 A 
ATOM     14  C   UNL     1       6.958   5.723  18.238  0.00  0.00    +0.000 A 
ATOM     15  C   UNL     1       6.138   4.852  18.909  0.00  0.00    +0.000 A 
ATOM     16  O   UNL     1       7.743   6.671  18.823  0.00  0.00    +0.000 OA
ATOM     17  C   UNL     1       7.874   7.568  17.702  0.00  0.00    +0.000 C 
ATOM     18  O   UNL     1       7.698   6.890  16.439  0.00  0.00    +0.000 OA
ENDBRANCH   9  10
ENDBRANCH   7   9
ENDBRANCH   4   7
BRANCH   1  19
ATOM     19  C   UNL     1       1.297   9.113  20.767  0.00  0.00    +0.000 C 
BRANCH  19  20
ATOM     20  C   UNL     1       1.319   9.047  22.294  0.00  0.00    +0.000 C 
BRANCH  20  22
ATOM     21  O   UNL     1      -0.226  10.645  23.259  0.00  0.00    +0.000 OA
ATOM     22  C   UNL     1       0.015   9.512  22.873  0.00  0.00    +0.000 C 
BRANCH  22  23
ATOM     23  O   UNL     1      -0.912   8.523  22.920  0.00  0.00    +0.000 OA
ATOM     24  H   UNL     1      -0.543   7.656  23.190  0.00  0.00    +0.000 HD
ENDBRANCH  22  23
ENDBRANCH  20  22
ENDBRANCH  19  20
ENDBRANCH   1  19
TORSDOF 7
ENDMDL
MODEL 3
REMARK VINA RESULT:      -7.3      3.375      6.622
REMARK  Name = 
REMARK  7 active torsions:
REMARK  status: ('A' for Active; 'I' for Inactive)
REMARK    1  A    between atoms: C_2  and  O_3
REMARK    2  A    between atoms: C_2  and  C_4
REMARK    3  A    between atoms: C_4  and  C_5
REMARK    4  A    between atoms: C_5  and  C_6
REMARK    5  A    between atoms: C_9  and  N_10
REMARK    6  A    between atoms: N_10  and  C_11
REMARK    7  A    between atoms: C_11  and  C_12
REMARK                            x       y       z     vdW  Elec       q    Type
REMARK                         _______ _______ _______ _____ _____    ______ ____
ROOT
ATOM      1  C   UNL     1       7.980   7.265  18.263  0.00  0.00    +0.000 A 
ATOM      2  C   UNL     1       8.056   6.063  18.973  0.00  0.00    +0.000 A 
ATOM      3  C   UNL     1       7.433   4.912  18.482  0.00  0.00    +0.000 A 
ATOM      4  C   UNL     1       6.681   4.942  17.300  0.00  0.00    +0.000 A 
ATOM      5  C   UNL     1       6.648   6.136  16.578  0.00  0.00    +0.000 A 
ATOM      6  C   UNL     1       7.277   7.287  17.054  0.00  0.00    +0.000 A 
ENDROOT
BRANCH   4   7
ATOM      7  N   UNL     1       6.099   3.766  16.825  0.00  0.00    +0.000 N 
ATOM      8  H   UNL     1       6.373   2.960  17.386  0.00  0.00    +0.000 HD
BRANCH   7   9
ATOM      9  C   UNL     1       4.661   3.770  16.550  0.00  0.00    +0.000 C 
BRANCH   9  10
ATOM     10  C   UNL     1       3.964   4.151  17.834  0.00  0.00    +0.000 A 
ATOM     11  C   UNL     1       2.993   5.184  17.838  0.00  0.00    +0.000 A 
ATOM     12  C   UNL     1       2.122   5.343  18.918  0.00  0.00    +0.000 A 
ATOM     13  C   UNL     1       2.218   4.423  19.937  0.00  0.00    +0.000 A 
ATOM     14  C   UNL     1       3.206   3.462  19.967  0.00  0.00    +0.000 A 
ATOM     15  C   UNL     1       4.126   3.328  18.959  0.00  0.00    +0.000 A 
ATOM     16  O   UNL     1       3.045   2.593  21.004  0.00  0.00    +0.000 OA
ATOM     17  C   UNL     1       1.680   2.908  21.344  0.00  0.00    +0.000 C 
ATOM     18  O   UNL     1       1.315   4.247  20.944  0.00  0.00    +0.000 OA
ENDBRANCH   9  10
ENDBRANCH   7   9
ENDBRANCH   4   7
BRANCH   1  19
ATOM     19  C   UNL     1       8.640   8.521  18.770  0.00  0.00    +0.000 C 
BRANCH  19  20
ATOM     20  C   UNL     1       8.305   9.738  17.908  0.00  0.00    +0.000 C 
BRANCH  20  22
ATOM     21  O   UNL     1       9.163  11.997  17.717  0.00  0.00    +0.000 OA
ATOM     22  C   UNL     1       9.140  10.922  18.297  0.00  0.00    +0.000 C 
BRANCH  22  23
ATOM     23  O   UNL     1       9.890  10.686  19.403  0.00  0.00    +0.000 OA
ATOM     24  H   UNL     1      10.828  10.486  19.201  0.00  0.00    +0.000 HD
ENDBRANCH  22  23
ENDBRANCH  20  22
ENDBRANCH  19  20
ENDBRANCH   1  19
TORSDOF 7
ENDMDL
MODEL 4
REMARK VINA RESULT:      -7.2      0.497      1.254
REMARK  Name = 
REMARK  7 active torsions:
REMARK  status: ('A' for Active; 'I' for Inactive)
REMARK    1  A    between atoms: C_2  and  O_3
REMARK    2  A    between atoms: C_2  and  C_4
REMARK    3  A    between atoms: C_4  and  C_5
REMARK    4  A    between atoms: C_5  and  C_6
REMARK    5  A    between atoms: C_9  and  N_10
REMARK    6  A    between atoms: N_10  and  C_11
REMARK    7  A    between atoms: C_11  and  C_12
REMARK                            x       y       z     vdW  Elec       q    Type
REMARK                         _______ _______ _______ _____ _____    ______ ____
ROOT
ATOM      1  C   UNL     1       1.793   7.112  20.394  0.00  0.00    +0.000 A 
ATOM      2  C   UNL     1       1.635   5.753  20.683  0.00  0.00    +0.000 A 
ATOM      3  C   UNL     1       1.927   4.787  19.716  0.00  0.00    +0.000 A 
ATOM      4  C   UNL     1       2.335   5.151  18.427  0.00  0.00    +0.000 A 
ATOM      5  C   UNL     1       2.531   6.508  18.163  0.00  0.00    +0.000 A 
ATOM      6  C   UNL     1       2.254   7.479  19.125  0.00  0.00    +0.000 A 
ENDROOT
BRANCH   4   7
ATOM      7  N   UNL     1       2.648   4.157  17.498  0.00  0.00    +0.000 N 
ATOM      8  H   UNL     1       2.689   4.531  16.550  0.00  0.00    +0.000 HD
BRANCH   7   9
ATOM      9  C   UNL     1       3.787   3.281  17.783  0.00  0.00    +0.000 C 
BRANCH   9  10
ATOM     10  C   UNL     1       5.032   4.010  17.340  0.00  0.00    +0.000 A 
ATOM     11  C   UNL     1       5.194   4.383  15.982  0.00  0.00    +0.000 A 
ATOM     12  C   UNL     1       6.164   5.315  15.607  0.00  0.00    +0.000 A 
ATOM     13  C   UNL     1       6.904   5.886  16.617  0.00  0.00    +0.000 A 
ATOM     14  C   UNL     1       6.796   5.474  17.928  0.00  0.00    +0.000 A 
ATOM     15  C   UNL     1       5.908   4.504  18.319  0.00  0.00    +0.000 A 
ATOM     16  O   UNL     1       7.537   6.246  18.772  0.00  0.00    +0.000 OA
ATOM     17  C   UNL     1       7.781   7.360  17.891  0.00  0.00    +0.000 C 
ATOM     18  O   UNL     1       7.712   6.978  16.499  0.00  0.00    +0.000 OA
ENDBRANCH   9  10
ENDBRANCH   7   9
ENDBRANCH   4   7
BRANCH   1  19
ATOM     19  C   UNL     1       1.484   8.175  21.416  0.00  0.00    +0.000 C 
BRANCH  19  20
ATOM     20  C   UNL     1       0.610   9.291  20.843  0.00  0.00    +0.000 C 
BRANCH  20  22
ATOM     21  O   UNL     1       0.309  10.080  23.114  0.00  0.00    +0.000 OA
ATOM     22  C   UNL     1       0.210  10.265  21.911  0.00  0.00    +0.000 C 
BRANCH  22  23
ATOM     23  O   UNL     1      -0.281  11.422  21.399  0.00  0.00    +0.000 OA
ATOM     24  H   UNL     1      -0.855  11.911  22.026  0.00  0.00    +0.000 HD
ENDBRANCH  22  23
ENDBRANCH  20  22
ENDBRANCH  19  20
ENDBRANCH   1  19
TORSDOF 7
ENDMDL
MODEL 5
REMARK VINA RESULT:      -7.2      3.600      6.633
REMARK  Name = 
REMARK  7 active torsions:
REMARK  status: ('A' for Active; 'I' for Inactive)
REMARK    1  A    between atoms: C_2  and  O_3
REMARK    2  A    between atoms: C_2  and  C_4
REMARK    3  A    between atoms: C_4  and  C_5
REMARK    4  A    between atoms: C_5  and  C_6
REMARK    5  A    between atoms: C_9  and  N_10
REMARK    6  A    between atoms: N_10  and  C_11
REMARK    7  A    between atoms: C_11  and  C_12
REMARK                            x       y       z     vdW  Elec       q    Type
REMARK                         _______ _______ _______ _____ _____    ______ ____
ROOT
ATOM      1  C   UNL     1       7.945   7.327  18.328  0.00  0.00    +0.000 A 
ATOM      2  C   UNL     1       7.125   7.389  17.197  0.00  0.00    +0.000 A 
ATOM      3  C   UNL     1       6.379   6.274  16.804  0.00  0.00    +0.000 A 
ATOM      4  C   UNL     1       6.468   5.060  17.497  0.00  0.00    +0.000 A 
ATOM      5  C   UNL     1       7.256   5.023  18.649  0.00  0.00    +0.000 A 
ATOM      6  C   UNL     1       7.996   6.134  19.056  0.00  0.00    +0.000 A 
ENDROOT
BRANCH   4   7
ATOM      7  N   UNL     1       5.684   3.978  17.094  0.00  0.00    +0.000 N 
ATOM      8  H   UNL     1       5.604   3.279  17.832  0.00  0.00    +0.000 HD
BRANCH   7   9
ATOM      9  C   UNL     1       4.388   4.260  16.473  0.00  0.00    +0.000 C 
BRANCH   9  10
ATOM     10  C   UNL     1       3.323   3.900  17.481  0.00  0.00    +0.000 A 
ATOM     11  C   UNL     1       2.672   2.643  17.410  0.00  0.00    +0.000 A 
ATOM     12  C   UNL     1       1.926   2.163  18.489  0.00  0.00    +0.000 A 
ATOM     13  C   UNL     1       1.905   2.936  19.627  0.00  0.00    +0.000 A 
ATOM     14  C   UNL     1       2.480   4.188  19.673  0.00  0.00    +0.000 A 
ATOM     15  C   UNL     1       3.153   4.723  18.605  0.00  0.00    +0.000 A 
ATOM     16  O   UNL     1       2.438   4.726  20.924  0.00  0.00    +0.000 OA
ATOM     17  C   UNL     1       2.130   3.530  21.667  0.00  0.00    +0.000 C 
ATOM     18  O   UNL     1       1.457   2.543  20.854  0.00  0.00    +0.000 OA
ENDBRANCH   9  10
ENDBRANCH   7   9
ENDBRANCH   4   7
BRANCH   1  19
ATOM     19  C   UNL     1       8.762   8.512  18.773  0.00  0.00    +0.000 C 
BRANCH  19  20
ATOM     20  C   UNL     1       8.436   9.773  17.972  0.00  0.00    +0.000 C 
BRANCH  20  22
ATOM     21  O   UNL     1      10.326  11.247  17.615  0.00  0.00    +0.000 OA
ATOM     22  C   UNL     1       9.385  10.885  18.305  0.00  0.00    +0.000 C 
BRANCH  22  23
ATOM     23  O   UNL     1       9.086  11.486  19.485  0.00  0.00    +0.000 OA
ATOM     24  H   UNL     1       8.607  12.334  19.378  0.00  0.00    +0.000 HD
ENDBRANCH  22  23
ENDBRANCH  20  22
ENDBRANCH  19  20
ENDBRANCH   1  19
TORSDOF 7
ENDMDL
MODEL 6
REMARK VINA RESULT:      -7.2      3.596      6.743
REMARK  Name = 
REMARK  7 active torsions:
REMARK  status: ('A' for Active; 'I' for Inactive)
REMARK    1  A    between atoms: C_2  and  O_3
REMARK    2  A    between atoms: C_2  and  C_4
REMARK    3  A    between atoms: C_4  and  C_5
REMARK    4  A    between atoms: C_5  and  C_6
REMARK    5  A    between atoms: C_9  and  N_10
REMARK    6  A    between atoms: N_10  and  C_11
REMARK    7  A    between atoms: C_11  and  C_12
REMARK                            x       y       z     vdW  Elec       q    Type
REMARK                         _______ _______ _______ _____ _____    ______ ____
ROOT
ATOM      1  C   UNL     1       8.001   7.397  18.325  0.00  0.00    +0.000 A 
ATOM      2  C   UNL     1       8.111   6.188  19.017  0.00  0.00    +0.000 A 
ATOM      3  C   UNL     1       7.420   5.055  18.575  0.00  0.00    +0.000 A 
ATOM      4  C   UNL     1       6.568   5.113  17.465  0.00  0.00    +0.000 A 
ATOM      5  C   UNL     1       6.499   6.314  16.757  0.00  0.00    +0.000 A 
ATOM      6  C   UNL     1       7.194   7.446  17.183  0.00  0.00    +0.000 A 
ENDROOT
BRANCH   4   7
ATOM      7  N   UNL     1       5.919   3.954  17.035  0.00  0.00    +0.000 N 
ATOM      8  H   UNL     1       5.886   3.249  17.770  0.00  0.00    +0.000 HD
BRANCH   7   9
ATOM      9  C   UNL     1       4.625   4.098  16.364  0.00  0.00    +0.000 C 
BRANCH   9  10
ATOM     10  C   UNL     1       3.576   3.553  17.302  0.00  0.00    +0.000 A 
ATOM     11  C   UNL     1       3.558   2.173  17.628  0.00  0.00    +0.000 A 
ATOM     12  C   UNL     1       2.815   1.703  18.713  0.00  0.00    +0.000 A 
ATOM     13  C   UNL     1       2.157   2.643  19.472  0.00  0.00    +0.000 A 
ATOM     14  C   UNL     1       2.115   3.975  19.116  0.00  0.00    +0.000 A 
ATOM     15  C   UNL     1       2.770   4.457  18.012  0.00  0.00    +0.000 A 
ATOM     16  O   UNL     1       1.505   4.740  20.064  0.00  0.00    +0.000 OA
ATOM     17  C   UNL     1       1.534   3.800  21.156  0.00  0.00    +0.000 C 
ATOM     18  O   UNL     1       1.592   2.432  20.695  0.00  0.00    +0.000 OA
ENDBRANCH   9  10
ENDBRANCH   7   9
ENDBRANCH   4   7
BRANCH   1  19
ATOM     19  C   UNL     1       8.732   8.633  18.780  0.00  0.00    +0.000 C 
BRANCH  19  20
ATOM     20  C   UNL     1       8.352   9.865  17.958  0.00  0.00    +0.000 C 
BRANCH  20  22
ATOM     21  O   UNL     1      10.186  11.004  19.059  0.00  0.00    +0.000 OA
ATOM     22  C   UNL     1       9.240  11.029  18.287  0.00  0.00    +0.000 C 
BRANCH  22  23
ATOM     23  O   UNL     1       8.890  12.154  17.614  0.00  0.00    +0.000 OA
ATOM     24  H   UNL     1       9.160  12.142  16.672  0.00  0.00    +0.000 HD
ENDBRANCH  22  23
ENDBRANCH  20  22
ENDBRANCH  19  20
ENDBRANCH   1  19
TORSDOF 7
ENDMDL
MODEL 7
REMARK VINA RESULT:      -7.1      1.370      2.091
REMARK  Name = 
REMARK  7 active torsions:
REMARK  status: ('A' for Active; 'I' for Inactive)
REMARK    1  A    between atoms: C_2  and  O_3
REMARK    2  A    between atoms: C_2  and  C_4
REMARK    3  A    between atoms: C_4  and  C_5
REMARK    4  A    between atoms: C_5  and  C_6
REMARK    5  A    between atoms: C_9  and  N_10
REMARK    6  A    between atoms: N_10  and  C_11
REMARK    7  A    between atoms: C_11  and  C_12
REMARK                            x       y       z     vdW  Elec       q    Type
REMARK                         _______ _______ _______ _____ _____    ______ ____
ROOT
ATOM      1  C   UNL     1       1.553   7.925  20.289  0.00  0.00    +0.000 A 
ATOM      2  C   UNL     1       2.155   7.846  19.030  0.00  0.00    +0.000 A 
ATOM      3  C   UNL     1       2.602   6.617  18.537  0.00  0.00    +0.000 A 
ATOM      4  C   UNL     1       2.505   5.449  19.303  0.00  0.00    +0.000 A 
ATOM      5  C   UNL     1       1.864   5.532  20.541  0.00  0.00    +0.000 A 
ATOM      6  C   UNL     1       1.403   6.752  21.036  0.00  0.00    +0.000 A 
ENDROOT
BRANCH   4   7
ATOM      7  N   UNL     1       2.935   4.235  18.765  0.00  0.00    +0.000 N 
ATOM      8  H   UNL     1       2.617   4.119  17.803  0.00  0.00    +0.000 HD
BRANCH   7   9
ATOM      9  C   UNL     1       4.346   3.874  18.915  0.00  0.00    +0.000 C 
BRANCH   9  10
ATOM     10  C   UNL     1       5.102   4.565  17.807  0.00  0.00    +0.000 A 
ATOM     11  C   UNL     1       6.340   5.201  18.077  0.00  0.00    +0.000 A 
ATOM     12  C   UNL     1       7.198   5.567  17.038  0.00  0.00    +0.000 A 
ATOM     13  C   UNL     1       6.811   5.231  15.761  0.00  0.00    +0.000 A 
ATOM     14  C   UNL     1       5.578   4.677  15.491  0.00  0.00    +0.000 A 
ATOM     15  C   UNL     1       4.678   4.377  16.482  0.00  0.00    +0.000 A 
ATOM     16  O   UNL     1       5.449   4.325  14.181  0.00  0.00    +0.000 OA
ATOM     17  C   UNL     1       6.839   4.378  13.803  0.00  0.00    +0.000 C 
ATOM     18  O   UNL     1       7.600   5.268  14.649  0.00  0.00    +0.000 OA
ENDBRANCH   9  10
ENDBRANCH   7   9
ENDBRANCH   4   7
BRANCH   1  19
ATOM     19  C   UNL     1       1.063   9.236  20.846  0.00  0.00    +0.000 C 
BRANCH  19  20
ATOM     20  C   UNL     1      -0.186   9.067  21.711  0.00  0.00    +0.000 C 
BRANCH  20  22
ATOM     21  O   UNL     1      -0.279  11.232  22.795  0.00  0.00    +0.000 OA
ATOM     22  C   UNL     1      -0.173  10.017  22.871  0.00  0.00    +0.000 C 
BRANCH  22  23
ATOM     23  O   UNL     1      -0.040   9.380  24.061  0.00  0.00    +0.000 OA
ATOM     24  H   UNL     1      -0.893   9.230  24.520  0.00  0.00    +0.000 HD
ENDBRANCH  22  23
ENDBRANCH  20  22
ENDBRANCH  19  20
ENDBRANCH   1  19
TORSDOF 7
ENDMDL
MODEL 8
REMARK VINA RESULT:      -7.1      3.564      7.908
REMARK  Name = 
REMARK  7 active torsions:
REMARK  status: ('A' for Active; 'I' for Inactive)
REMARK    1  A    between atoms: C_2  and  O_3
REMARK    2  A    between atoms: C_2  and  C_4
REMARK    3  A    between atoms: C_4  and  C_5
REMARK    4  A    between atoms: C_5  and  C_6
REMARK    5  A    between atoms: C_9  and  N_10
REMARK    6  A    between atoms: N_10  and  C_11
REMARK    7  A    between atoms: C_11  and  C_12
REMARK                            x       y       z     vdW  Elec       q    Type
REMARK                         _______ _______ _______ _____ _____    ______ ____
ROOT
ATOM      1  C   UNL     1       5.935   4.550  15.389  0.00  0.00    +0.000 A 
ATOM      2  C   UNL     1       5.852   4.146  16.725  0.00  0.00    +0.000 A 
ATOM      3  C   UNL     1       5.264   4.981  17.680  0.00  0.00    +0.000 A 
ATOM      4  C   UNL     1       4.790   6.254  17.337  0.00  0.00    +0.000 A 
ATOM      5  C   UNL     1       4.840   6.629  15.994  0.00  0.00    +0.000 A 
ATOM      6  C   UNL     1       5.414   5.798  15.032  0.00  0.00    +0.000 A 
ENDROOT
BRANCH   4   7
ATOM      7  N   UNL     1       4.181   7.047  18.312  0.00  0.00    +0.000 N 
ATOM      8  H   UNL     1       4.661   7.940  18.421  0.00  0.00    +0.000 HD
BRANCH   7   9
ATOM      9  C   UNL     1       2.728   7.217  18.252  0.00  0.00    +0.000 C 
BRANCH   9  10
ATOM     10  C   UNL     1       2.109   5.949  18.787  0.00  0.00    +0.000 A 
ATOM     11  C   UNL     1       1.695   4.927  17.896  0.00  0.00    +0.000 A 
ATOM     12  C   UNL     1       1.417   3.641  18.363  0.00  0.00    +0.000 A 
ATOM     13  C   UNL     1       1.617   3.406  19.704  0.00  0.00    +0.000 A 
ATOM     14  C   UNL     1       1.951   4.415  20.582  0.00  0.00    +0.000 A 
ATOM     15  C   UNL     1       2.155   5.706  20.169  0.00  0.00    +0.000 A 
ATOM     16  O   UNL     1       2.207   3.941  21.834  0.00  0.00    +0.000 OA
ATOM     17  C   UNL     1       2.358   2.544  21.512  0.00  0.00    +0.000 C 
ATOM     18  O   UNL     1       1.648   2.184  20.307  0.00  0.00    +0.000 OA
ENDBRANCH   9  10
ENDBRANCH   7   9
ENDBRANCH   4   7
BRANCH   1  19
ATOM     19  C   UNL     1       6.565   3.672  14.340  0.00  0.00    +0.000 C 
BRANCH  19  20
ATOM     20  C   UNL     1       6.316   4.192  12.924  0.00  0.00    +0.000 C 
BRANCH  20  22
ATOM     21  O   UNL     1       4.526   3.233  11.602  0.00  0.00    +0.000 OA
ATOM     22  C   UNL     1       5.649   3.151  12.075  0.00  0.00    +0.000 C 
BRANCH  22  23
ATOM     23  O   UNL     1       6.442   2.071  11.862  0.00  0.00    +0.000 OA
ATOM     24  H   UNL     1       6.618   1.900  10.913  0.00  0.00    +0.000 HD
ENDBRANCH  22  23
ENDBRANCH  20  22
ENDBRANCH  19  20
ENDBRANCH   1  19
TORSDOF 7
ENDMDL
MODEL 9
REMARK VINA RESULT:      -7.1      3.551      6.537
REMARK  Name = 
REMARK  7 active torsions:
REMARK  status: ('A' for Active; 'I' for Inactive)
REMARK    1  A    between atoms: C_2  and  O_3
REMARK    2  A    between atoms: C_2  and  C_4
REMARK    3  A    between atoms: C_4  and  C_5
REMARK    4  A    between atoms: C_5  and  C_6
REMARK    5  A    between atoms: C_9  and  N_10
REMARK    6  A    between atoms: N_10  and  C_11
REMARK    7  A    between atoms: C_11  and  C_12
REMARK                            x       y       z     vdW  Elec       q    Type
REMARK                         _______ _______ _______ _____ _____    ______ ____
ROOT
ATOM      1  C   UNL     1       7.668   8.001  17.870  0.00  0.00    +0.000 A 
ATOM      2  C   UNL     1       8.163   6.959  18.662  0.00  0.00    +0.000 A 
ATOM      3  C   UNL     1       7.646   5.666  18.530  0.00  0.00    +0.000 A 
ATOM      4  C   UNL     1       6.596   5.391  17.645  0.00  0.00    +0.000 A 
ATOM      5  C   UNL     1       6.140   6.429  16.830  0.00  0.00    +0.000 A 
ATOM      6  C   UNL     1       6.658   7.719  16.946  0.00  0.00    +0.000 A 
ENDROOT
BRANCH   4   7
ATOM      7  N   UNL     1       6.128   4.082  17.518  0.00  0.00    +0.000 N 
ATOM      8  H   UNL     1       5.929   3.667  18.428  0.00  0.00    +0.000 HD
BRANCH   7   9
ATOM      9  C   UNL     1       5.053   3.825  16.558  0.00  0.00    +0.000 C 
BRANCH   9  10
ATOM     10  C   UNL     1       3.826   3.449  17.354  0.00  0.00    +0.000 A 
ATOM     11  C   UNL     1       3.590   2.096  17.703  0.00  0.00    +0.000 A 
ATOM     12  C   UNL     1       2.655   1.763  18.685  0.00  0.00    +0.000 A 
ATOM     13  C   UNL     1       2.026   2.806  19.326  0.00  0.00    +0.000 A 
ATOM     14  C   UNL     1       2.202   4.118  18.941  0.00  0.00    +0.000 A 
ATOM     15  C   UNL     1       3.055   4.473  17.927  0.00  0.00    +0.000 A 
ATOM     16  O   UNL     1       1.573   4.988  19.779  0.00  0.00    +0.000 OA
ATOM     17  C   UNL     1       1.335   4.094  20.884  0.00  0.00    +0.000 C 
ATOM     18  O   UNL     1       1.281   2.713  20.465  0.00  0.00    +0.000 OA
ENDBRANCH   9  10
ENDBRANCH   7   9
ENDBRANCH   4   7
BRANCH   1  19
ATOM     19  C   UNL     1       8.205   9.403  17.993  0.00  0.00    +0.000 C 
BRANCH  19  20
ATOM     20  C   UNL     1       9.338   9.502  19.014  0.00  0.00    +0.000 C 
BRANCH  20  22
ATOM     21  O   UNL     1       9.141  11.903  19.281  0.00  0.00    +0.000 OA
ATOM     22  C   UNL     1       9.268  10.793  19.775  0.00  0.00    +0.000 C 
BRANCH  22  23
ATOM     23  O   UNL     1       9.349  10.608  21.117  0.00  0.00    +0.000 OA
ATOM     24  H   UNL     1      10.112  11.067  21.526  0.00  0.00    +0.000 HD
ENDBRANCH  22  23
ENDBRANCH  20  22
ENDBRANCH  19  20
ENDBRANCH   1  19
TORSDOF 7
ENDMDL
