MODEL 1
REMARK VINA RESULT:      -7.2      0.000      0.000
REMARK  Name = 
REMARK  6 active torsions:
REMARK  status: ('A' for Active; 'I' for Inactive)
REMARK    1  A    between atoms: C_1  and  C_2
REMARK    2  A    between atoms: C_2  and  N_3
REMARK    3  A    between atoms: C_6  and  C_7
REMARK    4  A    between atoms: C_8  and  C_9
REMARK    5  A    between atoms: C_16  and  C_17
REMARK    6  A    between atoms: N_19  and  C_20
REMARK                            x       y       z     vdW  Elec       q    Type
REMARK                         _______ _______ _______ _____ _____    ______ ____
ROOT
ATOM      1  C   UNL     1       3.276   6.061  18.624  0.00  0.00    +0.000 C 
ATOM      2  O   UNL     1       4.292   6.397  18.015  0.00  0.00    +0.000 OA
ATOM      3  N   UNL     1       2.896   4.716  18.639  0.00  0.00    +0.000 N 
ATOM      4  C   UNL     1       1.628   4.294  19.230  0.00  0.00    +0.000 C 
ATOM      5  C   UNL     1       1.016   3.044  18.617  0.00  0.00    +0.000 C 
ATOM      6  N   UNL     1       1.957   1.928  18.679  0.00  0.00    +0.000 NA
ATOM      7  C   UNL     1       3.226   2.301  18.017  0.00  0.00    +0.000 C 
ATOM      8  C   UNL     1       3.904   3.608  18.556  0.00  0.00    +0.000 C 
ATOM      9  H   UNL     1       1.552   1.124  18.195  0.00  0.00    +0.000 HD
ENDROOT
BRANCH   1  15
ATOM     10  N   UNL     1       0.399   8.621  22.055  0.00  0.00    +0.000 N 
ATOM     11  C   UNL     1       1.148   8.233  20.999  0.00  0.00    +0.000 A 
ATOM     12  N   UNL     1       1.244   8.948  19.911  0.00  0.00    +0.000 NA
ATOM     13  C   UNL     1       1.953   8.289  18.931  0.00  0.00    +0.000 A 
ATOM     14  C   UNL     1       1.973   9.002  17.630  0.00  0.00    +0.000 C 
ATOM     15  C   UNL     1       2.494   7.076  19.321  0.00  0.00    +0.000 A 
ATOM     16  S   UNL     1       1.999   6.748  20.952  0.00  0.00    +0.000 S 
ATOM     17  H   UNL     1       0.118   7.888  22.697  0.00  0.00    +0.000 HD
BRANCH  10  19
ATOM     18  C   UNL     1      -0.783  10.583  22.908  0.00  0.00    +0.000 C 
ATOM     19  C   UNL     1      -0.622   9.619  21.753  0.00  0.00    +0.000 C 
ENDBRANCH  10  19
ENDBRANCH   1  15
BRANCH   8  20
ATOM     20  C   UNL     1       5.273   3.750  17.808  0.00  0.00    +0.000 C 
ATOM     21  O   UNL     1       6.322   4.037  18.386  0.00  0.00    +0.000 OA
ATOM     22  N   UNL     1       5.168   3.737  16.424  0.00  0.00    +0.000 N 
ATOM     23  H   UNL     1       4.430   3.131  16.071  0.00  0.00    +0.000 HD
BRANCH  22  24
ATOM     24  C   UNL     1       6.304   3.881  15.565  0.00  0.00    +0.000 C 
ATOM     25  C   UNL     1       6.157   3.873  14.069  0.00  0.00    +0.000 C 
ATOM     26  C   UNL     1       6.492   5.152  14.777  0.00  0.00    +0.000 C 
ENDBRANCH  22  24
ENDBRANCH   8  20
TORSDOF 4
ENDMDL
MODEL 2
REMARK VINA RESULT:      -6.9      2.012      2.426
REMARK  Name = 
REMARK  6 active torsions:
REMARK  status: ('A' for Active; 'I' for Inactive)
REMARK    1  A    between atoms: C_1  and  C_2
REMARK    2  A    between atoms: C_2  and  N_3
REMARK    3  A    between atoms: C_6  and  C_7
REMARK    4  A    between atoms: C_8  and  C_9
REMARK    5  A    between atoms: C_16  and  C_17
REMARK    6  A    between atoms: N_19  and  C_20
REMARK                            x       y       z     vdW  Elec       q    Type
REMARK                         _______ _______ _______ _____ _____    ______ ____
ROOT
ATOM      1  C   UNL     1       2.905   6.842  18.802  0.00  0.00    +0.000 C 
ATOM      2  O   UNL     1       3.882   6.994  18.068  0.00  0.00    +0.000 OA
ATOM      3  N   UNL     1       2.687   5.604  19.411  0.00  0.00    +0.000 N 
ATOM      4  C   UNL     1       1.471   5.339  20.176  0.00  0.00    +0.000 C 
ATOM      5  C   UNL     1       1.021   3.886  20.188  0.00  0.00    +0.000 C 
ATOM      6  N   UNL     1       2.087   3.022  20.689  0.00  0.00    +0.000 NA
ATOM      7  C   UNL     1       3.312   3.213  19.881  0.00  0.00    +0.000 C 
ATOM      8  C   UNL     1       3.821   4.691  19.776  0.00  0.00    +0.000 C 
ATOM      9  H   UNL     1       1.788   2.048  20.616  0.00  0.00    +0.000 HD
ENDROOT
BRANCH   1  15
ATOM     10  N   UNL     1      -0.026  11.045  18.212  0.00  0.00    +0.000 N 
ATOM     11  C   UNL     1       0.617   9.945  18.665  0.00  0.00    +0.000 A 
ATOM     12  N   UNL     1       0.653   9.630  19.931  0.00  0.00    +0.000 NA
ATOM     13  C   UNL     1       1.472   8.548  20.162  0.00  0.00    +0.000 A 
ATOM     14  C   UNL     1       1.655   8.235  21.601  0.00  0.00    +0.000 C 
ATOM     15  C   UNL     1       1.998   7.964  19.022  0.00  0.00    +0.000 A 
ATOM     16  S   UNL     1       1.493   8.888  17.643  0.00  0.00    +0.000 S 
ATOM     17  H   UNL     1       0.262  11.388  17.303  0.00  0.00    +0.000 HD
BRANCH  10  19
ATOM     18  C   UNL     1      -0.347  13.440  18.583  0.00  0.00    +0.000 C 
ATOM     19  C   UNL     1      -0.281  12.068  19.220  0.00  0.00    +0.000 C 
ENDBRANCH  10  19
ENDBRANCH   1  15
BRANCH   8  20
ATOM     20  C   UNL     1       5.174   4.649  18.986  0.00  0.00    +0.000 C 
ATOM     21  O   UNL     1       6.240   5.032  19.469  0.00  0.00    +0.000 OA
ATOM     22  N   UNL     1       5.036   4.348  17.638  0.00  0.00    +0.000 N 
ATOM     23  H   UNL     1       4.281   3.695  17.435  0.00  0.00    +0.000 HD
BRANCH  22  24
ATOM     24  C   UNL     1       6.151   4.288  16.744  0.00  0.00    +0.000 C 
ATOM     25  C   UNL     1       5.983   3.863  15.312  0.00  0.00    +0.000 C 
ATOM     26  C   UNL     1       6.277   5.298  15.632  0.00  0.00    +0.000 C 
ENDBRANCH  22  24
ENDBRANCH   8  20
TORSDOF 4
ENDMDL
MODEL 3
REMARK VINA RESULT:      -6.8      2.479      2.958
REMARK  Name = 
REMARK  6 active torsions:
REMARK  status: ('A' for Active; 'I' for Inactive)
REMARK    1  A    between atoms: C_1  and  C_2
REMARK    2  A    between atoms: C_2  and  N_3
REMARK    3  A    between atoms: C_6  and  C_7
REMARK    4  A    between atoms: C_8  and  C_9
REMARK    5  A    between atoms: C_16  and  C_17
REMARK    6  A    between atoms: N_19  and  C_20
REMARK                            x       y       z     vdW  Elec       q    Type
REMARK                         _______ _______ _______ _____ _____    ______ ____
ROOT
ATOM      1  C   UNL     1       2.774   6.930  18.831  0.00  0.00    +0.000 C 
ATOM      2  O   UNL     1       3.702   7.033  18.029  0.00  0.00    +0.000 OA
ATOM      3  N   UNL     1       2.575   5.720  19.501  0.00  0.00    +0.000 N 
ATOM      4  C   UNL     1       1.408   5.510  20.355  0.00  0.00    +0.000 C 
ATOM      5  C   UNL     1       0.933   4.068  20.453  0.00  0.00    +0.000 C 
ATOM      6  N   UNL     1       2.014   3.200  20.914  0.00  0.00    +0.000 NA
ATOM      7  C   UNL     1       3.184   3.335  20.020  0.00  0.00    +0.000 C 
ATOM      8  C   UNL     1       3.713   4.798  19.824  0.00  0.00    +0.000 C 
ATOM      9  H   UNL     1       1.692   2.231  20.900  0.00  0.00    +0.000 HD
ENDROOT
BRANCH   1  15
ATOM     10  N   UNL     1      -0.046  11.215  18.294  0.00  0.00    +0.000 N 
ATOM     11  C   UNL     1       0.574  10.098  18.736  0.00  0.00    +0.000 A 
ATOM     12  N   UNL     1       0.629   9.785  20.002  0.00  0.00    +0.000 NA
ATOM     13  C   UNL     1       1.421   8.679  20.218  0.00  0.00    +0.000 A 
ATOM     14  C   UNL     1       1.626   8.365  21.653  0.00  0.00    +0.000 C 
ATOM     15  C   UNL     1       1.905   8.078  19.068  0.00  0.00    +0.000 A 
ATOM     16  S   UNL     1       1.397   9.014  17.698  0.00  0.00    +0.000 S 
ATOM     17  H   UNL     1       0.232  11.548  17.378  0.00  0.00    +0.000 HD
BRANCH  10  19
ATOM     18  C   UNL     1      -0.400  13.606  18.656  0.00  0.00    +0.000 C 
ATOM     19  C   UNL     1      -0.249  12.248  19.304  0.00  0.00    +0.000 C 
ENDBRANCH  10  19
ENDBRANCH   1  15
BRANCH   8  20
ATOM     20  C   UNL     1       5.009   4.698  18.948  0.00  0.00    +0.000 C 
ATOM     21  O   UNL     1       5.200   3.786  18.143  0.00  0.00    +0.000 OA
ATOM     22  N   UNL     1       6.007   5.594  19.306  0.00  0.00    +0.000 N 
ATOM     23  H   UNL     1       5.658   6.491  19.638  0.00  0.00    +0.000 HD
BRANCH  22  24
ATOM     24  C   UNL     1       7.273   5.640  18.642  0.00  0.00    +0.000 C 
ATOM     25  C   UNL     1       7.438   6.342  17.323  0.00  0.00    +0.000 C 
ATOM     26  C   UNL     1       8.032   6.940  18.563  0.00  0.00    +0.000 C 
ENDBRANCH  22  24
ENDBRANCH   8  20
TORSDOF 4
ENDMDL
MODEL 4
REMARK VINA RESULT:      -6.8      1.888      2.046
REMARK  Name = 
REMARK  6 active torsions:
REMARK  status: ('A' for Active; 'I' for Inactive)
REMARK    1  A    between atoms: C_1  and  C_2
REMARK    2  A    between atoms: C_2  and  N_3
REMARK    3  A    between atoms: C_6  and  C_7
REMARK    4  A    between atoms: C_8  and  C_9
REMARK    5  A    between atoms: C_16  and  C_17
REMARK    6  A    between atoms: N_19  and  C_20
REMARK                            x       y       z     vdW  Elec       q    Type
REMARK                         _______ _______ _______ _____ _____    ______ ____
ROOT
ATOM      1  C   UNL     1       2.731   6.875  19.194  0.00  0.00    +0.000 C 
ATOM      2  O   UNL     1       3.605   7.095  18.354  0.00  0.00    +0.000 OA
ATOM      3  N   UNL     1       2.504   5.566  19.623  0.00  0.00    +0.000 N 
ATOM      4  C   UNL     1       1.389   5.242  20.510  0.00  0.00    +0.000 C 
ATOM      5  C   UNL     1       0.831   3.835  20.358  0.00  0.00    +0.000 C 
ATOM      6  N   UNL     1       1.885   2.841  20.547  0.00  0.00    +0.000 NA
ATOM      7  C   UNL     1       2.996   3.098  19.605  0.00  0.00    +0.000 C 
ATOM      8  C   UNL     1       3.602   4.543  19.662  0.00  0.00    +0.000 C 
ATOM      9  H   UNL     1       1.503   1.912  20.367  0.00  0.00    +0.000 HD
ENDROOT
BRANCH   1  15
ATOM     10  N   UNL     1       0.057  10.049  22.256  0.00  0.00    +0.000 N 
ATOM     11  C   UNL     1       0.716   9.453  21.237  0.00  0.00    +0.000 A 
ATOM     12  N   UNL     1       0.642   9.890  20.009  0.00  0.00    +0.000 NA
ATOM     13  C   UNL     1       1.289   9.049  19.131  0.00  0.00    +0.000 A 
ATOM     14  C   UNL     1       1.117   9.429  17.707  0.00  0.00    +0.000 C 
ATOM     15  C   UNL     1       1.956   7.991  19.724  0.00  0.00    +0.000 A 
ATOM     16  S   UNL     1       1.663   8.041  21.435  0.00  0.00    +0.000 S 
ATOM     17  H   UNL     1      -0.099   9.479  23.081  0.00  0.00    +0.000 HD
BRANCH  10  19
ATOM     18  C   UNL     1      -1.643  11.613  23.055  0.00  0.00    +0.000 C 
ATOM     19  C   UNL     1      -1.060  10.897  21.856  0.00  0.00    +0.000 C 
ENDBRANCH  10  19
ENDBRANCH   1  15
BRANCH   8  20
ATOM     20  C   UNL     1       4.823   4.561  18.680  0.00  0.00    +0.000 C 
ATOM     21  O   UNL     1       4.895   3.830  17.692  0.00  0.00    +0.000 OA
ATOM     22  N   UNL     1       5.903   5.309  19.131  0.00  0.00    +0.000 N 
ATOM     23  H   UNL     1       5.640   6.133  19.668  0.00  0.00    +0.000 HD
BRANCH  22  24
ATOM     24  C   UNL     1       7.120   5.427  18.389  0.00  0.00    +0.000 C 
ATOM     25  C   UNL     1       7.250   6.403  17.253  0.00  0.00    +0.000 C 
ATOM     26  C   UNL     1       7.975   6.660  18.540  0.00  0.00    +0.000 C 
ENDBRANCH  22  24
ENDBRANCH   8  20
TORSDOF 4
ENDMDL
MODEL 5
REMARK VINA RESULT:      -6.5      2.318      7.081
REMARK  Name = 
REMARK  6 active torsions:
REMARK  status: ('A' for Active; 'I' for Inactive)
REMARK    1  A    between atoms: C_1  and  C_2
REMARK    2  A    between atoms: C_2  and  N_3
REMARK    3  A    between atoms: C_6  and  C_7
REMARK    4  A    between atoms: C_8  and  C_9
REMARK    5  A    between atoms: C_16  and  C_17
REMARK    6  A    between atoms: N_19  and  C_20
REMARK                            x       y       z     vdW  Elec       q    Type
REMARK                         _______ _______ _______ _____ _____    ______ ____
ROOT
ATOM      1  C   UNL     1       4.714   5.006  18.533  0.00  0.00    +0.000 C 
ATOM      2  O   UNL     1       4.752   5.856  19.423  0.00  0.00    +0.000 OA
ATOM      3  N   UNL     1       3.825   3.934  18.643  0.00  0.00    +0.000 N 
ATOM      4  C   UNL     1       3.843   2.833  17.683  0.00  0.00    +0.000 C 
ATOM      5  C   UNL     1       3.389   1.489  18.235  0.00  0.00    +0.000 C 
ATOM      6  N   UNL     1       2.047   1.594  18.803  0.00  0.00    +0.000 NA
ATOM      7  C   UNL     1       2.018   2.652  19.836  0.00  0.00    +0.000 C 
ATOM      8  C   UNL     1       2.515   4.062  19.366  0.00  0.00    +0.000 C 
ATOM      9  H   UNL     1       1.796   0.702  19.231  0.00  0.00    +0.000 HD
ENDROOT
BRANCH   1  15
ATOM     10  N   UNL     1       6.602   5.630  13.774  0.00  0.00    +0.000 N 
ATOM     11  C   UNL     1       6.420   5.463  15.104  0.00  0.00    +0.000 A 
ATOM     12  N   UNL     1       7.396   5.134  15.905  0.00  0.00    +0.000 NA
ATOM     13  C   UNL     1       6.945   4.894  17.183  0.00  0.00    +0.000 A 
ATOM     14  C   UNL     1       7.994   4.384  18.100  0.00  0.00    +0.000 C 
ATOM     15  C   UNL     1       5.597   5.141  17.380  0.00  0.00    +0.000 A 
ATOM     16  S   UNL     1       4.892   5.605  15.862  0.00  0.00    +0.000 S 
ATOM     17  H   UNL     1       5.772   5.557  13.197  0.00  0.00    +0.000 HD
BRANCH  10  19
ATOM     18  C   UNL     1       7.473   4.197  11.996  0.00  0.00    +0.000 C 
ATOM     19  C   UNL     1       7.803   5.004  13.233  0.00  0.00    +0.000 C 
ENDBRANCH  10  19
ENDBRANCH   1  15
BRANCH   8  20
ATOM     20  C   UNL     1       2.293   5.045  20.565  0.00  0.00    +0.000 C 
ATOM     21  O   UNL     1       2.322   4.679  21.741  0.00  0.00    +0.000 OA
ATOM     22  N   UNL     1       1.853   6.307  20.192  0.00  0.00    +0.000 N 
ATOM     23  H   UNL     1       2.230   6.631  19.303  0.00  0.00    +0.000 HD
BRANCH  22  24
ATOM     24  C   UNL     1       1.568   7.336  21.144  0.00  0.00    +0.000 C 
ATOM     25  C   UNL     1       1.354   8.761  20.714  0.00  0.00    +0.000 C 
ATOM     26  C   UNL     1       0.191   7.948  21.199  0.00  0.00    +0.000 C 
ENDBRANCH  22  24
ENDBRANCH   8  20
TORSDOF 4
ENDMDL
MODEL 6
REMARK VINA RESULT:      -6.2      1.466      1.536
REMARK  Name = 
REMARK  6 active torsions:
REMARK  status: ('A' for Active; 'I' for Inactive)
REMARK    1  A    between atoms: C_1  and  C_2
REMARK    2  A    between atoms: C_2  and  N_3
REMARK    3  A    between atoms: C_6  and  C_7
REMARK    4  A    between atoms: C_8  and  C_9
REMARK    5  A    between atoms: C_16  and  C_17
REMARK    6  A    between atoms: N_19  and  C_20
REMARK                            x       y       z     vdW  Elec       q    Type
REMARK                         _______ _______ _______ _____ _____    ______ ____
ROOT
ATOM      1  C   UNL     1       2.545   5.884  18.944  0.00  0.00    +0.000 C 
ATOM      2  O   UNL     1       2.782   5.831  17.737  0.00  0.00    +0.000 OA
ATOM      3  N   UNL     1       2.780   4.762  19.742  0.00  0.00    +0.000 N 
ATOM      4  C   UNL     1       2.385   4.735  21.148  0.00  0.00    +0.000 C 
ATOM      5  C   UNL     1       2.047   3.357  21.696  0.00  0.00    +0.000 C 
ATOM      6  N   UNL     1       3.167   2.439  21.507  0.00  0.00    +0.000 NA
ATOM      7  C   UNL     1       3.540   2.387  20.076  0.00  0.00    +0.000 C 
ATOM      8  C   UNL     1       3.860   3.772  19.416  0.00  0.00    +0.000 C 
ATOM      9  H   UNL     1       2.889   1.506  21.813  0.00  0.00    +0.000 HD
ENDROOT
BRANCH   1  15
ATOM     10  N   UNL     1       0.240   9.375  21.962  0.00  0.00    +0.000 N 
ATOM     11  C   UNL     1       0.932   8.722  21.001  0.00  0.00    +0.000 A 
ATOM     12  N   UNL     1       1.308   9.303  19.895  0.00  0.00    +0.000 NA
ATOM     13  C   UNL     1       1.879   8.407  19.019  0.00  0.00    +0.000 A 
ATOM     14  C   UNL     1       2.199   8.992  17.694  0.00  0.00    +0.000 C 
ATOM     15  C   UNL     1       2.026   7.123  19.515  0.00  0.00    +0.000 A 
ATOM     16  S   UNL     1       1.333   7.061  21.106  0.00  0.00    +0.000 S 
ATOM     17  H   UNL     1      -0.284   8.796  22.608  0.00  0.00    +0.000 HD
BRANCH  10  19
ATOM     18  C   UNL     1      -0.960  11.372  22.702  0.00  0.00    +0.000 C 
ATOM     19  C   UNL     1      -0.432  10.591  21.518  0.00  0.00    +0.000 C 
ENDBRANCH  10  19
ENDBRANCH   1  15
BRANCH   8  20
ATOM     20  C   UNL     1       4.338   3.477  17.953  0.00  0.00    +0.000 C 
ATOM     21  O   UNL     1       3.885   2.553  17.277  0.00  0.00    +0.000 OA
ATOM     22  N   UNL     1       5.455   4.204  17.563  0.00  0.00    +0.000 N 
ATOM     23  H   UNL     1       5.496   5.142  17.957  0.00  0.00    +0.000 HD
BRANCH  22  24
ATOM     24  C   UNL     1       6.057   4.056  16.274  0.00  0.00    +0.000 C 
ATOM     25  C   UNL     1       5.631   4.909  15.111  0.00  0.00    +0.000 C 
ATOM     26  C   UNL     1       6.971   5.132  15.745  0.00  0.00    +0.000 C 
ENDBRANCH  22  24
ENDBRANCH   8  20
TORSDOF 4
ENDMDL
MODEL 7
REMARK VINA RESULT:      -6.2      1.524      1.746
REMARK  Name = 
REMARK  6 active torsions:
REMARK  status: ('A' for Active; 'I' for Inactive)
REMARK    1  A    between atoms: C_1  and  C_2
REMARK    2  A    between atoms: C_2  and  N_3
REMARK    3  A    between atoms: C_6  and  C_7
REMARK    4  A    between atoms: C_8  and  C_9
REMARK    5  A    between atoms: C_16  and  C_17
REMARK    6  A    between atoms: N_19  and  C_20
REMARK                            x       y       z     vdW  Elec       q    Type
REMARK                         _______ _______ _______ _____ _____    ______ ____
ROOT
ATOM      1  C   UNL     1       2.602   7.358  19.217  0.00  0.00    +0.000 C 
ATOM      2  O   UNL     1       3.422   7.670  18.352  0.00  0.00    +0.000 OA
ATOM      3  N   UNL     1       2.499   6.023  19.616  0.00  0.00    +0.000 N 
ATOM      4  C   UNL     1       1.450   5.586  20.534  0.00  0.00    +0.000 C 
ATOM      5  C   UNL     1       1.003   4.141  20.362  0.00  0.00    +0.000 C 
ATOM      6  N   UNL     1       2.142   3.233  20.483  0.00  0.00    +0.000 NA
ATOM      7  C   UNL     1       3.190   3.606  19.509  0.00  0.00    +0.000 C 
ATOM      8  C   UNL     1       3.677   5.094  19.585  0.00  0.00    +0.000 C 
ATOM      9  H   UNL     1       1.829   2.281  20.290  0.00  0.00    +0.000 HD
ENDROOT
BRANCH   1  15
ATOM     10  N   UNL     1      -0.085  10.298  22.494  0.00  0.00    +0.000 N 
ATOM     11  C   UNL     1       0.525   9.749  21.419  0.00  0.00    +0.000 A 
ATOM     12  N   UNL     1       0.262  10.129  20.198  0.00  0.00    +0.000 NA
ATOM     13  C   UNL     1       0.906   9.340  19.271  0.00  0.00    +0.000 A 
ATOM     14  C   UNL     1       0.532   9.646  17.868  0.00  0.00    +0.000 C 
ATOM     15  C   UNL     1       1.759   8.391  19.808  0.00  0.00    +0.000 A 
ATOM     16  S   UNL     1       1.654   8.468  21.539  0.00  0.00    +0.000 S 
ATOM     17  H   UNL     1      -0.078   9.744  23.343  0.00  0.00    +0.000 HD
BRANCH  10  19
ATOM     18  C   UNL     1      -1.479  12.218  23.080  0.00  0.00    +0.000 C 
ATOM     19  C   UNL     1      -1.335  10.992  22.205  0.00  0.00    +0.000 C 
ENDBRANCH  10  19
ENDBRANCH   1  15
BRANCH   8  20
ATOM     20  C   UNL     1       4.854   5.239  18.560  0.00  0.00    +0.000 C 
ATOM     21  O   UNL     1       5.976   5.629  18.884  0.00  0.00    +0.000 OA
ATOM     22  N   UNL     1       4.472   5.096  17.233  0.00  0.00    +0.000 N 
ATOM     23  H   UNL     1       3.721   4.424  17.088  0.00  0.00    +0.000 HD
BRANCH  22  24
ATOM     24  C   UNL     1       5.398   5.220  16.149  0.00  0.00    +0.000 C 
ATOM     25  C   UNL     1       6.382   4.128  15.835  0.00  0.00    +0.000 C 
ATOM     26  C   UNL     1       5.224   4.372  14.914  0.00  0.00    +0.000 C 
ENDBRANCH  22  24
ENDBRANCH   8  20
TORSDOF 4
ENDMDL
MODEL 8
REMARK VINA RESULT:      -6.2      2.358      2.709
REMARK  Name = 
REMARK  6 active torsions:
REMARK  status: ('A' for Active; 'I' for Inactive)
REMARK    1  A    between atoms: C_1  and  C_2
REMARK    2  A    between atoms: C_2  and  N_3
REMARK    3  A    between atoms: C_6  and  C_7
REMARK    4  A    between atoms: C_8  and  C_9
REMARK    5  A    between atoms: C_16  and  C_17
REMARK    6  A    between atoms: N_19  and  C_20
REMARK                            x       y       z     vdW  Elec       q    Type
REMARK                         _______ _______ _______ _____ _____    ______ ____
ROOT
ATOM      1  C   UNL     1       3.039   7.206  18.087  0.00  0.00    +0.000 C 
ATOM      2  O   UNL     1       4.031   7.727  17.575  0.00  0.00    +0.000 OA
ATOM      3  N   UNL     1       2.874   5.820  18.013  0.00  0.00    +0.000 N 
ATOM      4  C   UNL     1       1.650   5.177  18.483  0.00  0.00    +0.000 C 
ATOM      5  C   UNL     1       1.285   3.884  17.769  0.00  0.00    +0.000 C 
ATOM      6  N   UNL     1       2.383   2.923  17.854  0.00  0.00    +0.000 NA
ATOM      7  C   UNL     1       3.621   3.523  17.310  0.00  0.00    +0.000 C 
ATOM      8  C   UNL     1       4.046   4.885  17.959  0.00  0.00    +0.000 C 
ATOM      9  H   UNL     1       2.143   2.096  17.305  0.00  0.00    +0.000 HD
ENDROOT
BRANCH   1  15
ATOM     10  N   UNL     1      -0.250  10.981  19.326  0.00  0.00    +0.000 N 
ATOM     11  C   UNL     1       0.506   9.860  19.278  0.00  0.00    +0.000 A 
ATOM     12  N   UNL     1       0.647   9.069  20.306  0.00  0.00    +0.000 NA
ATOM     13  C   UNL     1       1.562   8.071  20.058  0.00  0.00    +0.000 A 
ATOM     14  C   UNL     1       1.859   7.227  21.241  0.00  0.00    +0.000 C 
ATOM     15  C   UNL     1       2.061   8.049  18.766  0.00  0.00    +0.000 A 
ATOM     16  S   UNL     1       1.398   9.395  17.893  0.00  0.00    +0.000 S 
ATOM     17  H   UNL     1      -0.048  11.687  18.628  0.00  0.00    +0.000 HD
BRANCH  10  19
ATOM     18  C   UNL     1       0.392  12.643  21.000  0.00  0.00    +0.000 C 
ATOM     19  C   UNL     1      -0.522  11.482  20.669  0.00  0.00    +0.000 C 
ENDBRANCH  10  19
ENDBRANCH   1  15
BRANCH   8  20
ATOM     20  C   UNL     1       5.425   5.277  17.327  0.00  0.00    +0.000 C 
ATOM     21  O   UNL     1       5.849   4.774  16.285  0.00  0.00    +0.000 OA
ATOM     22  N   UNL     1       6.219   6.072  18.142  0.00  0.00    +0.000 N 
ATOM     23  H   UNL     1       5.694   6.726  18.720  0.00  0.00    +0.000 HD
BRANCH  22  24
ATOM     24  C   UNL     1       7.523   6.512  17.754  0.00  0.00    +0.000 C 
ATOM     25  C   UNL     1       7.799   7.957  17.443  0.00  0.00    +0.000 C 
ATOM     26  C   UNL     1       8.346   7.349  18.700  0.00  0.00    +0.000 C 
ENDBRANCH  22  24
ENDBRANCH   8  20
TORSDOF 4
ENDMDL
MODEL 9
REMARK VINA RESULT:      -6.2      4.408      9.095
REMARK  Name = 
REMARK  6 active torsions:
REMARK  status: ('A' for Active; 'I' for Inactive)
REMARK    1  A    between atoms: C_1  and  C_2
REMARK    2  A    between atoms: C_2  and  N_3
REMARK    3  A    between atoms: C_6  and  C_7
REMARK    4  A    between atoms: C_8  and  C_9
REMARK    5  A    between atoms: C_16  and  C_17
REMARK    6  A    between atoms: N_19  and  C_20
REMARK                            x       y       z     vdW  Elec       q    Type
REMARK                         _______ _______ _______ _____ _____    ______ ____
ROOT
ATOM      1  C   UNL     1      -0.117  10.293  19.160  0.00  0.00    +0.000 C 
ATOM      2  O   UNL     1      -1.301   9.958  19.111  0.00  0.00    +0.000 OA
ATOM      3  N   UNL     1       0.217  11.649  19.119  0.00  0.00    +0.000 N 
ATOM      4  C   UNL     1       1.609  12.085  19.035  0.00  0.00    +0.000 C 
ATOM      5  C   UNL     1       1.826  13.414  18.328  0.00  0.00    +0.000 C 
ATOM      6  N   UNL     1       1.042  14.470  18.965  0.00  0.00    +0.000 NA
ATOM      7  C   UNL     1      -0.387  14.088  18.993  0.00  0.00    +0.000 C 
ATOM      8  C   UNL     1      -0.698  12.706  19.664  0.00  0.00    +0.000 C 
ATOM      9  H   UNL     1       1.147  15.332  18.428  0.00  0.00    +0.000 HD
ENDROOT
BRANCH   1  15
ATOM     10  N   UNL     1       3.443   6.709  18.118  0.00  0.00    +0.000 N 
ATOM     11  C   UNL     1       2.599   7.592  18.697  0.00  0.00    +0.000 A 
ATOM     12  N   UNL     1       2.371   7.599  19.982  0.00  0.00    +0.000 NA
ATOM     13  C   UNL     1       1.382   8.497  20.318  0.00  0.00    +0.000 A 
ATOM     14  C   UNL     1       0.991   8.445  21.748  0.00  0.00    +0.000 C 
ATOM     15  C   UNL     1       0.912   9.264  19.265  0.00  0.00    +0.000 A 
ATOM     16  S   UNL     1       1.702   8.748  17.808  0.00  0.00    +0.000 S 
ATOM     17  H   UNL     1       3.315   6.554  17.124  0.00  0.00    +0.000 HD
BRANCH  10  19
ATOM     18  C   UNL     1       5.218   5.286  19.012  0.00  0.00    +0.000 C 
ATOM     19  C   UNL     1       3.725   5.517  18.910  0.00  0.00    +0.000 C 
ENDBRANCH  10  19
ENDBRANCH   1  15
BRANCH   8  20
ATOM     20  C   UNL     1      -2.258  12.557  19.692  0.00  0.00    +0.000 C 
ATOM     21  O   UNL     1      -2.908  12.549  20.737  0.00  0.00    +0.000 OA
ATOM     22  N   UNL     1      -2.818  12.223  18.467  0.00  0.00    +0.000 N 
ATOM     23  H   UNL     1      -2.338  12.630  17.667  0.00  0.00    +0.000 HD
BRANCH  22  24
ATOM     24  C   UNL     1      -4.224  12.017  18.294  0.00  0.00    +0.000 C 
ATOM     25  C   UNL     1      -4.815  11.769  16.935  0.00  0.00    +0.000 C 
ATOM     26  C   UNL     1      -4.742  10.649  17.929  0.00  0.00    +0.000 C 
ENDBRANCH  22  24
ENDBRANCH   8  20
TORSDOF 4
ENDMDL
