MODEL 1
REMARK VINA RESULT:      -6.5      0.000      0.000
REMARK  Name = 
REMARK  11 active torsions:
REMARK  status: ('A' for Active; 'I' for Inactive)
REMARK    1  A    between atoms: C_1  and  O_2
REMARK    2  A    between atoms: O_2  and  C_3
REMARK    3  A    between atoms: C_5  and  O_6
REMARK    4  A    between atoms: O_6  and  C_7
REMARK    5  A    between atoms: C_8  and  O_9
REMARK    6  A    between atoms: O_9  and  C_10
REMARK    7  A    between atoms: C_12  and  N_13
REMARK    8  A    between atoms: C_18  and  C_19
REMARK    9  A    between atoms: C_18  and  C_20
REMARK   10  A    between atoms: C_21  and  C_22
REMARK   11  A    between atoms: C_21  and  C_23
REMARK                            x       y       z     vdW  Elec       q    Type
REMARK                         _______ _______ _______ _____ _____    ______ ____
ROOT
ATOM      1  C   UNL     1       2.927   5.336  18.002  0.00  0.00    +0.000 A 
ATOM      2  C   UNL     1       3.844   4.539  17.297  0.00  0.00    +0.000 A 
ATOM      3  C   UNL     1       5.066   5.038  16.834  0.00  0.00    +0.000 A 
ATOM      4  C   UNL     1       5.395   6.369  17.086  0.00  0.00    +0.000 A 
ATOM      5  C   UNL     1       4.511   7.151  17.842  0.00  0.00    +0.000 A 
ATOM      6  C   UNL     1       3.260   6.673  18.295  0.00  0.00    +0.000 A 
ENDROOT
BRANCH   6   7
ATOM      7  N   UNL     1       2.364   7.515  19.031  0.00  0.00    +0.000 N 
ATOM      8  C   UNL     1       1.732   8.631  18.522  0.00  0.00    +0.000 C 
ATOM      9  O   UNL     1       1.744   8.955  17.333  0.00  0.00    +0.000 OA
ATOM     10  N   UNL     1       1.059   9.433  19.401  0.00  0.00    +0.000 N 
ATOM     11  C   UNL     1       0.281  10.620  19.022  0.00  0.00    +0.000 C 
ATOM     12  C   UNL     1       0.248  10.986  20.521  0.00  0.00    +0.000 C 
ATOM     13  C   UNL     1      -1.126  11.453  21.005  0.00  0.00    +0.000 C 
ATOM     14  C   UNL     1       1.295  12.067  20.848  0.00  0.00    +0.000 C 
ATOM     15  C   UNL     1       0.649   9.468  20.798  0.00  0.00    +0.000 C 
ATOM     16  C   UNL     1      -0.494   8.483  21.046  0.00  0.00    +0.000 C 
ATOM     17  C   UNL     1       1.785   9.275  21.791  0.00  0.00    +0.000 C 
ATOM     18  H   UNL     1       2.041   7.141  19.912  0.00  0.00    +0.000 HD
ENDBRANCH   6   7
BRANCH   1  20
ATOM     19  C   UNL     1       1.517   3.450  18.227  0.00  0.00    +0.000 C 
ATOM     20  O   UNL     1       1.702   4.859  18.416  0.00  0.00    +0.000 OA
ENDBRANCH   1  20
BRANCH   3  21
ATOM     21  O   UNL     1       5.779   4.119  16.107  0.00  0.00    +0.000 OA
ATOM     22  C   UNL     1       5.688   4.208  14.690  0.00  0.00    +0.000 C 
ENDBRANCH   3  21
BRANCH   4  23
ATOM     23  O   UNL     1       6.563   6.846  16.556  0.00  0.00    +0.000 OA
ATOM     24  C   UNL     1       7.510   7.440  17.436  0.00  0.00    +0.000 C 
ENDBRANCH   4  23
TORSDOF 4
ENDMDL
MODEL 2
REMARK VINA RESULT:      -6.3      3.916      5.970
REMARK  Name = 
REMARK  11 active torsions:
REMARK  status: ('A' for Active; 'I' for Inactive)
REMARK    1  A    between atoms: C_1  and  O_2
REMARK    2  A    between atoms: O_2  and  C_3
REMARK    3  A    between atoms: C_5  and  O_6
REMARK    4  A    between atoms: O_6  and  C_7
REMARK    5  A    between atoms: C_8  and  O_9
REMARK    6  A    between atoms: O_9  and  C_10
REMARK    7  A    between atoms: C_12  and  N_13
REMARK    8  A    between atoms: C_18  and  C_19
REMARK    9  A    between atoms: C_18  and  C_20
REMARK   10  A    between atoms: C_21  and  C_22
REMARK   11  A    between atoms: C_21  and  C_23
REMARK                            x       y       z     vdW  Elec       q    Type
REMARK                         _______ _______ _______ _____ _____    ______ ____
ROOT
ATOM      1  C   UNL     1       6.501   5.831  16.421  0.00  0.00    +0.000 A 
ATOM      2  C   UNL     1       7.442   5.999  15.390  0.00  0.00    +0.000 A 
ATOM      3  C   UNL     1       7.399   5.249  14.211  0.00  0.00    +0.000 A 
ATOM      4  C   UNL     1       6.386   4.307  14.041  0.00  0.00    +0.000 A 
ATOM      5  C   UNL     1       5.410   4.178  15.039  0.00  0.00    +0.000 A 
ATOM      6  C   UNL     1       5.452   4.908  16.250  0.00  0.00    +0.000 A 
ENDROOT
BRANCH   6   7
ATOM      7  N   UNL     1       4.458   4.720  17.265  0.00  0.00    +0.000 N 
ATOM      8  C   UNL     1       4.572   3.850  18.331  0.00  0.00    +0.000 C 
ATOM      9  O   UNL     1       5.602   3.239  18.621  0.00  0.00    +0.000 OA
ATOM     10  N   UNL     1       3.463   3.649  19.104  0.00  0.00    +0.000 N 
ATOM     11  C   UNL     1       3.427   2.810  20.309  0.00  0.00    +0.000 C 
ATOM     12  C   UNL     1       1.888   2.907  20.241  0.00  0.00    +0.000 C 
ATOM     13  C   UNL     1       1.232   3.169  21.598  0.00  0.00    +0.000 C 
ATOM     14  C   UNL     1       1.282   1.634  19.623  0.00  0.00    +0.000 C 
ATOM     15  C   UNL     1       2.111   4.158  19.277  0.00  0.00    +0.000 C 
ATOM     16  C   UNL     1       2.137   5.541  19.930  0.00  0.00    +0.000 C 
ATOM     17  C   UNL     1       1.268   4.150  18.010  0.00  0.00    +0.000 C 
ATOM     18  H   UNL     1       3.725   5.414  17.289  0.00  0.00    +0.000 HD
ENDBRANCH   6   7
BRANCH   1  20
ATOM     19  C   UNL     1       7.645   6.144  18.467  0.00  0.00    +0.000 C 
ATOM     20  O   UNL     1       6.571   6.535  17.603  0.00  0.00    +0.000 OA
ENDBRANCH   1  20
BRANCH   3  21
ATOM     21  O   UNL     1       8.449   5.516  13.368  0.00  0.00    +0.000 OA
ATOM     22  C   UNL     1       8.129   6.052  12.090  0.00  0.00    +0.000 C 
ENDBRANCH   3  21
BRANCH   4  23
ATOM     23  O   UNL     1       6.416   3.538  12.910  0.00  0.00    +0.000 OA
ATOM     24  C   UNL     1       5.201   3.337  12.199  0.00  0.00    +0.000 C 
ENDBRANCH   4  23
TORSDOF 4
ENDMDL
MODEL 3
REMARK VINA RESULT:      -6.1      4.181      5.908
REMARK  Name = 
REMARK  11 active torsions:
REMARK  status: ('A' for Active; 'I' for Inactive)
REMARK    1  A    between atoms: C_1  and  O_2
REMARK    2  A    between atoms: O_2  and  C_3
REMARK    3  A    between atoms: C_5  and  O_6
REMARK    4  A    between atoms: O_6  and  C_7
REMARK    5  A    between atoms: C_8  and  O_9
REMARK    6  A    between atoms: O_9  and  C_10
REMARK    7  A    between atoms: C_12  and  N_13
REMARK    8  A    between atoms: C_18  and  C_19
REMARK    9  A    between atoms: C_18  and  C_20
REMARK   10  A    between atoms: C_21  and  C_22
REMARK   11  A    between atoms: C_21  and  C_23
REMARK                            x       y       z     vdW  Elec       q    Type
REMARK                         _______ _______ _______ _____ _____    ______ ____
ROOT
ATOM      1  C   UNL     1       6.682   5.056  16.401  0.00  0.00    +0.000 A 
ATOM      2  C   UNL     1       7.557   5.506  15.397  0.00  0.00    +0.000 A 
ATOM      3  C   UNL     1       7.475   5.054  14.077  0.00  0.00    +0.000 A 
ATOM      4  C   UNL     1       6.486   4.131  13.736  0.00  0.00    +0.000 A 
ATOM      5  C   UNL     1       5.573   3.727  14.718  0.00  0.00    +0.000 A 
ATOM      6  C   UNL     1       5.657   4.151  16.064  0.00  0.00    +0.000 A 
ENDROOT
BRANCH   6   7
ATOM      7  N   UNL     1       4.729   3.684  17.051  0.00  0.00    +0.000 N 
ATOM      8  C   UNL     1       3.696   4.429  17.580  0.00  0.00    +0.000 C 
ATOM      9  O   UNL     1       3.354   5.538  17.162  0.00  0.00    +0.000 OA
ATOM     10  N   UNL     1       3.018   3.905  18.645  0.00  0.00    +0.000 N 
ATOM     11  C   UNL     1       1.855   4.534  19.286  0.00  0.00    +0.000 C 
ATOM     12  C   UNL     1       2.036   3.522  20.437  0.00  0.00    +0.000 C 
ATOM     13  C   UNL     1       0.723   2.898  20.913  0.00  0.00    +0.000 C 
ATOM     14  C   UNL     1       2.752   4.172  21.636  0.00  0.00    +0.000 C 
ATOM     15  C   UNL     1       2.926   2.677  19.420  0.00  0.00    +0.000 C 
ATOM     16  C   UNL     1       2.215   1.587  18.617  0.00  0.00    +0.000 C 
ATOM     17  C   UNL     1       4.253   2.187  19.982  0.00  0.00    +0.000 C 
ATOM     18  H   UNL     1       4.732   2.686  17.211  0.00  0.00    +0.000 HD
ENDBRANCH   6   7
BRANCH   1  20
ATOM     19  C   UNL     1       7.452   6.725  17.891  0.00  0.00    +0.000 C 
ATOM     20  O   UNL     1       6.794   5.464  17.712  0.00  0.00    +0.000 OA
ENDBRANCH   1  20
BRANCH   3  21
ATOM     21  O   UNL     1       8.466   5.559  13.274  0.00  0.00    +0.000 OA
ATOM     22  C   UNL     1       8.068   6.088  12.016  0.00  0.00    +0.000 C 
ENDBRANCH   3  21
BRANCH   4  23
ATOM     23  O   UNL     1       6.479   3.653  12.454  0.00  0.00    +0.000 OA
ATOM     24  C   UNL     1       5.274   3.090  11.951  0.00  0.00    +0.000 C 
ENDBRANCH   4  23
TORSDOF 4
ENDMDL
MODEL 4
REMARK VINA RESULT:      -6.0      2.148      3.936
REMARK  Name = 
REMARK  11 active torsions:
REMARK  status: ('A' for Active; 'I' for Inactive)
REMARK    1  A    between atoms: C_1  and  O_2
REMARK    2  A    between atoms: O_2  and  C_3
REMARK    3  A    between atoms: C_5  and  O_6
REMARK    4  A    between atoms: O_6  and  C_7
REMARK    5  A    between atoms: C_8  and  O_9
REMARK    6  A    between atoms: O_9  and  C_10
REMARK    7  A    between atoms: C_12  and  N_13
REMARK    8  A    between atoms: C_18  and  C_19
REMARK    9  A    between atoms: C_18  and  C_20
REMARK   10  A    between atoms: C_21  and  C_22
REMARK   11  A    between atoms: C_21  and  C_23
REMARK                            x       y       z     vdW  Elec       q    Type
REMARK                         _______ _______ _______ _____ _____    ______ ____
ROOT
ATOM      1  C   UNL     1       3.358   6.204  18.489  0.00  0.00    +0.000 A 
ATOM      2  C   UNL     1       3.821   4.882  18.602  0.00  0.00    +0.000 A 
ATOM      3  C   UNL     1       3.434   4.043  19.651  0.00  0.00    +0.000 A 
ATOM      4  C   UNL     1       2.551   4.525  20.616  0.00  0.00    +0.000 A 
ATOM      5  C   UNL     1       2.038   5.821  20.474  0.00  0.00    +0.000 A 
ATOM      6  C   UNL     1       2.439   6.694  19.436  0.00  0.00    +0.000 A 
ENDROOT
BRANCH   6   7
ATOM      7  N   UNL     1       1.923   8.028  19.346  0.00  0.00    +0.000 N 
ATOM      8  C   UNL     1       1.497   8.785  20.419  0.00  0.00    +0.000 C 
ATOM      9  O   UNL     1       1.647   8.462  21.599  0.00  0.00    +0.000 OA
ATOM     10  N   UNL     1       0.859   9.962  20.149  0.00  0.00    +0.000 N 
ATOM     11  C   UNL     1       0.400  10.916  21.168  0.00  0.00    +0.000 C 
ATOM     12  C   UNL     1      -0.406  11.610  20.049  0.00  0.00    +0.000 C 
ATOM     13  C   UNL     1      -0.304  13.136  20.079  0.00  0.00    +0.000 C 
ATOM     14  C   UNL     1      -1.889  11.200  20.103  0.00  0.00    +0.000 C 
ATOM     15  C   UNL     1       0.535  10.829  19.025  0.00  0.00    +0.000 C 
ATOM     16  C   UNL     1       1.784  11.562  18.534  0.00  0.00    +0.000 C 
ATOM     17  C   UNL     1      -0.195  10.134  17.885  0.00  0.00    +0.000 C 
ATOM     18  H   UNL     1       2.069   8.491  18.460  0.00  0.00    +0.000 HD
ENDBRANCH   6   7
BRANCH   1  20
ATOM     19  C   UNL     1       5.020   6.677  16.873  0.00  0.00    +0.000 C 
ATOM     20  O   UNL     1       3.777   7.047  17.483  0.00  0.00    +0.000 OA
ENDBRANCH   1  20
BRANCH   3  21
ATOM     21  O   UNL     1       4.057   2.820  19.617  0.00  0.00    +0.000 OA
ATOM     22  C   UNL     1       3.554   1.868  18.688  0.00  0.00    +0.000 C 
ENDBRANCH   3  21
BRANCH   4  23
ATOM     23  O   UNL     1       2.250   3.704  21.669  0.00  0.00    +0.000 OA
ATOM     24  C   UNL     1       1.253   2.706  21.482  0.00  0.00    +0.000 C 
ENDBRANCH   4  23
TORSDOF 4
ENDMDL
MODEL 5
REMARK VINA RESULT:      -5.7      2.653      7.415
REMARK  Name = 
REMARK  11 active torsions:
REMARK  status: ('A' for Active; 'I' for Inactive)
REMARK    1  A    between atoms: C_1  and  O_2
REMARK    2  A    between atoms: O_2  and  C_3
REMARK    3  A    between atoms: C_5  and  O_6
REMARK    4  A    between atoms: O_6  and  C_7
REMARK    5  A    between atoms: C_8  and  O_9
REMARK    6  A    between atoms: O_9  and  C_10
REMARK    7  A    between atoms: C_12  and  N_13
REMARK    8  A    between atoms: C_18  and  C_19
REMARK    9  A    between atoms: C_18  and  C_20
REMARK   10  A    between atoms: C_21  and  C_22
REMARK   11  A    between atoms: C_21  and  C_23
REMARK                            x       y       z     vdW  Elec       q    Type
REMARK                         _______ _______ _______ _____ _____    ______ ____
ROOT
ATOM      1  C   UNL     1       1.447   8.571  19.422  0.00  0.00    +0.000 A 
ATOM      2  C   UNL     1       1.132   9.933  19.570  0.00  0.00    +0.000 A 
ATOM      3  C   UNL     1       0.780  10.488  20.804  0.00  0.00    +0.000 A 
ATOM      4  C   UNL     1       0.746   9.669  21.932  0.00  0.00    +0.000 A 
ATOM      5  C   UNL     1       1.118   8.325  21.802  0.00  0.00    +0.000 A 
ATOM      6  C   UNL     1       1.450   7.740  20.558  0.00  0.00    +0.000 A 
ENDROOT
BRANCH   6   7
ATOM      7  N   UNL     1       1.786   6.350  20.457  0.00  0.00    +0.000 N 
ATOM      8  C   UNL     1       2.944   5.856  19.891  0.00  0.00    +0.000 C 
ATOM      9  O   UNL     1       3.896   6.554  19.536  0.00  0.00    +0.000 OA
ATOM     10  N   UNL     1       3.029   4.506  19.702  0.00  0.00    +0.000 N 
ATOM     11  C   UNL     1       4.210   3.809  19.174  0.00  0.00    +0.000 C 
ATOM     12  C   UNL     1       3.310   2.566  19.005  0.00  0.00    +0.000 C 
ATOM     13  C   UNL     1       3.971   1.267  19.470  0.00  0.00    +0.000 C 
ATOM     14  C   UNL     1       2.855   2.409  17.543  0.00  0.00    +0.000 C 
ATOM     15  C   UNL     1       2.305   3.282  20.015  0.00  0.00    +0.000 C 
ATOM     16  C   UNL     1       2.449   2.937  21.498  0.00  0.00    +0.000 C 
ATOM     17  C   UNL     1       0.848   3.284  19.576  0.00  0.00    +0.000 C 
ATOM     18  H   UNL     1       1.219   5.725  21.012  0.00  0.00    +0.000 HD
ENDBRANCH   6   7
BRANCH   1  20
ATOM     19  C   UNL     1       2.628   8.799  17.385  0.00  0.00    +0.000 C 
ATOM     20  O   UNL     1       1.747   8.014  18.198  0.00  0.00    +0.000 OA
ENDBRANCH   1  20
BRANCH   3  21
ATOM     21  O   UNL     1       0.440  11.815  20.717  0.00  0.00    +0.000 OA
ATOM     22  C   UNL     1      -0.475  12.179  19.691  0.00  0.00    +0.000 C 
ENDBRANCH   3  21
BRANCH   4  23
ATOM     23  O   UNL     1       0.325  10.227  23.109  0.00  0.00    +0.000 OA
ATOM     24  C   UNL     1      -1.058  10.523  23.258  0.00  0.00    +0.000 C 
ENDBRANCH   4  23
TORSDOF 4
ENDMDL
MODEL 6
REMARK VINA RESULT:      -5.6      4.020      6.093
REMARK  Name = 
REMARK  11 active torsions:
REMARK  status: ('A' for Active; 'I' for Inactive)
REMARK    1  A    between atoms: C_1  and  O_2
REMARK    2  A    between atoms: O_2  and  C_3
REMARK    3  A    between atoms: C_5  and  O_6
REMARK    4  A    between atoms: O_6  and  C_7
REMARK    5  A    between atoms: C_8  and  O_9
REMARK    6  A    between atoms: O_9  and  C_10
REMARK    7  A    between atoms: C_12  and  N_13
REMARK    8  A    between atoms: C_18  and  C_19
REMARK    9  A    between atoms: C_18  and  C_20
REMARK   10  A    between atoms: C_21  and  C_22
REMARK   11  A    between atoms: C_21  and  C_23
REMARK                            x       y       z     vdW  Elec       q    Type
REMARK                         _______ _______ _______ _____ _____    ______ ____
ROOT
ATOM      1  C   UNL     1       6.809   4.841  15.617  0.00  0.00    +0.000 A 
ATOM      2  C   UNL     1       7.416   5.074  14.370  0.00  0.00    +0.000 A 
ATOM      3  C   UNL     1       6.958   4.474  13.193  0.00  0.00    +0.000 A 
ATOM      4  C   UNL     1       5.856   3.622  13.250  0.00  0.00    +0.000 A 
ATOM      5  C   UNL     1       5.210   3.434  14.479  0.00  0.00    +0.000 A 
ATOM      6  C   UNL     1       5.674   4.010  15.684  0.00  0.00    +0.000 A 
ENDROOT
BRANCH   6   7
ATOM      7  N   UNL     1       5.011   3.762  16.930  0.00  0.00    +0.000 N 
ATOM      8  C   UNL     1       3.660   3.517  17.071  0.00  0.00    +0.000 C 
ATOM      9  O   UNL     1       2.886   3.335  16.129  0.00  0.00    +0.000 OA
ATOM     10  N   UNL     1       3.152   3.488  18.339  0.00  0.00    +0.000 N 
ATOM     11  C   UNL     1       1.755   3.178  18.671  0.00  0.00    +0.000 C 
ATOM     12  C   UNL     1       2.053   3.703  20.092  0.00  0.00    +0.000 C 
ATOM     13  C   UNL     1       1.483   2.818  21.202  0.00  0.00    +0.000 C 
ATOM     14  C   UNL     1       1.530   5.140  20.270  0.00  0.00    +0.000 C 
ATOM     15  C   UNL     1       3.595   3.522  19.725  0.00  0.00    +0.000 C 
ATOM     16  C   UNL     1       4.249   2.195  20.113  0.00  0.00    +0.000 C 
ATOM     17  C   UNL     1       4.481   4.709  20.073  0.00  0.00    +0.000 C 
ATOM     18  H   UNL     1       5.618   3.570  17.714  0.00  0.00    +0.000 HD
ENDBRANCH   6   7
BRANCH   1  20
ATOM     19  C   UNL     1       6.830   6.723  17.049  0.00  0.00    +0.000 C 
ATOM     20  O   UNL     1       7.290   5.393  16.784  0.00  0.00    +0.000 OA
ENDBRANCH   1  20
BRANCH   3  21
ATOM     21  O   UNL     1       7.733   4.775  12.102  0.00  0.00    +0.000 OA
ATOM     22  C   UNL     1       7.987   6.152  11.853  0.00  0.00    +0.000 C 
ENDBRANCH   3  21
BRANCH   4  23
ATOM     23  O   UNL     1       5.479   2.994  12.094  0.00  0.00    +0.000 OA
ATOM     24  C   UNL     1       4.221   3.331  11.523  0.00  0.00    +0.000 C 
ENDBRANCH   4  23
TORSDOF 4
ENDMDL
MODEL 7
REMARK VINA RESULT:      -5.5      2.542      7.408
REMARK  Name = 
REMARK  11 active torsions:
REMARK  status: ('A' for Active; 'I' for Inactive)
REMARK    1  A    between atoms: C_1  and  O_2
REMARK    2  A    between atoms: O_2  and  C_3
REMARK    3  A    between atoms: C_5  and  O_6
REMARK    4  A    between atoms: O_6  and  C_7
REMARK    5  A    between atoms: C_8  and  O_9
REMARK    6  A    between atoms: O_9  and  C_10
REMARK    7  A    between atoms: C_12  and  N_13
REMARK    8  A    between atoms: C_18  and  C_19
REMARK    9  A    between atoms: C_18  and  C_20
REMARK   10  A    between atoms: C_21  and  C_22
REMARK   11  A    between atoms: C_21  and  C_23
REMARK                            x       y       z     vdW  Elec       q    Type
REMARK                         _______ _______ _______ _____ _____    ______ ____
ROOT
ATOM      1  C   UNL     1       1.575   8.799  19.001  0.00  0.00    +0.000 A 
ATOM      2  C   UNL     1       1.080  10.029  19.468  0.00  0.00    +0.000 A 
ATOM      3  C   UNL     1       0.849  10.273  20.825  0.00  0.00    +0.000 A 
ATOM      4  C   UNL     1       1.126   9.270  21.753  0.00  0.00    +0.000 A 
ATOM      5  C   UNL     1       1.677   8.065  21.299  0.00  0.00    +0.000 A 
ATOM      6  C   UNL     1       1.892   7.789  19.928  0.00  0.00    +0.000 A 
ENDROOT
BRANCH   6   7
ATOM      7  N   UNL     1       2.420   6.528  19.498  0.00  0.00    +0.000 N 
ATOM      8  C   UNL     1       1.927   5.295  19.874  0.00  0.00    +0.000 C 
ATOM      9  O   UNL     1       0.882   5.128  20.507  0.00  0.00    +0.000 OA
ATOM     10  N   UNL     1       2.655   4.191  19.530  0.00  0.00    +0.000 N 
ATOM     11  C   UNL     1       2.246   2.805  19.794  0.00  0.00    +0.000 C 
ATOM     12  C   UNL     1       3.688   2.388  19.434  0.00  0.00    +0.000 C 
ATOM     13  C   UNL     1       3.760   1.156  18.530  0.00  0.00    +0.000 C 
ATOM     14  C   UNL     1       4.521   2.135  20.704  0.00  0.00    +0.000 C 
ATOM     15  C   UNL     1       3.821   3.818  18.741  0.00  0.00    +0.000 C 
ATOM     16  C   UNL     1       3.506   3.897  17.247  0.00  0.00    +0.000 C 
ATOM     17  C   UNL     1       5.088   4.585  19.091  0.00  0.00    +0.000 C 
ATOM     18  H   UNL     1       3.068   6.570  18.723  0.00  0.00    +0.000 HD
ENDBRANCH   6   7
BRANCH   1  20
ATOM     19  C   UNL     1       3.111   8.268  17.282  0.00  0.00    +0.000 C 
ATOM     20  O   UNL     1       1.756   8.541  17.659  0.00  0.00    +0.000 OA
ENDBRANCH   1  20
BRANCH   3  21
ATOM     21  O   UNL     1       0.296  11.507  21.061  0.00  0.00    +0.000 OA
ATOM     22  C   UNL     1      -0.087  12.269  19.922  0.00  0.00    +0.000 C 
ENDBRANCH   3  21
BRANCH   4  23
ATOM     23  O   UNL     1       0.819   9.515  23.064  0.00  0.00    +0.000 OA
ATOM     24  C   UNL     1      -0.552   9.613  23.428  0.00  0.00    +0.000 C 
ENDBRANCH   4  23
TORSDOF 4
ENDMDL
MODEL 8
REMARK VINA RESULT:      -5.5      1.376      1.641
REMARK  Name = 
REMARK  11 active torsions:
REMARK  status: ('A' for Active; 'I' for Inactive)
REMARK    1  A    between atoms: C_1  and  O_2
REMARK    2  A    between atoms: O_2  and  C_3
REMARK    3  A    between atoms: C_5  and  O_6
REMARK    4  A    between atoms: O_6  and  C_7
REMARK    5  A    between atoms: C_8  and  O_9
REMARK    6  A    between atoms: O_9  and  C_10
REMARK    7  A    between atoms: C_12  and  N_13
REMARK    8  A    between atoms: C_18  and  C_19
REMARK    9  A    between atoms: C_18  and  C_20
REMARK   10  A    between atoms: C_21  and  C_22
REMARK   11  A    between atoms: C_21  and  C_23
REMARK                            x       y       z     vdW  Elec       q    Type
REMARK                         _______ _______ _______ _____ _____    ______ ____
ROOT
ATOM      1  C   UNL     1       2.352   5.492  19.365  0.00  0.00    +0.000 A 
ATOM      2  C   UNL     1       3.108   4.401  18.902  0.00  0.00    +0.000 A 
ATOM      3  C   UNL     1       4.053   4.528  17.880  0.00  0.00    +0.000 A 
ATOM      4  C   UNL     1       4.263   5.779  17.301  0.00  0.00    +0.000 A 
ATOM      5  C   UNL     1       3.557   6.881  17.800  0.00  0.00    +0.000 A 
ATOM      6  C   UNL     1       2.577   6.768  18.814  0.00  0.00    +0.000 A 
ENDROOT
BRANCH   6   7
ATOM      7  N   UNL     1       1.845   7.911  19.271  0.00  0.00    +0.000 N 
ATOM      8  C   UNL     1       1.726   9.101  18.582  0.00  0.00    +0.000 C 
ATOM      9  O   UNL     1       2.111   9.274  17.423  0.00  0.00    +0.000 OA
ATOM     10  N   UNL     1       1.154  10.156  19.234  0.00  0.00    +0.000 N 
ATOM     11  C   UNL     1       0.893  11.470  18.630  0.00  0.00    +0.000 C 
ATOM     12  C   UNL     1       0.632  11.993  20.059  0.00  0.00    +0.000 C 
ATOM     13  C   UNL     1      -0.600  12.892  20.164  0.00  0.00    +0.000 C 
ATOM     14  C   UNL     1       1.859  12.748  20.602  0.00  0.00    +0.000 C 
ATOM     15  C   UNL     1       0.466  10.463  20.480  0.00  0.00    +0.000 C 
ATOM     16  C   UNL     1      -0.952   9.891  20.466  0.00  0.00    +0.000 C 
ATOM     17  C   UNL     1       1.225  10.057  21.734  0.00  0.00    +0.000 C 
ATOM     18  H   UNL     1       1.228   7.748  20.055  0.00  0.00    +0.000 HD
ENDBRANCH   6   7
BRANCH   1  20
ATOM     19  C   UNL     1       1.063   4.003  20.676  0.00  0.00    +0.000 C 
ATOM     20  O   UNL     1       1.386   5.357  20.338  0.00  0.00    +0.000 OA
ENDBRANCH   1  20
BRANCH   3  21
ATOM     21  O   UNL     1       4.627   3.332  17.529  0.00  0.00    +0.000 OA
ATOM     22  C   UNL     1       3.862   2.157  17.766  0.00  0.00    +0.000 C 
ENDBRANCH   3  21
BRANCH   4  23
ATOM     23  O   UNL     1       5.141   5.855  16.253  0.00  0.00    +0.000 OA
ATOM     24  C   UNL     1       6.510   6.115  16.538  0.00  0.00    +0.000 C 
ENDBRANCH   4  23
TORSDOF 4
ENDMDL
MODEL 9
REMARK VINA RESULT:      -5.5      1.598      2.015
REMARK  Name = 
REMARK  11 active torsions:
REMARK  status: ('A' for Active; 'I' for Inactive)
REMARK    1  A    between atoms: C_1  and  O_2
REMARK    2  A    between atoms: O_2  and  C_3
REMARK    3  A    between atoms: C_5  and  O_6
REMARK    4  A    between atoms: O_6  and  C_7
REMARK    5  A    between atoms: C_8  and  O_9
REMARK    6  A    between atoms: O_9  and  C_10
REMARK    7  A    between atoms: C_12  and  N_13
REMARK    8  A    between atoms: C_18  and  C_19
REMARK    9  A    between atoms: C_18  and  C_20
REMARK   10  A    between atoms: C_21  and  C_22
REMARK   11  A    between atoms: C_21  and  C_23
REMARK                            x       y       z     vdW  Elec       q    Type
REMARK                         _______ _______ _______ _____ _____    ______ ____
ROOT
ATOM      1  C   UNL     1       2.976   6.295  19.288  0.00  0.00    +0.000 A 
ATOM      2  C   UNL     1       4.021   5.391  19.028  0.00  0.00    +0.000 A 
ATOM      3  C   UNL     1       4.871   5.529  17.928  0.00  0.00    +0.000 A 
ATOM      4  C   UNL     1       4.688   6.604  17.058  0.00  0.00    +0.000 A 
ATOM      5  C   UNL     1       3.688   7.541  17.346  0.00  0.00    +0.000 A 
ATOM      6  C   UNL     1       2.800   7.404  18.439  0.00  0.00    +0.000 A 
ENDROOT
BRANCH   6   7
ATOM      7  N   UNL     1       1.763   8.363  18.678  0.00  0.00    +0.000 N 
ATOM      8  C   UNL     1       1.836   9.703  18.359  0.00  0.00    +0.000 C 
ATOM      9  O   UNL     1       2.743  10.210  17.695  0.00  0.00    +0.000 OA
ATOM     10  N   UNL     1       0.842  10.519  18.821  0.00  0.00    +0.000 N 
ATOM     11  C   UNL     1       0.732  11.953  18.521  0.00  0.00    +0.000 C 
ATOM     12  C   UNL     1      -0.327  12.030  19.641  0.00  0.00    +0.000 C 
ATOM     13  C   UNL     1      -1.556  12.861  19.264  0.00  0.00    +0.000 C 
ATOM     14  C   UNL     1       0.283  12.589  20.940  0.00  0.00    +0.000 C 
ATOM     15  C   UNL     1      -0.441  10.445  19.505  0.00  0.00    +0.000 C 
ATOM     16  C   UNL     1      -1.520   9.906  18.567  0.00  0.00    +0.000 C 
ATOM     17  C   UNL     1      -0.408   9.685  20.822  0.00  0.00    +0.000 C 
ATOM     18  H   UNL     1       0.861   7.976  18.919  0.00  0.00    +0.000 HD
ENDBRANCH   6   7
BRANCH   1  20
ATOM     19  C   UNL     1       1.913   4.773  20.754  0.00  0.00    +0.000 C 
ATOM     20  O   UNL     1       2.108   6.132  20.345  0.00  0.00    +0.000 OA
ENDBRANCH   1  20
BRANCH   3  21
ATOM     21  O   UNL     1       5.775   4.502  17.816  0.00  0.00    +0.000 OA
ATOM     22  C   UNL     1       7.126   4.795  18.150  0.00  0.00    +0.000 C 
ENDBRANCH   3  21
BRANCH   4  23
ATOM     23  O   UNL     1       5.489   6.668  15.950  0.00  0.00    +0.000 OA
ATOM     24  C   UNL     1       5.370   5.642  14.972  0.00  0.00    +0.000 C 
ENDBRANCH   4  23
TORSDOF 4
ENDMDL
