MODEL 1
REMARK VINA RESULT:      -7.8      0.000      0.000
REMARK  Name = 
REMARK  3 active torsions:
REMARK  status: ('A' for Active; 'I' for Inactive)
REMARK    1  A    between atoms: C_2  and  C_10
REMARK    2  A    between atoms: N_3  and  C_4
REMARK    3  A    between atoms: N_12  and  C_13
REMARK                            x       y       z     vdW  Elec       q    Type
REMARK                         _______ _______ _______ _____ _____    ______ ____
ROOT
ATOM      1  C   UNL     1       7.724   7.426  18.040  0.00  0.00    +0.000 C 
ATOM      2  O   UNL     1       8.238   6.685  18.870  0.00  0.00    +0.000 OA
ATOM      3  N   UNL     1       6.833   7.122  17.028  0.00  0.00    +0.000 N 
ATOM      4  H   UNL     1       6.612   7.856  16.365  0.00  0.00    +0.000 HD
ENDROOT
BRANCH   3   5
ATOM      5  C   UNL     1       6.247   5.876  16.848  0.00  0.00    +0.000 A 
ATOM      6  C   UNL     1       6.853   4.788  16.263  0.00  0.00    +0.000 A 
ATOM      7  N   UNL     1       5.973   3.745  16.268  0.00  0.00    +0.000 N 
ATOM      8  C   UNL     1       4.781   4.134  16.833  0.00  0.00    +0.000 A 
ATOM      9  C   UNL     1       3.601   3.400  17.006  0.00  0.00    +0.000 A 
ATOM     10  C   UNL     1       2.517   4.048  17.598  0.00  0.00    +0.000 A 
ATOM     11  C   UNL     1       2.619   5.374  18.013  0.00  0.00    +0.000 A 
ATOM     12  C   UNL     1       3.815   6.092  17.843  0.00  0.00    +0.000 A 
ATOM     13  C   UNL     1       4.925   5.467  17.231  0.00  0.00    +0.000 A 
ATOM     14  H   UNL     1       6.160   2.825  15.900  0.00  0.00    +0.000 HD
ENDBRANCH   3   5
BRANCH   1  16
ATOM     15  O   UNL     1       7.765   9.622  17.139  0.00  0.00    +0.000 OA
ATOM     16  C   UNL     1       8.150   8.899  18.049  0.00  0.00    +0.000 C 
ATOM     17  N   UNL     1       8.993   9.208  19.103  0.00  0.00    +0.000 N 
ATOM     18  H   UNL     1       9.273   8.413  19.673  0.00  0.00    +0.000 HD
BRANCH  17  19
ATOM     19  C   UNL     1       9.573  10.463  19.367  0.00  0.00    +0.000 A 
ATOM     20  C   UNL     1      10.266  11.191  18.404  0.00  0.00    +0.000 A 
ATOM     21  C   UNL     1      10.853  12.389  18.774  0.00  0.00    +0.000 A 
ATOM     22  N   UNL     1      10.791  12.902  20.020  0.00  0.00    +0.000 NA
ATOM     23  C   UNL     1      10.091  12.194  20.929  0.00  0.00    +0.000 A 
ATOM     24  C   UNL     1       9.454  10.993  20.652  0.00  0.00    +0.000 A 
ENDBRANCH  17  19
ENDBRANCH   1  16
TORSDOF 3
ENDMDL
MODEL 2
REMARK VINA RESULT:      -7.7      0.093      1.027
REMARK  Name = 
REMARK  3 active torsions:
REMARK  status: ('A' for Active; 'I' for Inactive)
REMARK    1  A    between atoms: C_2  and  C_10
REMARK    2  A    between atoms: N_3  and  C_4
REMARK    3  A    between atoms: N_12  and  C_13
REMARK                            x       y       z     vdW  Elec       q    Type
REMARK                         _______ _______ _______ _____ _____    ______ ____
ROOT
ATOM      1  C   UNL     1       7.739   7.416  18.050  0.00  0.00    +0.000 C 
ATOM      2  O   UNL     1       8.256   6.673  18.876  0.00  0.00    +0.000 OA
ATOM      3  N   UNL     1       6.846   7.114  17.039  0.00  0.00    +0.000 N 
ATOM      4  H   UNL     1       6.621   7.850  16.380  0.00  0.00    +0.000 HD
ENDROOT
BRANCH   3   5
ATOM      5  C   UNL     1       6.262   5.867  16.856  0.00  0.00    +0.000 A 
ATOM      6  C   UNL     1       6.871   4.782  16.270  0.00  0.00    +0.000 A 
ATOM      7  N   UNL     1       5.994   3.737  16.272  0.00  0.00    +0.000 N 
ATOM      8  C   UNL     1       4.800   4.122  16.836  0.00  0.00    +0.000 A 
ATOM      9  C   UNL     1       3.621   3.386  17.005  0.00  0.00    +0.000 A 
ATOM     10  C   UNL     1       2.535   4.030  17.597  0.00  0.00    +0.000 A 
ATOM     11  C   UNL     1       2.634   5.356  18.015  0.00  0.00    +0.000 A 
ATOM     12  C   UNL     1       3.828   6.076  17.847  0.00  0.00    +0.000 A 
ATOM     13  C   UNL     1       4.941   5.454  17.237  0.00  0.00    +0.000 A 
ATOM     14  H   UNL     1       6.183   2.817  15.902  0.00  0.00    +0.000 HD
ENDBRANCH   3   5
BRANCH   1  16
ATOM     15  O   UNL     1       7.788   9.611  17.147  0.00  0.00    +0.000 OA
ATOM     16  C   UNL     1       8.160   8.890  18.063  0.00  0.00    +0.000 C 
ATOM     17  N   UNL     1       8.986   9.203  19.130  0.00  0.00    +0.000 N 
ATOM     18  H   UNL     1       9.259   8.409  19.706  0.00  0.00    +0.000 HD
BRANCH  17  19
ATOM     19  C   UNL     1       9.560  10.460  19.402  0.00  0.00    +0.000 A 
ATOM     20  C   UNL     1       9.482  11.070  20.651  0.00  0.00    +0.000 A 
ATOM     21  C   UNL     1      10.026  12.332  20.806  0.00  0.00    +0.000 A 
ATOM     22  N   UNL     1      10.636  13.015  19.815  0.00  0.00    +0.000 NA
ATOM     23  C   UNL     1      10.724  12.393  18.621  0.00  0.00    +0.000 A 
ATOM     24  C   UNL     1      10.226  11.123  18.371  0.00  0.00    +0.000 A 
ENDBRANCH  17  19
ENDBRANCH   1  16
TORSDOF 3
ENDMDL
MODEL 3
REMARK VINA RESULT:      -7.6      5.096      6.885
REMARK  Name = 
REMARK  3 active torsions:
REMARK  status: ('A' for Active; 'I' for Inactive)
REMARK    1  A    between atoms: C_2  and  C_10
REMARK    2  A    between atoms: N_3  and  C_4
REMARK    3  A    between atoms: N_12  and  C_13
REMARK                            x       y       z     vdW  Elec       q    Type
REMARK                         _______ _______ _______ _____ _____    ______ ____
ROOT
ATOM      1  C   UNL     1       5.872   5.044  18.084  0.00  0.00    +0.000 C 
ATOM      2  O   UNL     1       6.418   4.894  19.171  0.00  0.00    +0.000 OA
ATOM      3  N   UNL     1       4.584   5.458  17.800  0.00  0.00    +0.000 N 
ATOM      4  H   UNL     1       4.279   5.405  16.835  0.00  0.00    +0.000 HD
ENDROOT
BRANCH   3   5
ATOM      5  C   UNL     1       3.680   5.911  18.751  0.00  0.00    +0.000 A 
ATOM      6  C   UNL     1       3.336   5.245  19.905  0.00  0.00    +0.000 A 
ATOM      7  N   UNL     1       2.429   5.999  20.590  0.00  0.00    +0.000 N 
ATOM      8  C   UNL     1       2.149   7.151  19.893  0.00  0.00    +0.000 A 
ATOM      9  C   UNL     1       1.255   8.182  20.207  0.00  0.00    +0.000 A 
ATOM     10  C   UNL     1       1.146   9.241  19.307  0.00  0.00    +0.000 A 
ATOM     11  C   UNL     1       1.917   9.272  18.146  0.00  0.00    +0.000 A 
ATOM     12  C   UNL     1       2.818   8.235  17.852  0.00  0.00    +0.000 A 
ATOM     13  C   UNL     1       2.937   7.140  18.738  0.00  0.00    +0.000 A 
ATOM     14  H   UNL     1       2.010   5.746  21.472  0.00  0.00    +0.000 HD
ENDBRANCH   3   5
BRANCH   1  16
ATOM     15  O   UNL     1       7.853   4.360  16.968  0.00  0.00    +0.000 OA
ATOM     16  C   UNL     1       6.677   4.673  16.833  0.00  0.00    +0.000 C 
ATOM     17  N   UNL     1       5.945   4.800  15.665  0.00  0.00    +0.000 N 
ATOM     18  H   UNL     1       5.012   5.191  15.786  0.00  0.00    +0.000 HD
BRANCH  17  19
ATOM     19  C   UNL     1       6.409   4.560  14.357  0.00  0.00    +0.000 A 
ATOM     20  C   UNL     1       7.458   5.276  13.787  0.00  0.00    +0.000 A 
ATOM     21  C   UNL     1       7.806   5.009  12.475  0.00  0.00    +0.000 A 
ATOM     22  N   UNL     1       7.189   4.087  11.707  0.00  0.00    +0.000 NA
ATOM     23  C   UNL     1       6.194   3.388  12.289  0.00  0.00    +0.000 A 
ATOM     24  C   UNL     1       5.784   3.569  13.602  0.00  0.00    +0.000 A 
ENDBRANCH  17  19
ENDBRANCH   1  16
TORSDOF 3
ENDMDL
MODEL 4
REMARK VINA RESULT:      -7.5      5.246      6.784
REMARK  Name = 
REMARK  3 active torsions:
REMARK  status: ('A' for Active; 'I' for Inactive)
REMARK    1  A    between atoms: C_2  and  C_10
REMARK    2  A    between atoms: N_3  and  C_4
REMARK    3  A    between atoms: N_12  and  C_13
REMARK                            x       y       z     vdW  Elec       q    Type
REMARK                         _______ _______ _______ _____ _____    ______ ____
ROOT
ATOM      1  C   UNL     1       6.007   4.605  17.962  0.00  0.00    +0.000 C 
ATOM      2  O   UNL     1       6.557   4.360  19.030  0.00  0.00    +0.000 OA
ATOM      3  N   UNL     1       4.687   4.924  17.711  0.00  0.00    +0.000 N 
ATOM      4  H   UNL     1       4.395   4.978  16.741  0.00  0.00    +0.000 HD
ENDROOT
BRANCH   3   5
ATOM      5  C   UNL     1       3.734   5.148  18.696  0.00  0.00    +0.000 A 
ATOM      6  C   UNL     1       3.407   6.377  19.223  0.00  0.00    +0.000 A 
ATOM      7  N   UNL     1       2.430   6.203  20.159  0.00  0.00    +0.000 N 
ATOM      8  C   UNL     1       2.117   4.869  20.274  0.00  0.00    +0.000 A 
ATOM      9  C   UNL     1       1.204   4.243  21.132  0.00  0.00    +0.000 A 
ATOM     10  C   UNL     1       1.092   2.855  21.059  0.00  0.00    +0.000 A 
ATOM     11  C   UNL     1       1.856   2.127  20.149  0.00  0.00    +0.000 A 
ATOM     12  C   UNL     1       2.759   2.772  19.286  0.00  0.00    +0.000 A 
ATOM     13  C   UNL     1       2.905   4.176  19.350  0.00  0.00    +0.000 A 
ATOM     14  H   UNL     1       2.005   6.941  20.700  0.00  0.00    +0.000 HD
ENDBRANCH   3   5
BRANCH   1  16
ATOM     15  O   UNL     1       8.072   4.432  16.803  0.00  0.00    +0.000 OA
ATOM     16  C   UNL     1       6.855   4.494  16.689  0.00  0.00    +0.000 C 
ATOM     17  N   UNL     1       6.096   4.536  15.532  0.00  0.00    +0.000 N 
ATOM     18  H   UNL     1       5.103   4.711  15.679  0.00  0.00    +0.000 HD
BRANCH  17  19
ATOM     19  C   UNL     1       6.582   4.485  14.212  0.00  0.00    +0.000 A 
ATOM     20  C   UNL     1       7.535   5.374  13.724  0.00  0.00    +0.000 A 
ATOM     21  C   UNL     1       7.909   5.282  12.395  0.00  0.00    +0.000 A 
ATOM     22  N   UNL     1       7.405   4.374  11.534  0.00  0.00    +0.000 NA
ATOM     23  C   UNL     1       6.503   3.505  12.035  0.00  0.00    +0.000 A 
ATOM     24  C   UNL     1       6.078   3.506  13.356  0.00  0.00    +0.000 A 
ENDBRANCH  17  19
ENDBRANCH   1  16
TORSDOF 3
ENDMDL
MODEL 5
REMARK VINA RESULT:      -7.4      5.499      6.634
REMARK  Name = 
REMARK  3 active torsions:
REMARK  status: ('A' for Active; 'I' for Inactive)
REMARK    1  A    between atoms: C_2  and  C_10
REMARK    2  A    between atoms: N_3  and  C_4
REMARK    3  A    between atoms: N_12  and  C_13
REMARK                            x       y       z     vdW  Elec       q    Type
REMARK                         _______ _______ _______ _____ _____    ______ ____
ROOT
ATOM      1  C   UNL     1       2.420   7.503  18.812  0.00  0.00    +0.000 C 
ATOM      2  O   UNL     1       2.181   7.267  19.992  0.00  0.00    +0.000 OA
ATOM      3  N   UNL     1       3.127   6.750  17.895  0.00  0.00    +0.000 N 
ATOM      4  H   UNL     1       3.318   7.171  16.993  0.00  0.00    +0.000 HD
ENDROOT
BRANCH   3   5
ATOM      5  C   UNL     1       3.613   5.472  18.138  0.00  0.00    +0.000 A 
ATOM      6  C   UNL     1       4.942   5.124  18.201  0.00  0.00    +0.000 A 
ATOM      7  N   UNL     1       5.031   3.788  18.464  0.00  0.00    +0.000 N 
ATOM      8  C   UNL     1       3.773   3.239  18.556  0.00  0.00    +0.000 A 
ATOM      9  C   UNL     1       3.401   1.907  18.774  0.00  0.00    +0.000 A 
ATOM     10  C   UNL     1       2.039   1.612  18.803  0.00  0.00    +0.000 A 
ATOM     11  C   UNL     1       1.088   2.617  18.635  0.00  0.00    +0.000 A 
ATOM     12  C   UNL     1       1.479   3.951  18.428  0.00  0.00    +0.000 A 
ATOM     13  C   UNL     1       2.853   4.277  18.378  0.00  0.00    +0.000 A 
ATOM     14  H   UNL     1       5.891   3.270  18.563  0.00  0.00    +0.000 HD
ENDBRANCH   3   5
BRANCH   1  16
ATOM     15  O   UNL     1       2.343   9.196  17.150  0.00  0.00    +0.000 OA
ATOM     16  C   UNL     1       1.935   8.844  18.249  0.00  0.00    +0.000 C 
ATOM     17  N   UNL     1       1.106   9.526  19.123  0.00  0.00    +0.000 N 
ATOM     18  H   UNL     1       0.997   9.090  20.036  0.00  0.00    +0.000 HD
BRANCH  17  19
ATOM     19  C   UNL     1       0.524  10.790  18.908  0.00  0.00    +0.000 A 
ATOM     20  C   UNL     1      -0.801  10.953  18.515  0.00  0.00    +0.000 A 
ATOM     21  C   UNL     1      -1.267  12.233  18.271  0.00  0.00    +0.000 A 
ATOM     22  N   UNL     1      -0.512  13.344  18.395  0.00  0.00    +0.000 NA
ATOM     23  C   UNL     1       0.761  13.164  18.803  0.00  0.00    +0.000 A 
ATOM     24  C   UNL     1       1.315  11.925  19.089  0.00  0.00    +0.000 A 
ENDBRANCH  17  19
ENDBRANCH   1  16
TORSDOF 3
ENDMDL
MODEL 6
REMARK VINA RESULT:      -7.4      5.018      6.938
REMARK  Name = 
REMARK  3 active torsions:
REMARK  status: ('A' for Active; 'I' for Inactive)
REMARK    1  A    between atoms: C_2  and  C_10
REMARK    2  A    between atoms: N_3  and  C_4
REMARK    3  A    between atoms: N_12  and  C_13
REMARK                            x       y       z     vdW  Elec       q    Type
REMARK                         _______ _______ _______ _____ _____    ______ ____
ROOT
ATOM      1  C   UNL     1       5.786   5.279  18.078  0.00  0.00    +0.000 C 
ATOM      2  O   UNL     1       6.421   5.361  19.123  0.00  0.00    +0.000 OA
ATOM      3  N   UNL     1       4.441   5.503  17.851  0.00  0.00    +0.000 N 
ATOM      4  H   UNL     1       4.077   5.268  16.935  0.00  0.00    +0.000 HD
ENDROOT
BRANCH   3   5
ATOM      5  C   UNL     1       3.559   6.002  18.801  0.00  0.00    +0.000 A 
ATOM      6  C   UNL     1       3.226   5.380  19.982  0.00  0.00    +0.000 A 
ATOM      7  N   UNL     1       2.340   6.170  20.655  0.00  0.00    +0.000 N 
ATOM      8  C   UNL     1       2.066   7.303  19.925  0.00  0.00    +0.000 A 
ATOM      9  C   UNL     1       1.192   8.356  20.218  0.00  0.00    +0.000 A 
ATOM     10  C   UNL     1       1.084   9.387  19.284  0.00  0.00    +0.000 A 
ATOM     11  C   UNL     1       1.836   9.367  18.111  0.00  0.00    +0.000 A 
ATOM     12  C   UNL     1       2.717   8.307  17.838  0.00  0.00    +0.000 A 
ATOM     13  C   UNL     1       2.835   7.241  18.758  0.00  0.00    +0.000 A 
ATOM     14  H   UNL     1       1.932   5.953  21.552  0.00  0.00    +0.000 HD
ENDBRANCH   3   5
BRANCH   1  16
ATOM     15  O   UNL     1       7.692   4.414  16.958  0.00  0.00    +0.000 OA
ATOM     16  C   UNL     1       6.538   4.803  16.830  0.00  0.00    +0.000 C 
ATOM     17  N   UNL     1       5.793   4.935  15.670  0.00  0.00    +0.000 N 
ATOM     18  H   UNL     1       4.893   5.395  15.791  0.00  0.00    +0.000 HD
BRANCH  17  19
ATOM     19  C   UNL     1       6.214   4.613  14.366  0.00  0.00    +0.000 A 
ATOM     20  C   UNL     1       5.570   3.662  13.579  0.00  0.00    +0.000 A 
ATOM     21  C   UNL     1       6.091   3.371  12.331  0.00  0.00    +0.000 A 
ATOM     22  N   UNL     1       7.194   3.959  11.822  0.00  0.00    +0.000 NA
ATOM     23  C   UNL     1       7.786   4.896  12.590  0.00  0.00    +0.000 A 
ATOM     24  C   UNL     1       7.329   5.270  13.846  0.00  0.00    +0.000 A 
ENDBRANCH  17  19
ENDBRANCH   1  16
TORSDOF 3
ENDMDL
MODEL 7
REMARK VINA RESULT:      -7.4      5.495      6.620
REMARK  Name = 
REMARK  3 active torsions:
REMARK  status: ('A' for Active; 'I' for Inactive)
REMARK    1  A    between atoms: C_2  and  C_10
REMARK    2  A    between atoms: N_3  and  C_4
REMARK    3  A    between atoms: N_12  and  C_13
REMARK                            x       y       z     vdW  Elec       q    Type
REMARK                         _______ _______ _______ _____ _____    ______ ____
ROOT
ATOM      1  C   UNL     1       2.434   7.504  18.807  0.00  0.00    +0.000 C 
ATOM      2  O   UNL     1       2.161   7.270  19.979  0.00  0.00    +0.000 OA
ATOM      3  N   UNL     1       3.161   6.746  17.909  0.00  0.00    +0.000 N 
ATOM      4  H   UNL     1       3.379   7.167  17.013  0.00  0.00    +0.000 HD
ENDROOT
BRANCH   3   5
ATOM      5  C   UNL     1       3.633   5.465  18.166  0.00  0.00    +0.000 A 
ATOM      6  C   UNL     1       4.958   5.108  18.255  0.00  0.00    +0.000 A 
ATOM      7  N   UNL     1       5.032   3.772  18.523  0.00  0.00    +0.000 N 
ATOM      8  C   UNL     1       3.768   3.233  18.593  0.00  0.00    +0.000 A 
ATOM      9  C   UNL     1       3.382   1.905  18.809  0.00  0.00    +0.000 A 
ATOM     10  C   UNL     1       2.017   1.620  18.813  0.00  0.00    +0.000 A 
ATOM     11  C   UNL     1       1.077   2.632  18.623  0.00  0.00    +0.000 A 
ATOM     12  C   UNL     1       1.482   3.962  18.420  0.00  0.00    +0.000 A 
ATOM     13  C   UNL     1       2.860   4.277  18.394  0.00  0.00    +0.000 A 
ATOM     14  H   UNL     1       5.886   3.248  18.640  0.00  0.00    +0.000 HD
ENDBRANCH   3   5
BRANCH   1  16
ATOM     15  O   UNL     1       2.376   9.175  17.122  0.00  0.00    +0.000 OA
ATOM     16  C   UNL     1       1.972   8.847  18.230  0.00  0.00    +0.000 C 
ATOM     17  N   UNL     1       1.169   9.560  19.104  0.00  0.00    +0.000 N 
ATOM     18  H   UNL     1       1.061   9.139  20.024  0.00  0.00    +0.000 HD
BRANCH  17  19
ATOM     19  C   UNL     1       0.613  10.834  18.877  0.00  0.00    +0.000 A 
ATOM     20  C   UNL     1       1.348  12.010  19.001  0.00  0.00    +0.000 A 
ATOM     21  C   UNL     1       0.700  13.218  18.815  0.00  0.00    +0.000 A 
ATOM     22  N   UNL     1      -0.610  13.330  18.515  0.00  0.00    +0.000 NA
ATOM     23  C   UNL     1      -1.296  12.177  18.373  0.00  0.00    +0.000 A 
ATOM     24  C   UNL     1      -0.732  10.918  18.522  0.00  0.00    +0.000 A 
ENDBRANCH  17  19
ENDBRANCH   1  16
TORSDOF 3
ENDMDL
MODEL 8
REMARK VINA RESULT:      -7.4      5.262      6.823
REMARK  Name = 
REMARK  3 active torsions:
REMARK  status: ('A' for Active; 'I' for Inactive)
REMARK    1  A    between atoms: C_2  and  C_10
REMARK    2  A    between atoms: N_3  and  C_4
REMARK    3  A    between atoms: N_12  and  C_13
REMARK                            x       y       z     vdW  Elec       q    Type
REMARK                         _______ _______ _______ _____ _____    ______ ____
ROOT
ATOM      1  C   UNL     1       5.994   4.584  17.925  0.00  0.00    +0.000 C 
ATOM      2  O   UNL     1       6.573   4.331  18.975  0.00  0.00    +0.000 OA
ATOM      3  N   UNL     1       4.666   4.904  17.713  0.00  0.00    +0.000 N 
ATOM      4  H   UNL     1       4.348   4.965  16.752  0.00  0.00    +0.000 HD
ENDROOT
BRANCH   3   5
ATOM      5  C   UNL     1       3.741   5.120  18.726  0.00  0.00    +0.000 A 
ATOM      6  C   UNL     1       3.430   6.343  19.273  0.00  0.00    +0.000 A 
ATOM      7  N   UNL     1       2.478   6.161  20.234  0.00  0.00    +0.000 N 
ATOM      8  C   UNL     1       2.167   4.826  20.345  0.00  0.00    +0.000 A 
ATOM      9  C   UNL     1       1.277   4.193  21.222  0.00  0.00    +0.000 A 
ATOM     10  C   UNL     1       1.163   2.806  21.138  0.00  0.00    +0.000 A 
ATOM     11  C   UNL     1       1.901   2.085  20.201  0.00  0.00    +0.000 A 
ATOM     12  C   UNL     1       2.780   2.738  19.320  0.00  0.00    +0.000 A 
ATOM     13  C   UNL     1       2.929   4.141  19.393  0.00  0.00    +0.000 A 
ATOM     14  H   UNL     1       2.069   6.894  20.793  0.00  0.00    +0.000 HD
ENDBRANCH   3   5
BRANCH   1  16
ATOM     15  O   UNL     1       8.027   4.463  16.706  0.00  0.00    +0.000 OA
ATOM     16  C   UNL     1       6.806   4.484  16.628  0.00  0.00    +0.000 C 
ATOM     17  N   UNL     1       6.011   4.486  15.495  0.00  0.00    +0.000 N 
ATOM     18  H   UNL     1       5.018   4.630  15.670  0.00  0.00    +0.000 HD
BRANCH  17  19
ATOM     19  C   UNL     1       6.458   4.433  14.161  0.00  0.00    +0.000 A 
ATOM     20  C   UNL     1       5.984   3.500  13.243  0.00  0.00    +0.000 A 
ATOM     21  C   UNL     1       6.526   3.489  11.970  0.00  0.00    +0.000 A 
ATOM     22  N   UNL     1       7.492   4.335  11.557  0.00  0.00    +0.000 NA
ATOM     23  C   UNL     1       7.917   5.248  12.454  0.00  0.00    +0.000 A 
ATOM     24  C   UNL     1       7.423   5.351  13.747  0.00  0.00    +0.000 A 
ENDBRANCH  17  19
ENDBRANCH   1  16
TORSDOF 3
ENDMDL
MODEL 9
REMARK VINA RESULT:      -7.3      1.097      8.485
REMARK  Name = 
REMARK  3 active torsions:
REMARK  status: ('A' for Active; 'I' for Inactive)
REMARK    1  A    between atoms: C_2  and  C_10
REMARK    2  A    between atoms: N_3  and  C_4
REMARK    3  A    between atoms: N_12  and  C_13
REMARK                            x       y       z     vdW  Elec       q    Type
REMARK                         _______ _______ _______ _____ _____    ______ ____
ROOT
ATOM      1  C   UNL     1       8.264   9.145  18.266  0.00  0.00    +0.000 C 
ATOM      2  O   UNL     1       7.836   9.939  17.437  0.00  0.00    +0.000 OA
ATOM      3  N   UNL     1       9.119   9.365  19.330  0.00  0.00    +0.000 N 
ATOM      4  H   UNL     1       9.453   8.553  19.836  0.00  0.00    +0.000 HD
ENDROOT
BRANCH   3   5
ATOM      5  C   UNL     1       9.566  10.618  19.729  0.00  0.00    +0.000 A 
ATOM      6  C   UNL     1       9.288  11.215  20.937  0.00  0.00    +0.000 A 
ATOM      7  N   UNL     1       9.901  12.434  20.971  0.00  0.00    +0.000 N 
ATOM      8  C   UNL     1      10.568  12.662  19.790  0.00  0.00    +0.000 A 
ATOM      9  C   UNL     1      11.293  13.789  19.385  0.00  0.00    +0.000 A 
ATOM     10  C   UNL     1      11.860  13.771  18.111  0.00  0.00    +0.000 A 
ATOM     11  C   UNL     1      11.717  12.658  17.284  0.00  0.00    +0.000 A 
ATOM     12  C   UNL     1      10.996  11.531  17.711  0.00  0.00    +0.000 A 
ATOM     13  C   UNL     1      10.396  11.528  18.990  0.00  0.00    +0.000 A 
ATOM     14  H   UNL     1       9.863  13.083  21.743  0.00  0.00    +0.000 HD
ENDBRANCH   3   5
BRANCH   1  16
ATOM     15  O   UNL     1       8.405   6.842  18.826  0.00  0.00    +0.000 OA
ATOM     16  C   UNL     1       7.870   7.672  18.103  0.00  0.00    +0.000 C 
ATOM     17  N   UNL     1       6.963   7.469  17.077  0.00  0.00    +0.000 N 
ATOM     18  H   UNL     1       6.744   8.300  16.530  0.00  0.00    +0.000 HD
BRANCH  17  19
ATOM     19  C   UNL     1       6.432   6.232  16.663  0.00  0.00    +0.000 A 
ATOM     20  C   UNL     1       7.097   5.384  15.782  0.00  0.00    +0.000 A 
ATOM     21  C   UNL     1       6.470   4.215  15.388  0.00  0.00    +0.000 A 
ATOM     22  N   UNL     1       5.244   3.841  15.811  0.00  0.00    +0.000 NA
ATOM     23  C   UNL     1       4.631   4.665  16.685  0.00  0.00    +0.000 A 
ATOM     24  C   UNL     1       5.184   5.848  17.153  0.00  0.00    +0.000 A 
ENDBRANCH  17  19
ENDBRANCH   1  16
TORSDOF 3
ENDMDL
