MODEL 1
REMARK VINA RESULT:      -6.2      0.000      0.000
REMARK  Name = 
REMARK  7 active torsions:
REMARK  status: ('A' for Active; 'I' for Inactive)
REMARK    1  A    between atoms: C_1  and  C_2
REMARK    2  A    between atoms: C_4  and  C_5
REMARK    3  A    between atoms: C_6  and  O_7
REMARK    4  A    between atoms: O_7  and  C_8
REMARK    5  A    between atoms: C_8  and  C_9
REMARK    6  A    between atoms: C_9  and  N_10
REMARK    7  A    between atoms: C_15  and  C_16
REMARK                            x       y       z     vdW  Elec       q    Type
REMARK                         _______ _______ _______ _____ _____    ______ ____
ROOT
ATOM      1  C   UNL     1       7.672   7.759  17.542  0.00  0.00    +0.000 C 
ATOM      2  C   UNL     1       6.554   6.787  17.312  0.00  0.00    +0.000 A 
ATOM      3  C   UNL     1       6.741   5.695  16.479  0.00  0.00    +0.000 A 
ATOM      4  C   UNL     1       5.725   4.749  16.228  0.00  0.00    +0.000 A 
ATOM      5  C   UNL     1       6.182   3.657  15.286  0.00  0.00    +0.000 C 
ATOM      6  C   UNL     1       4.448   4.913  16.848  0.00  0.00    +0.000 A 
ATOM      7  C   UNL     1       4.259   6.040  17.700  0.00  0.00    +0.000 A 
ATOM      8  C   UNL     1       2.972   6.387  18.411  0.00  0.00    +0.000 C 
ATOM      9  C   UNL     1       5.314   6.956  17.916  0.00  0.00    +0.000 A 
ENDROOT
BRANCH   6  10
ATOM     10  O   UNL     1       3.346   4.069  16.723  0.00  0.00    +0.000 OA
BRANCH  10  11
ATOM     11  C   UNL     1       3.420   2.870  17.489  0.00  0.00    +0.000 C 
BRANCH  11  12
ATOM     12  C   UNL     1       3.982   2.916  18.898  0.00  0.00    +0.000 C 
BRANCH  12  13
ATOM     13  N   UNL     1       2.955   2.899  19.909  0.00  0.00    +0.000 N 
ATOM     14  C   UNL     1       1.629   3.176  19.736  0.00  0.00    +0.000 A 
ATOM     15  C   UNL     1       1.079   3.005  20.989  0.00  0.00    +0.000 A 
ATOM     16  N   UNL     1       2.029   2.621  21.894  0.00  0.00    +0.000 NA
ATOM     17  C   UNL     1       3.155   2.563  21.211  0.00  0.00    +0.000 A 
ENDBRANCH  12  13
ENDBRANCH  11  12
ENDBRANCH  10  11
ENDBRANCH   6  10
TORSDOF 4
ENDMDL
MODEL 2
REMARK VINA RESULT:      -6.2      2.676      5.393
REMARK  Name = 
REMARK  7 active torsions:
REMARK  status: ('A' for Active; 'I' for Inactive)
REMARK    1  A    between atoms: C_1  and  C_2
REMARK    2  A    between atoms: C_4  and  C_5
REMARK    3  A    between atoms: C_6  and  O_7
REMARK    4  A    between atoms: O_7  and  C_8
REMARK    5  A    between atoms: C_8  and  C_9
REMARK    6  A    between atoms: C_9  and  N_10
REMARK    7  A    between atoms: C_15  and  C_16
REMARK                            x       y       z     vdW  Elec       q    Type
REMARK                         _______ _______ _______ _____ _____    ______ ____
ROOT
ATOM      1  C   UNL     1       1.151   8.491  21.597  0.00  0.00    +0.000 C 
ATOM      2  C   UNL     1       1.588   7.444  20.618  0.00  0.00    +0.000 A 
ATOM      3  C   UNL     1       1.335   6.105  20.871  0.00  0.00    +0.000 A 
ATOM      4  C   UNL     1       1.722   5.077  19.985  0.00  0.00    +0.000 A 
ATOM      5  C   UNL     1       1.331   3.708  20.493  0.00  0.00    +0.000 C 
ATOM      6  C   UNL     1       2.406   5.417  18.777  0.00  0.00    +0.000 A 
ATOM      7  C   UNL     1       2.669   6.795  18.523  0.00  0.00    +0.000 A 
ATOM      8  C   UNL     1       3.404   7.332  17.317  0.00  0.00    +0.000 C 
ATOM      9  C   UNL     1       2.256   7.782  19.447  0.00  0.00    +0.000 A 
ENDROOT
BRANCH   6  10
ATOM     10  O   UNL     1       2.843   4.535  17.790  0.00  0.00    +0.000 OA
BRANCH  10  11
ATOM     11  C   UNL     1       4.064   3.862  18.086  0.00  0.00    +0.000 C 
BRANCH  11  12
ATOM     12  C   UNL     1       5.178   3.846  17.054  0.00  0.00    +0.000 C 
BRANCH  12  13
ATOM     13  N   UNL     1       6.096   4.945  17.209  0.00  0.00    +0.000 N 
ATOM     14  C   UNL     1       6.511   5.510  18.380  0.00  0.00    +0.000 A 
ATOM     15  C   UNL     1       7.390   6.499  17.990  0.00  0.00    +0.000 A 
ATOM     16  N   UNL     1       7.522   6.530  16.631  0.00  0.00    +0.000 NA
ATOM     17  C   UNL     1       6.729   5.575  16.184  0.00  0.00    +0.000 A 
ENDBRANCH  12  13
ENDBRANCH  11  12
ENDBRANCH  10  11
ENDBRANCH   6  10
TORSDOF 4
ENDMDL
MODEL 3
REMARK VINA RESULT:      -6.0      2.551      5.183
REMARK  Name = 
REMARK  7 active torsions:
REMARK  status: ('A' for Active; 'I' for Inactive)
REMARK    1  A    between atoms: C_1  and  C_2
REMARK    2  A    between atoms: C_4  and  C_5
REMARK    3  A    between atoms: C_6  and  O_7
REMARK    4  A    between atoms: O_7  and  C_8
REMARK    5  A    between atoms: C_8  and  C_9
REMARK    6  A    between atoms: C_9  and  N_10
REMARK    7  A    between atoms: C_15  and  C_16
REMARK                            x       y       z     vdW  Elec       q    Type
REMARK                         _______ _______ _______ _____ _____    ______ ____
ROOT
ATOM      1  C   UNL     1       2.172   3.708  21.728  0.00  0.00    +0.000 C 
ATOM      2  C   UNL     1       2.706   3.826  20.333  0.00  0.00    +0.000 A 
ATOM      3  C   UNL     1       3.022   2.687  19.609  0.00  0.00    +0.000 A 
ATOM      4  C   UNL     1       3.526   2.739  18.292  0.00  0.00    +0.000 A 
ATOM      5  C   UNL     1       3.790   1.361  17.728  0.00  0.00    +0.000 C 
ATOM      6  C   UNL     1       3.727   4.009  17.670  0.00  0.00    +0.000 A 
ATOM      7  C   UNL     1       3.406   5.178  18.420  0.00  0.00    +0.000 A 
ATOM      8  C   UNL     1       3.582   6.598  17.935  0.00  0.00    +0.000 C 
ATOM      9  C   UNL     1       2.902   5.066  19.736  0.00  0.00    +0.000 A 
ENDROOT
BRANCH   6  10
ATOM     10  O   UNL     1       4.199   4.240  16.380  0.00  0.00    +0.000 OA
BRANCH  10  11
ATOM     11  C   UNL     1       5.561   3.877  16.165  0.00  0.00    +0.000 C 
BRANCH  11  12
ATOM     12  C   UNL     1       6.584   4.957  15.865  0.00  0.00    +0.000 C 
BRANCH  12  13
ATOM     13  N   UNL     1       7.111   5.573  17.057  0.00  0.00    +0.000 N 
ATOM     14  C   UNL     1       7.419   4.953  18.233  0.00  0.00    +0.000 A 
ATOM     15  C   UNL     1       7.898   5.966  19.038  0.00  0.00    +0.000 A 
ATOM     16  N   UNL     1       7.898   7.160  18.374  0.00  0.00    +0.000 NA
ATOM     17  C   UNL     1       7.420   6.892  17.175  0.00  0.00    +0.000 A 
ENDBRANCH  12  13
ENDBRANCH  11  12
ENDBRANCH  10  11
ENDBRANCH   6  10
TORSDOF 4
ENDMDL
MODEL 4
REMARK VINA RESULT:      -5.9      2.629      6.000
REMARK  Name = 
REMARK  7 active torsions:
REMARK  status: ('A' for Active; 'I' for Inactive)
REMARK    1  A    between atoms: C_1  and  C_2
REMARK    2  A    between atoms: C_4  and  C_5
REMARK    3  A    between atoms: C_6  and  O_7
REMARK    4  A    between atoms: O_7  and  C_8
REMARK    5  A    between atoms: C_8  and  C_9
REMARK    6  A    between atoms: C_9  and  N_10
REMARK    7  A    between atoms: C_15  and  C_16
REMARK                            x       y       z     vdW  Elec       q    Type
REMARK                         _______ _______ _______ _____ _____    ______ ____
ROOT
ATOM      1  C   UNL     1       1.416   2.565  21.746  0.00  0.00    +0.000 C 
ATOM      2  C   UNL     1       1.976   3.461  20.683  0.00  0.00    +0.000 A 
ATOM      3  C   UNL     1       1.808   4.834  20.770  0.00  0.00    +0.000 A 
ATOM      4  C   UNL     1       2.314   5.725  19.800  0.00  0.00    +0.000 A 
ATOM      5  C   UNL     1       1.995   7.166  20.127  0.00  0.00    +0.000 C 
ATOM      6  C   UNL     1       3.027   5.203  18.677  0.00  0.00    +0.000 A 
ATOM      7  C   UNL     1       3.194   3.790  18.589  0.00  0.00    +0.000 A 
ATOM      8  C   UNL     1       3.892   3.065  17.462  0.00  0.00    +0.000 C 
ATOM      9  C   UNL     1       2.665   2.946  19.592  0.00  0.00    +0.000 A 
ENDROOT
BRANCH   6  10
ATOM     10  O   UNL     1       3.604   5.937  17.643  0.00  0.00    +0.000 OA
BRANCH  10  11
ATOM     11  C   UNL     1       4.814   6.608  17.986  0.00  0.00    +0.000 C 
BRANCH  11  12
ATOM     12  C   UNL     1       5.864   6.851  16.917  0.00  0.00    +0.000 C 
BRANCH  12  13
ATOM     13  N   UNL     1       6.059   5.712  16.058  0.00  0.00    +0.000 N 
ATOM     14  C   UNL     1       6.903   4.659  16.268  0.00  0.00    +0.000 A 
ATOM     15  C   UNL     1       6.705   3.839  15.177  0.00  0.00    +0.000 A 
ATOM     16  N   UNL     1       5.763   4.361  14.336  0.00  0.00    +0.000 NA
ATOM     17  C   UNL     1       5.387   5.494  14.896  0.00  0.00    +0.000 A 
ENDBRANCH  12  13
ENDBRANCH  11  12
ENDBRANCH  10  11
ENDBRANCH   6  10
TORSDOF 4
ENDMDL
MODEL 5
REMARK VINA RESULT:      -5.9      2.854      6.290
REMARK  Name = 
REMARK  7 active torsions:
REMARK  status: ('A' for Active; 'I' for Inactive)
REMARK    1  A    between atoms: C_1  and  C_2
REMARK    2  A    between atoms: C_4  and  C_5
REMARK    3  A    between atoms: C_6  and  O_7
REMARK    4  A    between atoms: O_7  and  C_8
REMARK    5  A    between atoms: C_8  and  C_9
REMARK    6  A    between atoms: C_9  and  N_10
REMARK    7  A    between atoms: C_15  and  C_16
REMARK                            x       y       z     vdW  Elec       q    Type
REMARK                         _______ _______ _______ _____ _____    ______ ____
ROOT
ATOM      1  C   UNL     1       1.202   2.731  22.152  0.00  0.00    +0.000 C 
ATOM      2  C   UNL     1       1.726   3.282  20.860  0.00  0.00    +0.000 A 
ATOM      3  C   UNL     1       1.924   4.646  20.714  0.00  0.00    +0.000 A 
ATOM      4  C   UNL     1       2.416   5.219  19.523  0.00  0.00    +0.000 A 
ATOM      5  C   UNL     1       2.538   6.723  19.622  0.00  0.00    +0.000 C 
ATOM      6  C   UNL     1       2.724   4.372  18.415  0.00  0.00    +0.000 A 
ATOM      7  C   UNL     1       2.515   2.970  18.567  0.00  0.00    +0.000 A 
ATOM      8  C   UNL     1       2.757   1.932  17.496  0.00  0.00    +0.000 C 
ATOM      9  C   UNL     1       2.020   2.451  19.786  0.00  0.00    +0.000 A 
ENDROOT
BRANCH   6  10
ATOM     10  O   UNL     1       3.230   4.767  17.178  0.00  0.00    +0.000 OA
BRANCH  10  11
ATOM     11  C   UNL     1       4.653   4.821  17.103  0.00  0.00    +0.000 C 
BRANCH  11  12
ATOM     12  C   UNL     1       5.405   3.729  16.365  0.00  0.00    +0.000 C 
BRANCH  12  13
ATOM     13  N   UNL     1       6.170   4.232  15.253  0.00  0.00    +0.000 N 
ATOM     14  C   UNL     1       6.043   3.876  13.941  0.00  0.00    +0.000 A 
ATOM     15  C   UNL     1       6.981   4.647  13.286  0.00  0.00    +0.000 A 
ATOM     16  N   UNL     1       7.648   5.457  14.162  0.00  0.00    +0.000 NA
ATOM     17  C   UNL     1       7.134   5.186  15.346  0.00  0.00    +0.000 A 
ENDBRANCH  12  13
ENDBRANCH  11  12
ENDBRANCH  10  11
ENDBRANCH   6  10
TORSDOF 4
ENDMDL
MODEL 6
REMARK VINA RESULT:      -5.9      1.524      1.804
REMARK  Name = 
REMARK  7 active torsions:
REMARK  status: ('A' for Active; 'I' for Inactive)
REMARK    1  A    between atoms: C_1  and  C_2
REMARK    2  A    between atoms: C_4  and  C_5
REMARK    3  A    between atoms: C_6  and  O_7
REMARK    4  A    between atoms: O_7  and  C_8
REMARK    5  A    between atoms: C_8  and  C_9
REMARK    6  A    between atoms: C_9  and  N_10
REMARK    7  A    between atoms: C_15  and  C_16
REMARK                            x       y       z     vdW  Elec       q    Type
REMARK                         _______ _______ _______ _____ _____    ______ ____
ROOT
ATOM      1  C   UNL     1       8.158   7.419  18.340  0.00  0.00    +0.000 C 
ATOM      2  C   UNL     1       7.198   6.329  17.971  0.00  0.00    +0.000 A 
ATOM      3  C   UNL     1       6.882   6.099  16.641  0.00  0.00    +0.000 A 
ATOM      4  C   UNL     1       5.987   5.087  16.236  0.00  0.00    +0.000 A 
ATOM      5  C   UNL     1       5.814   5.045  14.734  0.00  0.00    +0.000 C 
ATOM      6  C   UNL     1       5.372   4.261  17.227  0.00  0.00    +0.000 A 
ATOM      7  C   UNL     1       5.695   4.503  18.594  0.00  0.00    +0.000 A 
ATOM      8  C   UNL     1       5.119   3.751  19.770  0.00  0.00    +0.000 C 
ATOM      9  C   UNL     1       6.601   5.532  18.941  0.00  0.00    +0.000 A 
ENDROOT
BRANCH   6  10
ATOM     10  O   UNL     1       4.483   3.212  17.002  0.00  0.00    +0.000 OA
BRANCH  10  11
ATOM     11  C   UNL     1       3.105   3.574  17.046  0.00  0.00    +0.000 C 
BRANCH  11  12
ATOM     12  C   UNL     1       2.113   2.660  17.742  0.00  0.00    +0.000 C 
BRANCH  12  13
ATOM     13  N   UNL     1       1.774   3.112  19.067  0.00  0.00    +0.000 N 
ATOM     14  C   UNL     1       1.638   2.342  20.187  0.00  0.00    +0.000 A 
ATOM     15  C   UNL     1       1.330   3.244  21.185  0.00  0.00    +0.000 A 
ATOM     16  N   UNL     1       1.294   4.520  20.699  0.00  0.00    +0.000 NA
ATOM     17  C   UNL     1       1.570   4.411  19.415  0.00  0.00    +0.000 A 
ENDBRANCH  12  13
ENDBRANCH  11  12
ENDBRANCH  10  11
ENDBRANCH   6  10
TORSDOF 4
ENDMDL
MODEL 7
REMARK VINA RESULT:      -5.9      2.581      5.435
REMARK  Name = 
REMARK  7 active torsions:
REMARK  status: ('A' for Active; 'I' for Inactive)
REMARK    1  A    between atoms: C_1  and  C_2
REMARK    2  A    between atoms: C_4  and  C_5
REMARK    3  A    between atoms: C_6  and  O_7
REMARK    4  A    between atoms: O_7  and  C_8
REMARK    5  A    between atoms: C_8  and  C_9
REMARK    6  A    between atoms: C_9  and  N_10
REMARK    7  A    between atoms: C_15  and  C_16
REMARK                            x       y       z     vdW  Elec       q    Type
REMARK                         _______ _______ _______ _____ _____    ______ ____
ROOT
ATOM      1  C   UNL     1       1.056   8.547  21.579  0.00  0.00    +0.000 C 
ATOM      2  C   UNL     1       1.543   7.452  20.679  0.00  0.00    +0.000 A 
ATOM      3  C   UNL     1       1.285   6.127  20.992  0.00  0.00    +0.000 A 
ATOM      4  C   UNL     1       1.718   5.056  20.181  0.00  0.00    +0.000 A 
ATOM      5  C   UNL     1       1.310   3.713  20.744  0.00  0.00    +0.000 C 
ATOM      6  C   UNL     1       2.455   5.336  18.989  0.00  0.00    +0.000 A 
ATOM      7  C   UNL     1       2.722   6.700  18.674  0.00  0.00    +0.000 A 
ATOM      8  C   UNL     1       3.509   7.178  17.476  0.00  0.00    +0.000 C 
ATOM      9  C   UNL     1       2.263   7.732  19.524  0.00  0.00    +0.000 A 
ENDROOT
BRANCH   6  10
ATOM     10  O   UNL     1       2.941   4.406  18.072  0.00  0.00    +0.000 OA
BRANCH  10  11
ATOM     11  C   UNL     1       4.063   3.651  18.522  0.00  0.00    +0.000 C 
BRANCH  11  12
ATOM     12  C   UNL     1       5.454   4.255  18.434  0.00  0.00    +0.000 C 
BRANCH  12  13
ATOM     13  N   UNL     1       5.928   4.367  17.078  0.00  0.00    +0.000 N 
ATOM     14  C   UNL     1       7.134   4.858  16.669  0.00  0.00    +0.000 A 
ATOM     15  C   UNL     1       7.105   4.733  15.295  0.00  0.00    +0.000 A 
ATOM     16  N   UNL     1       5.931   4.172  14.879  0.00  0.00    +0.000 NA
ATOM     17  C   UNL     1       5.239   3.958  15.980  0.00  0.00    +0.000 A 
ENDBRANCH  12  13
ENDBRANCH  11  12
ENDBRANCH  10  11
ENDBRANCH   6  10
TORSDOF 4
ENDMDL
MODEL 8
REMARK VINA RESULT:      -5.9      1.635      2.884
REMARK  Name = 
REMARK  7 active torsions:
REMARK  status: ('A' for Active; 'I' for Inactive)
REMARK    1  A    between atoms: C_1  and  C_2
REMARK    2  A    between atoms: C_4  and  C_5
REMARK    3  A    between atoms: C_6  and  O_7
REMARK    4  A    between atoms: O_7  and  C_8
REMARK    5  A    between atoms: C_8  and  C_9
REMARK    6  A    between atoms: C_9  and  N_10
REMARK    7  A    between atoms: C_15  and  C_16
REMARK                            x       y       z     vdW  Elec       q    Type
REMARK                         _______ _______ _______ _____ _____    ______ ____
ROOT
ATOM      1  C   UNL     1       7.151   4.829  13.807  0.00  0.00    +0.000 C 
ATOM      2  C   UNL     1       6.599   4.801  15.200  0.00  0.00    +0.000 A 
ATOM      3  C   UNL     1       5.413   4.134  15.466  0.00  0.00    +0.000 A 
ATOM      4  C   UNL     1       4.848   4.074  16.757  0.00  0.00    +0.000 A 
ATOM      5  C   UNL     1       3.555   3.290  16.778  0.00  0.00    +0.000 C 
ATOM      6  C   UNL     1       5.512   4.725  17.841  0.00  0.00    +0.000 A 
ATOM      7  C   UNL     1       6.729   5.413  17.563  0.00  0.00    +0.000 A 
ATOM      8  C   UNL     1       7.548   6.178  18.577  0.00  0.00    +0.000 C 
ATOM      9  C   UNL     1       7.250   5.439  16.249  0.00  0.00    +0.000 A 
ENDROOT
BRANCH   6  10
ATOM     10  O   UNL     1       5.104   4.751  19.174  0.00  0.00    +0.000 OA
BRANCH  10  11
ATOM     11  C   UNL     1       4.011   5.623  19.449  0.00  0.00    +0.000 C 
BRANCH  11  12
ATOM     12  C   UNL     1       2.922   5.178  20.408  0.00  0.00    +0.000 C 
BRANCH  12  13
ATOM     13  N   UNL     1       2.284   3.953  19.998  0.00  0.00    +0.000 N 
ATOM     14  C   UNL     1       2.676   2.682  20.304  0.00  0.00    +0.000 A 
ATOM     15  C   UNL     1       1.734   1.879  19.694  0.00  0.00    +0.000 A 
ATOM     16  N   UNL     1       0.791   2.630  19.051  0.00  0.00    +0.000 NA
ATOM     17  C   UNL     1       1.148   3.883  19.254  0.00  0.00    +0.000 A 
ENDBRANCH  12  13
ENDBRANCH  11  12
ENDBRANCH  10  11
ENDBRANCH   6  10
TORSDOF 4
ENDMDL
MODEL 9
REMARK VINA RESULT:      -5.9      2.385      4.844
REMARK  Name = 
REMARK  7 active torsions:
REMARK  status: ('A' for Active; 'I' for Inactive)
REMARK    1  A    between atoms: C_1  and  C_2
REMARK    2  A    between atoms: C_4  and  C_5
REMARK    3  A    between atoms: C_6  and  O_7
REMARK    4  A    between atoms: O_7  and  C_8
REMARK    5  A    between atoms: C_8  and  C_9
REMARK    6  A    between atoms: C_9  and  N_10
REMARK    7  A    between atoms: C_15  and  C_16
REMARK                            x       y       z     vdW  Elec       q    Type
REMARK                         _______ _______ _______ _____ _____    ______ ____
ROOT
ATOM      1  C   UNL     1       1.436   8.190  21.417  0.00  0.00    +0.000 C 
ATOM      2  C   UNL     1       1.745   7.071  20.470  0.00  0.00    +0.000 A 
ATOM      3  C   UNL     1       2.466   7.317  19.312  0.00  0.00    +0.000 A 
ATOM      4  C   UNL     1       2.787   6.303  18.386  0.00  0.00    +0.000 A 
ATOM      5  C   UNL     1       3.576   6.832  17.210  0.00  0.00    +0.000 C 
ATOM      6  C   UNL     1       2.355   4.964  18.639  0.00  0.00    +0.000 A 
ATOM      7  C   UNL     1       1.611   4.715  19.828  0.00  0.00    +0.000 A 
ATOM      8  C   UNL     1       1.051   3.374  20.240  0.00  0.00    +0.000 C 
ATOM      9  C   UNL     1       1.319   5.772  20.721  0.00  0.00    +0.000 A 
ENDROOT
BRANCH   6  10
ATOM     10  O   UNL     1       2.598   3.846  17.843  0.00  0.00    +0.000 OA
BRANCH  10  11
ATOM     11  C   UNL     1       3.919   3.318  17.939  0.00  0.00    +0.000 C 
BRANCH  11  12
ATOM     12  C   UNL     1       4.821   3.761  19.076  0.00  0.00    +0.000 C 
BRANCH  12  13
ATOM     13  N   UNL     1       5.932   4.561  18.627  0.00  0.00    +0.000 N 
ATOM     14  C   UNL     1       6.485   4.570  17.379  0.00  0.00    +0.000 A 
ATOM     15  C   UNL     1       7.494   5.508  17.461  0.00  0.00    +0.000 A 
ATOM     16  N   UNL     1       7.547   6.064  18.707  0.00  0.00    +0.000 NA
ATOM     17  C   UNL     1       6.587   5.474  19.392  0.00  0.00    +0.000 A 
ENDBRANCH  12  13
ENDBRANCH  11  12
ENDBRANCH  10  11
ENDBRANCH   6  10
TORSDOF 4
ENDMDL
