MODEL 1
REMARK VINA RESULT:      -6.3      0.000      0.000
REMARK  Name = 
REMARK  10 active torsions:
REMARK  status: ('A' for Active; 'I' for Inactive)
REMARK    1  A    between atoms: C_1  and  N_2
REMARK    2  A    between atoms: N_2  and  C_3
REMARK    3  A    between atoms: N_2  and  C_12
REMARK    4  A    between atoms: C_3  and  C_4
REMARK    5  A    between atoms: C_4  and  N_5
REMARK    6  A    between atoms: N_5  and  C_6
REMARK    7  A    between atoms: N_5  and  C_7
REMARK    8  A    between atoms: C_12  and  C_13
REMARK    9  A    between atoms: N_17  and  C_18
REMARK   10  A    between atoms: N_17  and  C_19
REMARK                            x       y       z     vdW  Elec       q    Type
REMARK                         _______ _______ _______ _____ _____    ______ ____
ROOT
ATOM      1  C   UNL     1       4.540   3.559  19.621  0.00  0.00    +0.000 C 
ATOM      2  N   UNL     1       3.999   4.419  18.555  0.00  0.00    +0.000 NA
ENDROOT
BRANCH   2   3
ATOM      3  C   UNL     1       4.101   3.680  17.268  0.00  0.00    +0.000 C 
BRANCH   3   4
ATOM      4  C   UNL     1       4.745   4.471  16.094  0.00  0.00    +0.000 C 
BRANCH   4   5
ATOM      5  N   UNL     1       6.198   4.226  15.894  0.00  0.00    +0.000 NA
ATOM      6  C   UNL     1       6.510   4.044  14.471  0.00  0.00    +0.000 C 
BRANCH   5   7
ATOM      7  C   UNL     1       6.997   5.330  16.469  0.00  0.00    +0.000 C 
ATOM      8  C   UNL     1       6.207   6.630  16.675  0.00  0.00    +0.000 C 
ATOM      9  C   UNL     1       7.094   7.455  17.599  0.00  0.00    +0.000 C 
ATOM     10  C   UNL     1       7.821   6.446  18.480  0.00  0.00    +0.000 C 
ATOM     11  C   UNL     1       7.514   5.070  17.894  0.00  0.00    +0.000 C 
ENDBRANCH   5   7
ENDBRANCH   4   5
ENDBRANCH   3   4
ENDBRANCH   2   3
BRANCH   2  12
ATOM     12  C   UNL     1       2.597   4.783  18.842  0.00  0.00    +0.000 C 
BRANCH  12  13
ATOM     13  C   UNL     1       2.342   6.255  19.022  0.00  0.00    +0.000 A 
ATOM     14  C   UNL     1       2.453   7.171  17.982  0.00  0.00    +0.000 A 
ATOM     15  C   UNL     1       2.102   8.509  18.194  0.00  0.00    +0.000 A 
ATOM     16  C   UNL     1       1.636   8.940  19.436  0.00  0.00    +0.000 A 
ATOM     17  N   UNL     1       1.195  10.226  19.675  0.00  0.00    +0.000 N 
ATOM     18  C   UNL     1       0.727  10.573  21.013  0.00  0.00    +0.000 C 
ATOM     19  C   UNL     1       1.289  11.332  18.739  0.00  0.00    +0.000 C 
ATOM     20  N   UNL     1       1.565   8.049  20.452  0.00  0.00    +0.000 NA
ATOM     21  C   UNL     1       1.906   6.758  20.236  0.00  0.00    +0.000 A 
ENDBRANCH  12  13
ENDBRANCH   2  12
TORSDOF 6
ENDMDL
MODEL 2
REMARK VINA RESULT:      -6.2      2.008      4.194
REMARK  Name = 
REMARK  10 active torsions:
REMARK  status: ('A' for Active; 'I' for Inactive)
REMARK    1  A    between atoms: C_1  and  N_2
REMARK    2  A    between atoms: N_2  and  C_3
REMARK    3  A    between atoms: N_2  and  C_12
REMARK    4  A    between atoms: C_3  and  C_4
REMARK    5  A    between atoms: C_4  and  N_5
REMARK    6  A    between atoms: N_5  and  C_6
REMARK    7  A    between atoms: N_5  and  C_7
REMARK    8  A    between atoms: C_12  and  C_13
REMARK    9  A    between atoms: N_17  and  C_18
REMARK   10  A    between atoms: N_17  and  C_19
REMARK                            x       y       z     vdW  Elec       q    Type
REMARK                         _______ _______ _______ _____ _____    ______ ____
ROOT
ATOM      1  C   UNL     1       5.379   5.935  18.362  0.00  0.00    +0.000 C 
ATOM      2  N   UNL     1       3.933   5.990  18.096  0.00  0.00    +0.000 NA
ENDROOT
BRANCH   2   3
ATOM      3  C   UNL     1       3.567   4.800  17.282  0.00  0.00    +0.000 C 
BRANCH   3   4
ATOM      4  C   UNL     1       2.245   4.090  17.694  0.00  0.00    +0.000 C 
BRANCH   4   5
ATOM      5  N   UNL     1       2.364   2.625  17.917  0.00  0.00    +0.000 NA
ATOM      6  C   UNL     1       3.688   2.136  17.512  0.00  0.00    +0.000 C 
BRANCH   5   7
ATOM      7  C   UNL     1       2.091   2.289  19.332  0.00  0.00    +0.000 C 
ATOM      8  C   UNL     1       3.218   2.687  20.295  0.00  0.00    +0.000 C 
ATOM      9  C   UNL     1       2.569   2.605  21.671  0.00  0.00    +0.000 C 
ATOM     10  C   UNL     1       1.106   2.976  21.459  0.00  0.00    +0.000 C 
ATOM     11  C   UNL     1       0.898   3.038  19.948  0.00  0.00    +0.000 C 
ENDBRANCH   5   7
ENDBRANCH   4   5
ENDBRANCH   3   4
ENDBRANCH   2   3
BRANCH   2  12
ATOM     12  C   UNL     1       3.172   6.014  19.361  0.00  0.00    +0.000 C 
BRANCH  12  13
ATOM     13  C   UNL     1       2.289   7.219  19.554  0.00  0.00    +0.000 A 
ATOM     14  C   UNL     1       1.643   7.494  20.753  0.00  0.00    +0.000 A 
ATOM     15  C   UNL     1       0.921   8.685  20.896  0.00  0.00    +0.000 A 
ATOM     16  C   UNL     1       0.844   9.606  19.851  0.00  0.00    +0.000 A 
ATOM     17  N   UNL     1       0.220  10.831  19.966  0.00  0.00    +0.000 N 
ATOM     18  C   UNL     1       0.196  11.721  18.810  0.00  0.00    +0.000 C 
ATOM     19  C   UNL     1      -0.559  11.271  21.110  0.00  0.00    +0.000 C 
ATOM     20  N   UNL     1       1.446   9.312  18.676  0.00  0.00    +0.000 NA
ATOM     21  C   UNL     1       2.142   8.159  18.549  0.00  0.00    +0.000 A 
ENDBRANCH  12  13
ENDBRANCH   2  12
TORSDOF 6
ENDMDL
MODEL 3
REMARK VINA RESULT:      -6.2      1.806      3.975
REMARK  Name = 
REMARK  10 active torsions:
REMARK  status: ('A' for Active; 'I' for Inactive)
REMARK    1  A    between atoms: C_1  and  N_2
REMARK    2  A    between atoms: N_2  and  C_3
REMARK    3  A    between atoms: N_2  and  C_12
REMARK    4  A    between atoms: C_3  and  C_4
REMARK    5  A    between atoms: C_4  and  N_5
REMARK    6  A    between atoms: N_5  and  C_6
REMARK    7  A    between atoms: N_5  and  C_7
REMARK    8  A    between atoms: C_12  and  C_13
REMARK    9  A    between atoms: N_17  and  C_18
REMARK   10  A    between atoms: N_17  and  C_19
REMARK                            x       y       z     vdW  Elec       q    Type
REMARK                         _______ _______ _______ _____ _____    ______ ____
ROOT
ATOM      1  C   UNL     1       5.235   6.519  16.695  0.00  0.00    +0.000 C 
ATOM      2  N   UNL     1       4.024   5.784  17.096  0.00  0.00    +0.000 NA
ENDROOT
BRANCH   2   3
ATOM      3  C   UNL     1       4.274   4.333  16.883  0.00  0.00    +0.000 C 
BRANCH   3   4
ATOM      4  C   UNL     1       3.055   3.401  17.143  0.00  0.00    +0.000 C 
BRANCH   4   5
ATOM      5  N   UNL     1       3.261   2.379  18.203  0.00  0.00    +0.000 NA
ATOM      6  C   UNL     1       4.600   2.498  18.795  0.00  0.00    +0.000 C 
BRANCH   5   7
ATOM      7  C   UNL     1       2.216   2.489  19.244  0.00  0.00    +0.000 C 
ATOM      8  C   UNL     1       2.768   2.693  20.663  0.00  0.00    +0.000 C 
ATOM      9  C   UNL     1       1.556   3.152  21.464  0.00  0.00    +0.000 C 
ATOM     10  C   UNL     1       0.689   3.936  20.486  0.00  0.00    +0.000 C 
ATOM     11  C   UNL     1       1.300   3.716  19.105  0.00  0.00    +0.000 C 
ENDBRANCH   5   7
ENDBRANCH   4   5
ENDBRANCH   3   4
ENDBRANCH   2   3
BRANCH   2  12
ATOM     12  C   UNL     1       3.693   6.058  18.509  0.00  0.00    +0.000 C 
BRANCH  12  13
ATOM     13  C   UNL     1       2.829   7.269  18.739  0.00  0.00    +0.000 A 
ATOM     14  C   UNL     1       2.537   8.187  17.737  0.00  0.00    +0.000 A 
ATOM     15  C   UNL     1       1.644   9.234  17.992  0.00  0.00    +0.000 A 
ATOM     16  C   UNL     1       1.036   9.369  19.240  0.00  0.00    +0.000 A 
ATOM     17  N   UNL     1       0.084  10.329  19.519  0.00  0.00    +0.000 N 
ATOM     18  C   UNL     1      -0.490  10.384  20.859  0.00  0.00    +0.000 C 
ATOM     19  C   UNL     1      -0.305  11.407  18.627  0.00  0.00    +0.000 C 
ATOM     20  N   UNL     1       1.354   8.492  20.219  0.00  0.00    +0.000 NA
ATOM     21  C   UNL     1       2.217   7.483  19.962  0.00  0.00    +0.000 A 
ENDBRANCH  12  13
ENDBRANCH   2  12
TORSDOF 6
ENDMDL
MODEL 4
REMARK VINA RESULT:      -6.1      1.267      1.982
REMARK  Name = 
REMARK  10 active torsions:
REMARK  status: ('A' for Active; 'I' for Inactive)
REMARK    1  A    between atoms: C_1  and  N_2
REMARK    2  A    between atoms: N_2  and  C_3
REMARK    3  A    between atoms: N_2  and  C_12
REMARK    4  A    between atoms: C_3  and  C_4
REMARK    5  A    between atoms: C_4  and  N_5
REMARK    6  A    between atoms: N_5  and  C_6
REMARK    7  A    between atoms: N_5  and  C_7
REMARK    8  A    between atoms: C_12  and  C_13
REMARK    9  A    between atoms: N_17  and  C_18
REMARK   10  A    between atoms: N_17  and  C_19
REMARK                            x       y       z     vdW  Elec       q    Type
REMARK                         _______ _______ _______ _____ _____    ______ ____
ROOT
ATOM      1  C   UNL     1       1.822   4.737  20.267  0.00  0.00    +0.000 C 
ATOM      2  N   UNL     1       2.877   5.699  19.912  0.00  0.00    +0.000 NA
ENDROOT
BRANCH   2   3
ATOM      3  C   UNL     1       4.152   4.950  19.752  0.00  0.00    +0.000 C 
BRANCH   3   4
ATOM      4  C   UNL     1       4.284   4.130  18.437  0.00  0.00    +0.000 C 
BRANCH   4   5
ATOM      5  N   UNL     1       5.489   4.439  17.623  0.00  0.00    +0.000 NA
ATOM      6  C   UNL     1       5.155   4.513  16.195  0.00  0.00    +0.000 C 
BRANCH   5   7
ATOM      7  C   UNL     1       6.119   5.698  18.080  0.00  0.00    +0.000 C 
ATOM      8  C   UNL     1       7.589   5.544  18.495  0.00  0.00    +0.000 C 
ATOM      9  C   UNL     1       8.106   6.976  18.547  0.00  0.00    +0.000 C 
ATOM     10  C   UNL     1       7.326   7.733  17.477  0.00  0.00    +0.000 C 
ATOM     11  C   UNL     1       6.230   6.786  16.999  0.00  0.00    +0.000 C 
ENDBRANCH   5   7
ENDBRANCH   4   5
ENDBRANCH   3   4
ENDBRANCH   2   3
BRANCH   2  12
ATOM     12  C   UNL     1       2.530   6.416  18.668  0.00  0.00    +0.000 C 
BRANCH  12  13
ATOM     13  C   UNL     1       2.120   7.853  18.851  0.00  0.00    +0.000 A 
ATOM     14  C   UNL     1       2.189   8.792  17.828  0.00  0.00    +0.000 A 
ATOM     15  C   UNL     1       1.695  10.085  18.036  0.00  0.00    +0.000 A 
ATOM     16  C   UNL     1       1.127  10.446  19.258  0.00  0.00    +0.000 A 
ATOM     17  N   UNL     1       0.548  11.677  19.488  0.00  0.00    +0.000 N 
ATOM     18  C   UNL     1      -0.018  11.954  20.804  0.00  0.00    +0.000 C 
ATOM     19  C   UNL     1       0.576  12.802  18.571  0.00  0.00    +0.000 C 
ATOM     20  N   UNL     1       1.096   9.536  20.258  0.00  0.00    +0.000 NA
ATOM     21  C   UNL     1       1.576   8.289  20.046  0.00  0.00    +0.000 A 
ENDBRANCH  12  13
ENDBRANCH   2  12
TORSDOF 6
ENDMDL
MODEL 5
REMARK VINA RESULT:      -6.0      1.824      4.136
REMARK  Name = 
REMARK  10 active torsions:
REMARK  status: ('A' for Active; 'I' for Inactive)
REMARK    1  A    between atoms: C_1  and  N_2
REMARK    2  A    between atoms: N_2  and  C_3
REMARK    3  A    between atoms: N_2  and  C_12
REMARK    4  A    between atoms: C_3  and  C_4
REMARK    5  A    between atoms: C_4  and  N_5
REMARK    6  A    between atoms: N_5  and  C_6
REMARK    7  A    between atoms: N_5  and  C_7
REMARK    8  A    between atoms: C_12  and  C_13
REMARK    9  A    between atoms: N_17  and  C_18
REMARK   10  A    between atoms: N_17  and  C_19
REMARK                            x       y       z     vdW  Elec       q    Type
REMARK                         _______ _______ _______ _____ _____    ______ ____
ROOT
ATOM      1  C   UNL     1       5.066   5.362  15.874  0.00  0.00    +0.000 C 
ATOM      2  N   UNL     1       4.356   5.702  17.118  0.00  0.00    +0.000 NA
ENDROOT
BRANCH   2   3
ATOM      3  C   UNL     1       5.104   5.104  18.256  0.00  0.00    +0.000 C 
BRANCH   3   4
ATOM      4  C   UNL     1       5.043   3.553  18.353  0.00  0.00    +0.000 C 
BRANCH   4   5
ATOM      5  N   UNL     1       3.673   2.975  18.322  0.00  0.00    +0.000 NA
ATOM      6  C   UNL     1       3.719   1.510  18.400  0.00  0.00    +0.000 C 
BRANCH   5   7
ATOM      7  C   UNL     1       2.847   3.534  19.415  0.00  0.00    +0.000 C 
ATOM      8  C   UNL     1       1.353   3.639  19.074  0.00  0.00    +0.000 C 
ATOM      9  C   UNL     1       0.685   3.859  20.426  0.00  0.00    +0.000 C 
ATOM     10  C   UNL     1       1.545   3.108  21.436  0.00  0.00    +0.000 C 
ATOM     11  C   UNL     1       2.800   2.671  20.686  0.00  0.00    +0.000 C 
ENDBRANCH   5   7
ENDBRANCH   4   5
ENDBRANCH   3   4
ENDBRANCH   2   3
BRANCH   2  12
ATOM     12  C   UNL     1       4.250   7.168  17.271  0.00  0.00    +0.000 C 
BRANCH  12  13
ATOM     13  C   UNL     1       3.120   7.638  18.148  0.00  0.00    +0.000 A 
ATOM     14  C   UNL     1       2.828   7.057  19.377  0.00  0.00    +0.000 A 
ATOM     15  C   UNL     1       1.830   7.610  20.188  0.00  0.00    +0.000 A 
ATOM     16  C   UNL     1       1.124   8.742  19.783  0.00  0.00    +0.000 A 
ATOM     17  N   UNL     1       0.192   9.378  20.578  0.00  0.00    +0.000 N 
ATOM     18  C   UNL     1      -0.492  10.557  20.058  0.00  0.00    +0.000 C 
ATOM     19  C   UNL     1      -0.289   8.890  21.859  0.00  0.00    +0.000 C 
ATOM     20  N   UNL     1       1.390   9.279  18.570  0.00  0.00    +0.000 NA
ATOM     21  C   UNL     1       2.357   8.738  17.795  0.00  0.00    +0.000 A 
ENDBRANCH  12  13
ENDBRANCH   2  12
TORSDOF 6
ENDMDL
MODEL 6
REMARK VINA RESULT:      -6.0      1.372      2.369
REMARK  Name = 
REMARK  10 active torsions:
REMARK  status: ('A' for Active; 'I' for Inactive)
REMARK    1  A    between atoms: C_1  and  N_2
REMARK    2  A    between atoms: N_2  and  C_3
REMARK    3  A    between atoms: N_2  and  C_12
REMARK    4  A    between atoms: C_3  and  C_4
REMARK    5  A    between atoms: C_4  and  N_5
REMARK    6  A    between atoms: N_5  and  C_6
REMARK    7  A    between atoms: N_5  and  C_7
REMARK    8  A    between atoms: C_12  and  C_13
REMARK    9  A    between atoms: N_17  and  C_18
REMARK   10  A    between atoms: N_17  and  C_19
REMARK                            x       y       z     vdW  Elec       q    Type
REMARK                         _______ _______ _______ _____ _____    ______ ____
ROOT
ATOM      1  C   UNL     1       2.249   4.611  20.352  0.00  0.00    +0.000 C 
ATOM      2  N   UNL     1       3.259   5.484  19.731  0.00  0.00    +0.000 NA
ENDROOT
BRANCH   2   3
ATOM      3  C   UNL     1       4.423   4.642  19.346  0.00  0.00    +0.000 C 
BRANCH   3   4
ATOM      4  C   UNL     1       5.799   5.367  19.343  0.00  0.00    +0.000 C 
BRANCH   4   5
ATOM      5  N   UNL     1       6.134   6.071  18.076  0.00  0.00    +0.000 NA
ATOM      6  C   UNL     1       7.531   6.523  18.080  0.00  0.00    +0.000 C 
BRANCH   5   7
ATOM      7  C   UNL     1       5.866   5.201  16.910  0.00  0.00    +0.000 C 
ATOM      8  C   UNL     1       5.284   5.945  15.699  0.00  0.00    +0.000 C 
ATOM      9  C   UNL     1       5.457   4.961  14.549  0.00  0.00    +0.000 C 
ATOM     10  C   UNL     1       6.724   4.176  14.866  0.00  0.00    +0.000 C 
ATOM     11  C   UNL     1       7.119   4.562  16.288  0.00  0.00    +0.000 C 
ENDBRANCH   5   7
ENDBRANCH   4   5
ENDBRANCH   3   4
ENDBRANCH   2   3
BRANCH   2  12
ATOM     12  C   UNL     1       2.696   6.172  18.552  0.00  0.00    +0.000 C 
BRANCH  12  13
ATOM     13  C   UNL     1       2.224   7.580  18.799  0.00  0.00    +0.000 A 
ATOM     14  C   UNL     1       2.182   8.546  17.800  0.00  0.00    +0.000 A 
ATOM     15  C   UNL     1       1.636   9.806  18.074  0.00  0.00    +0.000 A 
ATOM     16  C   UNL     1       1.125  10.106  19.336  0.00  0.00    +0.000 A 
ATOM     17  N   UNL     1       0.498  11.299  19.635  0.00  0.00    +0.000 N 
ATOM     18  C   UNL     1       0.000  11.513  20.990  0.00  0.00    +0.000 C 
ATOM     19  C   UNL     1       0.413  12.446  18.749  0.00  0.00    +0.000 C 
ATOM     20  N   UNL     1       1.203   9.172  20.311  0.00  0.00    +0.000 NA
ATOM     21  C   UNL     1       1.732   7.958  20.036  0.00  0.00    +0.000 A 
ENDBRANCH  12  13
ENDBRANCH   2  12
TORSDOF 6
ENDMDL
MODEL 7
REMARK VINA RESULT:      -6.0      1.182      1.593
REMARK  Name = 
REMARK  10 active torsions:
REMARK  status: ('A' for Active; 'I' for Inactive)
REMARK    1  A    between atoms: C_1  and  N_2
REMARK    2  A    between atoms: N_2  and  C_3
REMARK    3  A    between atoms: N_2  and  C_12
REMARK    4  A    between atoms: C_3  and  C_4
REMARK    5  A    between atoms: C_4  and  N_5
REMARK    6  A    between atoms: N_5  and  C_6
REMARK    7  A    between atoms: N_5  and  C_7
REMARK    8  A    between atoms: C_12  and  C_13
REMARK    9  A    between atoms: N_17  and  C_18
REMARK   10  A    between atoms: N_17  and  C_19
REMARK                            x       y       z     vdW  Elec       q    Type
REMARK                         _______ _______ _______ _____ _____    ______ ____
ROOT
ATOM      1  C   UNL     1       1.808   3.880  20.147  0.00  0.00    +0.000 C 
ATOM      2  N   UNL     1       2.880   4.814  19.765  0.00  0.00    +0.000 NA
ENDROOT
BRANCH   2   3
ATOM      3  C   UNL     1       4.113   4.022  19.508  0.00  0.00    +0.000 C 
BRANCH   3   4
ATOM      4  C   UNL     1       5.416   4.854  19.335  0.00  0.00    +0.000 C 
BRANCH   4   5
ATOM      5  N   UNL     1       6.267   4.454  18.182  0.00  0.00    +0.000 NA
ATOM      6  C   UNL     1       5.442   4.068  17.030  0.00  0.00    +0.000 C 
BRANCH   5   7
ATOM      7  C   UNL     1       7.199   5.544  17.818  0.00  0.00    +0.000 C 
ATOM      8  C   UNL     1       6.511   6.780  17.223  0.00  0.00    +0.000 C 
ATOM      9  C   UNL     1       7.580   7.863  17.293  0.00  0.00    +0.000 C 
ATOM     10  C   UNL     1       8.410   7.542  18.531  0.00  0.00    +0.000 C 
ATOM     11  C   UNL     1       7.948   6.168  19.008  0.00  0.00    +0.000 C 
ENDBRANCH   5   7
ENDBRANCH   4   5
ENDBRANCH   3   4
ENDBRANCH   2   3
BRANCH   2  12
ATOM     12  C   UNL     1       2.494   5.586  18.566  0.00  0.00    +0.000 C 
BRANCH  12  13
ATOM     13  C   UNL     1       2.187   7.039  18.814  0.00  0.00    +0.000 A 
ATOM     14  C   UNL     1       2.255   8.004  17.815  0.00  0.00    +0.000 A 
ATOM     15  C   UNL     1       1.857   9.317  18.089  0.00  0.00    +0.000 A 
ATOM     16  C   UNL     1       1.386   9.674  19.352  0.00  0.00    +0.000 A 
ATOM     17  N   UNL     1       0.901  10.931  19.652  0.00  0.00    +0.000 N 
ATOM     18  C   UNL     1       0.433  11.201  21.008  0.00  0.00    +0.000 C 
ATOM     19  C   UNL     1       0.946  12.081  18.766  0.00  0.00    +0.000 C 
ATOM     20  N   UNL     1       1.358   8.737  20.328  0.00  0.00    +0.000 NA
ATOM     21  C   UNL     1       1.744   7.470  20.052  0.00  0.00    +0.000 A 
ENDBRANCH  12  13
ENDBRANCH   2  12
TORSDOF 6
ENDMDL
MODEL 8
REMARK VINA RESULT:      -5.9      1.520      2.808
REMARK  Name = 
REMARK  10 active torsions:
REMARK  status: ('A' for Active; 'I' for Inactive)
REMARK    1  A    between atoms: C_1  and  N_2
REMARK    2  A    between atoms: N_2  and  C_3
REMARK    3  A    between atoms: N_2  and  C_12
REMARK    4  A    between atoms: C_3  and  C_4
REMARK    5  A    between atoms: C_4  and  N_5
REMARK    6  A    between atoms: N_5  and  C_6
REMARK    7  A    between atoms: N_5  and  C_7
REMARK    8  A    between atoms: C_12  and  C_13
REMARK    9  A    between atoms: N_17  and  C_18
REMARK   10  A    between atoms: N_17  and  C_19
REMARK                            x       y       z     vdW  Elec       q    Type
REMARK                         _______ _______ _______ _____ _____    ______ ____
ROOT
ATOM      1  C   UNL     1       1.825   4.758  17.913  0.00  0.00    +0.000 C 
ATOM      2  N   UNL     1       2.180   5.698  18.989  0.00  0.00    +0.000 NA
ENDROOT
BRANCH   2   3
ATOM      3  C   UNL     1       3.217   5.055  19.841  0.00  0.00    +0.000 C 
BRANCH   3   4
ATOM      4  C   UNL     1       4.689   5.389  19.466  0.00  0.00    +0.000 C 
BRANCH   4   5
ATOM      5  N   UNL     1       5.490   4.234  18.980  0.00  0.00    +0.000 NA
ATOM      6  C   UNL     1       4.745   2.977  19.132  0.00  0.00    +0.000 C 
BRANCH   5   7
ATOM      7  C   UNL     1       5.897   4.435  17.572  0.00  0.00    +0.000 C 
ATOM      8  C   UNL     1       5.008   3.706  16.555  0.00  0.00    +0.000 C 
ATOM      9  C   UNL     1       5.367   4.354  15.224  0.00  0.00    +0.000 C 
ATOM     10  C   UNL     1       5.724   5.799  15.553  0.00  0.00    +0.000 C 
ATOM     11  C   UNL     1       5.784   5.886  17.076  0.00  0.00    +0.000 C 
ENDBRANCH   5   7
ENDBRANCH   4   5
ENDBRANCH   3   4
ENDBRANCH   2   3
BRANCH   2  12
ATOM     12  C   UNL     1       2.678   6.969  18.425  0.00  0.00    +0.000 C 
BRANCH  12  13
ATOM     13  C   UNL     1       1.941   8.201  18.878  0.00  0.00    +0.000 A 
ATOM     14  C   UNL     1       1.520   9.192  17.998  0.00  0.00    +0.000 A 
ATOM     15  C   UNL     1       0.749  10.261  18.472  0.00  0.00    +0.000 A 
ATOM     16  C   UNL     1       0.391  10.344  19.817  0.00  0.00    +0.000 A 
ATOM     17  N   UNL     1      -0.438  11.327  20.320  0.00  0.00    +0.000 N 
ATOM     18  C   UNL     1      -0.750  11.323  21.746  0.00  0.00    +0.000 C 
ATOM     19  C   UNL     1      -0.924  12.475  19.576  0.00  0.00    +0.000 C 
ATOM     20  N   UNL     1       0.835   9.394  20.672  0.00  0.00    +0.000 NA
ATOM     21  C   UNL     1       1.578   8.365  20.203  0.00  0.00    +0.000 A 
ENDBRANCH  12  13
ENDBRANCH   2  12
TORSDOF 6
ENDMDL
MODEL 9
REMARK VINA RESULT:      -5.9      1.172      2.750
REMARK  Name = 
REMARK  10 active torsions:
REMARK  status: ('A' for Active; 'I' for Inactive)
REMARK    1  A    between atoms: C_1  and  N_2
REMARK    2  A    between atoms: N_2  and  C_3
REMARK    3  A    between atoms: N_2  and  C_12
REMARK    4  A    between atoms: C_3  and  C_4
REMARK    5  A    between atoms: C_4  and  N_5
REMARK    6  A    between atoms: N_5  and  C_6
REMARK    7  A    between atoms: N_5  and  C_7
REMARK    8  A    between atoms: C_12  and  C_13
REMARK    9  A    between atoms: N_17  and  C_18
REMARK   10  A    between atoms: N_17  and  C_19
REMARK                            x       y       z     vdW  Elec       q    Type
REMARK                         _______ _______ _______ _____ _____    ______ ____
ROOT
ATOM      1  C   UNL     1       5.211   4.456  19.215  0.00  0.00    +0.000 C 
ATOM      2  N   UNL     1       4.181   5.232  18.506  0.00  0.00    +0.000 NA
ENDROOT
BRANCH   2   3
ATOM      3  C   UNL     1       3.849   4.517  17.245  0.00  0.00    +0.000 C 
BRANCH   3   4
ATOM      4  C   UNL     1       5.057   3.876  16.503  0.00  0.00    +0.000 C 
BRANCH   4   5
ATOM      5  N   UNL     1       5.733   4.766  15.521  0.00  0.00    +0.000 NA
ATOM      6  C   UNL     1       6.867   5.465  16.139  0.00  0.00    +0.000 C 
BRANCH   5   7
ATOM      7  C   UNL     1       6.174   3.996  14.337  0.00  0.00    +0.000 C 
ATOM      8  C   UNL     1       5.060   3.737  13.312  0.00  0.00    +0.000 C 
ATOM      9  C   UNL     1       5.810   3.295  12.062  0.00  0.00    +0.000 C 
ATOM     10  C   UNL     1       7.139   4.041  12.094  0.00  0.00    +0.000 C 
ATOM     11  C   UNL     1       7.219   4.709  13.464  0.00  0.00    +0.000 C 
ENDBRANCH   5   7
ENDBRANCH   4   5
ENDBRANCH   3   4
ENDBRANCH   2   3
BRANCH   2  12
ATOM     12  C   UNL     1       2.980   5.393  19.350  0.00  0.00    +0.000 C 
BRANCH  12  13
ATOM     13  C   UNL     1       2.424   6.791  19.412  0.00  0.00    +0.000 A 
ATOM     14  C   UNL     1       2.444   7.657  18.325  0.00  0.00    +0.000 A 
ATOM     15  C   UNL     1       1.818   8.906  18.420  0.00  0.00    +0.000 A 
ATOM     16  C   UNL     1       1.168   9.294  19.591  0.00  0.00    +0.000 A 
ATOM     17  N   UNL     1       0.463  10.475  19.710  0.00  0.00    +0.000 N 
ATOM     18  C   UNL     1      -0.181  10.786  20.982  0.00  0.00    +0.000 C 
ATOM     19  C   UNL     1       0.420  11.529  18.712  0.00  0.00    +0.000 C 
ATOM     20  N   UNL     1       1.185   8.459  20.655  0.00  0.00    +0.000 NA
ATOM     21  C   UNL     1       1.792   7.254  20.552  0.00  0.00    +0.000 A 
ENDBRANCH  12  13
ENDBRANCH   2  12
TORSDOF 6
ENDMDL
