MODEL 1
REMARK VINA RESULT:      -8.0      0.000      0.000
REMARK  Name = 
REMARK  10 active torsions:
REMARK  status: ('A' for Active; 'I' for Inactive)
REMARK    1  A    between atoms: C_1  and  O_2
REMARK    2  A    between atoms: O_2  and  C_3
REMARK    3  A    between atoms: C_7  and  C_8
REMARK    4  A    between atoms: C_10  and  C_11
REMARK    5  A    between atoms: C_20  and  O_21
REMARK    6  A    between atoms: N_23  and  C_24
REMARK    7  A    between atoms: C_24  and  N_26
REMARK    8  A    between atoms: N_26  and  C_27
REMARK    9  A    between atoms: C_32  and  O_33
REMARK   10  A    between atoms: O_33  and  C_34
REMARK                            x       y       z     vdW  Elec       q    Type
REMARK                         _______ _______ _______ _____ _____    ______ ____
ROOT
ATOM      1  C   UNL     1       0.002  10.862  19.259  0.00  0.00    +0.000 C 
ATOM      2  C   UNL     1       0.744   9.904  18.319  0.00  0.00    +0.000 C 
ATOM      3  C   UNL     1       1.436   8.992  19.285  0.00  0.00    +0.000 C 
ATOM      4  N   UNL     1       1.179   9.231  20.543  0.00  0.00    +0.000 NA
ATOM      5  N   UNL     1       0.265  10.268  20.592  0.00  0.00    +0.000 N 
ENDROOT
BRANCH   3   6
ATOM      6  C   UNL     1       2.271   7.834  18.847  0.00  0.00    +0.000 A 
ATOM      7  C   UNL     1       2.999   8.012  17.665  0.00  0.00    +0.000 A 
ATOM      8  C   UNL     1       3.942   7.072  17.256  0.00  0.00    +0.000 A 
ATOM      9  C   UNL     1       4.165   5.908  17.999  0.00  0.00    +0.000 A 
ATOM     10  C   UNL     1       5.178   5.018  17.609  0.00  0.00    +0.000 A 
ATOM     11  C   UNL     1       5.400   3.834  18.306  0.00  0.00    +0.000 A 
ATOM     12  C   UNL     1       4.575   3.501  19.371  0.00  0.00    +0.000 A 
ATOM     13  C   UNL     1       3.573   4.387  19.781  0.00  0.00    +0.000 A 
ATOM     14  C   UNL     1       3.377   5.640  19.143  0.00  0.00    +0.000 A 
ATOM     15  C   UNL     1       2.456   6.644  19.576  0.00  0.00    +0.000 A 
BRANCH  15  16
ATOM     16  O   UNL     1       1.776   6.469  20.757  0.00  0.00    +0.000 OA
ATOM     17  H   UNL     1       1.800   7.302  21.256  0.00  0.00    +0.000 HD
ENDBRANCH  15  16
ENDBRANCH   3   6
BRANCH   1  22
ATOM     18  C   UNL     1       2.241  14.003  19.048  0.00  0.00    +0.000 A 
ATOM     19  C   UNL     1       1.303  15.008  18.827  0.00  0.00    +0.000 A 
ATOM     20  C   UNL     1      -0.044  14.691  18.729  0.00  0.00    +0.000 A 
ATOM     21  C   UNL     1      -0.457  13.368  18.885  0.00  0.00    +0.000 A 
ATOM     22  C   UNL     1       0.452  12.326  19.124  0.00  0.00    +0.000 A 
ATOM     23  C   UNL     1       1.818  12.673  19.156  0.00  0.00    +0.000 A 
BRANCH  18  25
ATOM     24  C   UNL     1       3.787  15.773  18.713  0.00  0.00    +0.000 C 
ATOM     25  O   UNL     1       3.534  14.440  19.136  0.00  0.00    +0.000 OA
ENDBRANCH  18  25
ENDBRANCH   1  22
BRANCH   5  26
ATOM     26  C   UNL     1      -0.457  10.470  21.779  0.00  0.00    +0.000 C 
ATOM     27  S   UNL     1      -0.182   9.618  23.209  0.00  0.00    +0.000 S 
BRANCH  26  28
ATOM     28  N   UNL     1      -1.402  11.481  21.640  0.00  0.00    +0.000 N 
ATOM     29  H   UNL     1      -2.004  11.329  20.842  0.00  0.00    +0.000 HD
BRANCH  28  30
ATOM     30  C   UNL     1      -1.750  12.492  22.572  0.00  0.00    +0.000 A 
ATOM     31  C   UNL     1      -2.999  12.430  23.216  0.00  0.00    +0.000 A 
ATOM     32  C   UNL     1      -3.409  13.397  24.137  0.00  0.00    +0.000 A 
ATOM     33  C   UNL     1      -2.569  14.449  24.446  0.00  0.00    +0.000 A 
ATOM     34  C   UNL     1      -1.336  14.548  23.804  0.00  0.00    +0.000 A 
ATOM     35  C   UNL     1      -0.928  13.601  22.846  0.00  0.00    +0.000 A 
BRANCH  35  36
ATOM     36  O   UNL     1       0.346  13.833  22.397  0.00  0.00    +0.000 OA
ATOM     37  C   UNL     1       0.785  15.178  22.346  0.00  0.00    +0.000 C 
ENDBRANCH  35  36
ENDBRANCH  28  30
ENDBRANCH  26  28
ENDBRANCH   5  26
TORSDOF 8
ENDMDL
MODEL 2
REMARK VINA RESULT:      -8.0      3.077      4.988
REMARK  Name = 
REMARK  10 active torsions:
REMARK  status: ('A' for Active; 'I' for Inactive)
REMARK    1  A    between atoms: C_1  and  O_2
REMARK    2  A    between atoms: O_2  and  C_3
REMARK    3  A    between atoms: C_7  and  C_8
REMARK    4  A    between atoms: C_10  and  C_11
REMARK    5  A    between atoms: C_20  and  O_21
REMARK    6  A    between atoms: N_23  and  C_24
REMARK    7  A    between atoms: C_24  and  N_26
REMARK    8  A    between atoms: N_26  and  C_27
REMARK    9  A    between atoms: C_32  and  O_33
REMARK   10  A    between atoms: O_33  and  C_34
REMARK                            x       y       z     vdW  Elec       q    Type
REMARK                         _______ _______ _______ _____ _____    ______ ____
ROOT
ATOM      1  C   UNL     1       0.651  11.793  20.776  0.00  0.00    +0.000 C 
ATOM      2  C   UNL     1       1.433  10.522  21.131  0.00  0.00    +0.000 C 
ATOM      3  C   UNL     1       1.055   9.601  20.011  0.00  0.00    +0.000 C 
ATOM      4  N   UNL     1       0.276  10.132  19.106  0.00  0.00    +0.000 NA
ATOM      5  N   UNL     1       0.074  11.456  19.453  0.00  0.00    +0.000 N 
ENDROOT
BRANCH   3   6
ATOM      6  C   UNL     1       1.607   8.221  19.879  0.00  0.00    +0.000 A 
ATOM      7  C   UNL     1       1.283   7.327  20.905  0.00  0.00    +0.000 A 
ATOM      8  C   UNL     1       1.593   5.973  20.801  0.00  0.00    +0.000 A 
ATOM      9  C   UNL     1       2.267   5.475  19.681  0.00  0.00    +0.000 A 
ATOM     10  C   UNL     1       2.494   4.095  19.564  0.00  0.00    +0.000 A 
ATOM     11  C   UNL     1       3.193   3.572  18.480  0.00  0.00    +0.000 A 
ATOM     12  C   UNL     1       3.719   4.431  17.525  0.00  0.00    +0.000 A 
ATOM     13  C   UNL     1       3.486   5.807  17.621  0.00  0.00    +0.000 A 
ATOM     14  C   UNL     1       2.705   6.361  18.669  0.00  0.00    +0.000 A 
ATOM     15  C   UNL     1       2.325   7.736  18.769  0.00  0.00    +0.000 A 
BRANCH  15  16
ATOM     16  O   UNL     1       2.622   8.592  17.736  0.00  0.00    +0.000 OA
ATOM     17  H   UNL     1       2.702   8.075  16.918  0.00  0.00    +0.000 HD
ENDBRANCH  15  16
ENDBRANCH   3   6
BRANCH   1  22
ATOM     18  C   UNL     1      -1.465  13.898  23.229  0.00  0.00    +0.000 A 
ATOM     19  C   UNL     1      -2.337  12.943  23.746  0.00  0.00    +0.000 A 
ATOM     20  C   UNL     1      -2.268  11.629  23.306  0.00  0.00    +0.000 A 
ATOM     21  C   UNL     1      -1.300  11.263  22.371  0.00  0.00    +0.000 A 
ATOM     22  C   UNL     1      -0.392  12.188  21.835  0.00  0.00    +0.000 A 
ATOM     23  C   UNL     1      -0.530  13.526  22.257  0.00  0.00    +0.000 A 
BRANCH  18  25
ATOM     24  C   UNL     1      -1.437  15.293  25.150  0.00  0.00    +0.000 C 
ATOM     25  O   UNL     1      -1.624  15.153  23.748  0.00  0.00    +0.000 OA
ENDBRANCH  18  25
ENDBRANCH   1  22
BRANCH   5  26
ATOM     26  C   UNL     1      -0.404  12.341  18.473  0.00  0.00    +0.000 C 
ATOM     27  S   UNL     1       0.086  13.948  18.332  0.00  0.00    +0.000 S 
BRANCH  26  28
ATOM     28  N   UNL     1      -1.304  11.718  17.615  0.00  0.00    +0.000 N 
ATOM     29  H   UNL     1      -0.842  11.079  16.982  0.00  0.00    +0.000 HD
BRANCH  28  30
ATOM     30  C   UNL     1      -2.720  11.692  17.696  0.00  0.00    +0.000 A 
ATOM     31  C   UNL     1      -3.339  11.876  18.945  0.00  0.00    +0.000 A 
ATOM     32  C   UNL     1      -4.727  11.852  19.097  0.00  0.00    +0.000 A 
ATOM     33  C   UNL     1      -5.535  11.654  17.994  0.00  0.00    +0.000 A 
ATOM     34  C   UNL     1      -4.946  11.445  16.748  0.00  0.00    +0.000 A 
ATOM     35  C   UNL     1      -3.548  11.428  16.589  0.00  0.00    +0.000 A 
BRANCH  35  36
ATOM     36  O   UNL     1      -3.177  11.289  15.277  0.00  0.00    +0.000 OA
ATOM     37  C   UNL     1      -3.032   9.974  14.775  0.00  0.00    +0.000 C 
ENDBRANCH  35  36
ENDBRANCH  28  30
ENDBRANCH  26  28
ENDBRANCH   5  26
TORSDOF 8
ENDMDL
MODEL 3
REMARK VINA RESULT:      -8.0      1.009      1.677
REMARK  Name = 
REMARK  10 active torsions:
REMARK  status: ('A' for Active; 'I' for Inactive)
REMARK    1  A    between atoms: C_1  and  O_2
REMARK    2  A    between atoms: O_2  and  C_3
REMARK    3  A    between atoms: C_7  and  C_8
REMARK    4  A    between atoms: C_10  and  C_11
REMARK    5  A    between atoms: C_20  and  O_21
REMARK    6  A    between atoms: N_23  and  C_24
REMARK    7  A    between atoms: C_24  and  N_26
REMARK    8  A    between atoms: N_26  and  C_27
REMARK    9  A    between atoms: C_32  and  O_33
REMARK   10  A    between atoms: O_33  and  C_34
REMARK                            x       y       z     vdW  Elec       q    Type
REMARK                         _______ _______ _______ _____ _____    ______ ____
ROOT
ATOM      1  C   UNL     1      -0.085  10.984  19.393  0.00  0.00    +0.000 C 
ATOM      2  C   UNL     1       0.643  10.046  18.422  0.00  0.00    +0.000 C 
ATOM      3  C   UNL     1       1.330   9.100  19.358  0.00  0.00    +0.000 C 
ATOM      4  N   UNL     1       1.080   9.305  20.624  0.00  0.00    +0.000 NA
ATOM      5  N   UNL     1       0.176  10.349  20.707  0.00  0.00    +0.000 N 
ENDROOT
BRANCH   3   6
ATOM      6  C   UNL     1       2.151   7.947  18.884  0.00  0.00    +0.000 A 
ATOM      7  C   UNL     1       2.824   8.129  17.670  0.00  0.00    +0.000 A 
ATOM      8  C   UNL     1       3.754   7.195  17.220  0.00  0.00    +0.000 A 
ATOM      9  C   UNL     1       4.017   6.032  17.952  0.00  0.00    +0.000 A 
ATOM     10  C   UNL     1       5.018   5.149  17.517  0.00  0.00    +0.000 A 
ATOM     11  C   UNL     1       5.278   3.966  18.204  0.00  0.00    +0.000 A 
ATOM     12  C   UNL     1       4.505   3.629  19.305  0.00  0.00    +0.000 A 
ATOM     13  C   UNL     1       3.516   4.509  19.759  0.00  0.00    +0.000 A 
ATOM     14  C   UNL     1       3.284   5.760  19.131  0.00  0.00    +0.000 A 
ATOM     15  C   UNL     1       2.377   6.759  19.605  0.00  0.00    +0.000 A 
BRANCH  15  16
ATOM     16  O   UNL     1       1.751   6.580  20.815  0.00  0.00    +0.000 OA
ATOM     17  H   UNL     1       2.326   6.931  21.515  0.00  0.00    +0.000 HD
ENDBRANCH  15  16
ENDBRANCH   3   6
BRANCH   1  22
ATOM     18  C   UNL     1       2.160  14.127  19.448  0.00  0.00    +0.000 A 
ATOM     19  C   UNL     1       1.262  15.126  19.081  0.00  0.00    +0.000 A 
ATOM     20  C   UNL     1      -0.058  14.804  18.798  0.00  0.00    +0.000 A 
ATOM     21  C   UNL     1      -0.488  13.483  18.917  0.00  0.00    +0.000 A 
ATOM     22  C   UNL     1       0.378  12.447  19.298  0.00  0.00    +0.000 A 
ATOM     23  C   UNL     1       1.726  12.798  19.517  0.00  0.00    +0.000 A 
BRANCH  18  25
ATOM     24  C   UNL     1       3.850  14.524  21.067  0.00  0.00    +0.000 C 
ATOM     25  O   UNL     1       3.427  14.570  19.711  0.00  0.00    +0.000 OA
ENDBRANCH  18  25
ENDBRANCH   1  22
BRANCH   5  26
ATOM     26  C   UNL     1      -0.540  10.523  21.903  0.00  0.00    +0.000 C 
ATOM     27  S   UNL     1      -0.242   9.655  23.317  0.00  0.00    +0.000 S 
BRANCH  26  28
ATOM     28  N   UNL     1      -1.499  11.523  21.785  0.00  0.00    +0.000 N 
ATOM     29  H   UNL     1      -2.257  11.250  21.173  0.00  0.00    +0.000 HD
BRANCH  28  30
ATOM     30  C   UNL     1      -1.648  12.694  22.571  0.00  0.00    +0.000 A 
ATOM     31  C   UNL     1      -0.624  13.660  22.562  0.00  0.00    +0.000 A 
ATOM     32  C   UNL     1      -0.702  14.831  23.320  0.00  0.00    +0.000 A 
ATOM     33  C   UNL     1      -1.817  15.071  24.100  0.00  0.00    +0.000 A 
ATOM     34  C   UNL     1      -2.835  14.120  24.144  0.00  0.00    +0.000 A 
ATOM     35  C   UNL     1      -2.750  12.918  23.415  0.00  0.00    +0.000 A 
BRANCH  35  36
ATOM     36  O   UNL     1      -3.887  12.160  23.532  0.00  0.00    +0.000 OA
ATOM     37  C   UNL     1      -5.056  12.806  24.002  0.00  0.00    +0.000 C 
ENDBRANCH  35  36
ENDBRANCH  28  30
ENDBRANCH  26  28
ENDBRANCH   5  26
TORSDOF 8
ENDMDL
MODEL 4
REMARK VINA RESULT:      -7.9      0.869      1.324
REMARK  Name = 
REMARK  10 active torsions:
REMARK  status: ('A' for Active; 'I' for Inactive)
REMARK    1  A    between atoms: C_1  and  O_2
REMARK    2  A    between atoms: O_2  and  C_3
REMARK    3  A    between atoms: C_7  and  C_8
REMARK    4  A    between atoms: C_10  and  C_11
REMARK    5  A    between atoms: C_20  and  O_21
REMARK    6  A    between atoms: N_23  and  C_24
REMARK    7  A    between atoms: C_24  and  N_26
REMARK    8  A    between atoms: N_26  and  C_27
REMARK    9  A    between atoms: C_32  and  O_33
REMARK   10  A    between atoms: O_33  and  C_34
REMARK                            x       y       z     vdW  Elec       q    Type
REMARK                         _______ _______ _______ _____ _____    ______ ____
ROOT
ATOM      1  C   UNL     1       0.052  11.033  19.263  0.00  0.00    +0.000 C 
ATOM      2  C   UNL     1       0.783  10.061  18.329  0.00  0.00    +0.000 C 
ATOM      3  C   UNL     1       1.412   9.109  19.300  0.00  0.00    +0.000 C 
ATOM      4  N   UNL     1       1.129   9.340  20.555  0.00  0.00    +0.000 NA
ATOM      5  N   UNL     1       0.254  10.411  20.594  0.00  0.00    +0.000 N 
ENDROOT
BRANCH   3   6
ATOM      6  C   UNL     1       2.214   7.926  18.868  0.00  0.00    +0.000 A 
ATOM      7  C   UNL     1       2.928   8.069  17.673  0.00  0.00    +0.000 A 
ATOM      8  C   UNL     1       3.843   7.101  17.265  0.00  0.00    +0.000 A 
ATOM      9  C   UNL     1       4.051   5.944  18.023  0.00  0.00    +0.000 A 
ATOM     10  C   UNL     1       5.038   5.026  17.633  0.00  0.00    +0.000 A 
ATOM     11  C   UNL     1       5.243   3.847  18.345  0.00  0.00    +0.000 A 
ATOM     12  C   UNL     1       4.428   3.550  19.427  0.00  0.00    +0.000 A 
ATOM     13  C   UNL     1       3.452   4.464  19.837  0.00  0.00    +0.000 A 
ATOM     14  C   UNL     1       3.275   5.712  19.183  0.00  0.00    +0.000 A 
ATOM     15  C   UNL     1       2.383   6.744  19.614  0.00  0.00    +0.000 A 
BRANCH  15  16
ATOM     16  O   UNL     1       1.717   6.602  20.807  0.00  0.00    +0.000 OA
ATOM     17  H   UNL     1       2.372   6.527  21.521  0.00  0.00    +0.000 HD
ENDBRANCH  15  16
ENDBRANCH   3   6
BRANCH   1  22
ATOM     18  C   UNL     1       0.113  14.882  18.935  0.00  0.00    +0.000 A 
ATOM     19  C   UNL     1       1.475  15.155  19.024  0.00  0.00    +0.000 A 
ATOM     20  C   UNL     1       2.381  14.119  19.205  0.00  0.00    +0.000 A 
ATOM     21  C   UNL     1       1.924  12.803  19.263  0.00  0.00    +0.000 A 
ATOM     22  C   UNL     1       0.562  12.480  19.162  0.00  0.00    +0.000 A 
ATOM     23  C   UNL     1      -0.336  13.561  19.041  0.00  0.00    +0.000 A 
BRANCH  18  25
ATOM     24  C   UNL     1      -0.056  17.121  18.166  0.00  0.00    +0.000 C 
ATOM     25  O   UNL     1      -0.677  15.983  18.746  0.00  0.00    +0.000 OA
ENDBRANCH  18  25
ENDBRANCH   1  22
BRANCH   5  26
ATOM     26  C   UNL     1      -0.493  10.624  21.763  0.00  0.00    +0.000 C 
ATOM     27  S   UNL     1      -0.312   9.723  23.177  0.00  0.00    +0.000 S 
BRANCH  26  28
ATOM     28  N   UNL     1      -1.374  11.692  21.622  0.00  0.00    +0.000 N 
ATOM     29  H   UNL     1      -1.893  11.641  20.755  0.00  0.00    +0.000 HD
BRANCH  28  30
ATOM     30  C   UNL     1      -1.778  12.632  22.603  0.00  0.00    +0.000 A 
ATOM     31  C   UNL     1      -3.029  12.477  23.228  0.00  0.00    +0.000 A 
ATOM     32  C   UNL     1      -3.493  13.372  24.195  0.00  0.00    +0.000 A 
ATOM     33  C   UNL     1      -2.706  14.443  24.572  0.00  0.00    +0.000 A 
ATOM     34  C   UNL     1      -1.473  14.634  23.951  0.00  0.00    +0.000 A 
ATOM     35  C   UNL     1      -1.012  13.761  22.947  0.00  0.00    +0.000 A 
BRANCH  35  36
ATOM     36  O   UNL     1       0.254  14.076  22.527  0.00  0.00    +0.000 OA
ATOM     37  C   UNL     1       0.641  15.437  22.586  0.00  0.00    +0.000 C 
ENDBRANCH  35  36
ENDBRANCH  28  30
ENDBRANCH  26  28
ENDBRANCH   5  26
TORSDOF 8
ENDMDL
MODEL 5
REMARK VINA RESULT:      -7.9      2.752      4.166
REMARK  Name = 
REMARK  10 active torsions:
REMARK  status: ('A' for Active; 'I' for Inactive)
REMARK    1  A    between atoms: C_1  and  O_2
REMARK    2  A    between atoms: O_2  and  C_3
REMARK    3  A    between atoms: C_7  and  C_8
REMARK    4  A    between atoms: C_10  and  C_11
REMARK    5  A    between atoms: C_20  and  O_21
REMARK    6  A    between atoms: N_23  and  C_24
REMARK    7  A    between atoms: C_24  and  N_26
REMARK    8  A    between atoms: N_26  and  C_27
REMARK    9  A    between atoms: C_32  and  O_33
REMARK   10  A    between atoms: O_33  and  C_34
REMARK                            x       y       z     vdW  Elec       q    Type
REMARK                         _______ _______ _______ _____ _____    ______ ____
ROOT
ATOM      1  C   UNL     1       1.315  11.954  18.445  0.00  0.00    +0.000 C 
ATOM      2  C   UNL     1       2.155  10.732  18.057  0.00  0.00    +0.000 C 
ATOM      3  C   UNL     1       1.577   9.664  18.935  0.00  0.00    +0.000 C 
ATOM      4  N   UNL     1       0.571  10.049  19.674  0.00  0.00    +0.000 NA
ATOM      5  N   UNL     1       0.307  11.372  19.363  0.00  0.00    +0.000 N 
ENDROOT
BRANCH   3   6
ATOM      6  C   UNL     1       2.041   8.246  18.895  0.00  0.00    +0.000 A 
ATOM      7  C   UNL     1       2.849   7.893  17.809  0.00  0.00    +0.000 A 
ATOM      8  C   UNL     1       3.481   6.653  17.759  0.00  0.00    +0.000 A 
ATOM      9  C   UNL     1       3.300   5.713  18.780  0.00  0.00    +0.000 A 
ATOM     10  C   UNL     1       4.014   4.505  18.745  0.00  0.00    +0.000 A 
ATOM     11  C   UNL     1       3.829   3.534  19.726  0.00  0.00    +0.000 A 
ATOM     12  C   UNL     1       2.888   3.741  20.725  0.00  0.00    +0.000 A 
ATOM     13  C   UNL     1       2.182   4.948  20.780  0.00  0.00    +0.000 A 
ATOM     14  C   UNL     1       2.410   5.990  19.844  0.00  0.00    +0.000 A 
ATOM     15  C   UNL     1       1.818   7.290  19.904  0.00  0.00    +0.000 A 
BRANCH  15  16
ATOM     16  O   UNL     1       1.056   7.631  20.995  0.00  0.00    +0.000 OA
ATOM     17  H   UNL     1       0.122   7.457  20.788  0.00  0.00    +0.000 HD
ENDBRANCH  15  16
ENDBRANCH   3   6
BRANCH   1  22
ATOM     18  C   UNL     1       3.162  14.166  21.019  0.00  0.00    +0.000 A 
ATOM     19  C   UNL     1       3.698  15.162  20.207  0.00  0.00    +0.000 A 
ATOM     20  C   UNL     1       3.489  15.127  18.836  0.00  0.00    +0.000 A 
ATOM     21  C   UNL     1       2.713  14.112  18.280  0.00  0.00    +0.000 A 
ATOM     22  C   UNL     1       2.140  13.096  19.061  0.00  0.00    +0.000 A 
ATOM     23  C   UNL     1       2.424  13.126  20.442  0.00  0.00    +0.000 A 
BRANCH  18  25
ATOM     24  C   UNL     1       4.785  14.528  22.712  0.00  0.00    +0.000 C 
ATOM     25  O   UNL     1       3.427  14.314  22.352  0.00  0.00    +0.000 OA
ENDBRANCH  18  25
ENDBRANCH   1  22
BRANCH   5  26
ATOM     26  C   UNL     1      -0.938  11.910  19.726  0.00  0.00    +0.000 C 
ATOM     27  S   UNL     1      -1.140  13.419  20.451  0.00  0.00    +0.000 S 
BRANCH  26  28
ATOM     28  N   UNL     1      -1.984  11.061  19.380  0.00  0.00    +0.000 N 
ATOM     29  H   UNL     1      -2.425  10.654  20.194  0.00  0.00    +0.000 HD
BRANCH  28  30
ATOM     30  C   UNL     1      -2.616  10.914  18.119  0.00  0.00    +0.000 A 
ATOM     31  C   UNL     1      -1.972  10.174  17.111  0.00  0.00    +0.000 A 
ATOM     32  C   UNL     1      -2.533   9.999  15.844  0.00  0.00    +0.000 A 
ATOM     33  C   UNL     1      -3.766  10.552  15.557  0.00  0.00    +0.000 A 
ATOM     34  C   UNL     1      -4.415  11.310  16.531  0.00  0.00    +0.000 A 
ATOM     35  C   UNL     1      -3.842  11.527  17.798  0.00  0.00    +0.000 A 
BRANCH  35  36
ATOM     36  O   UNL     1      -4.675  12.226  18.631  0.00  0.00    +0.000 OA
ATOM     37  C   UNL     1      -6.065  11.986  18.516  0.00  0.00    +0.000 C 
ENDBRANCH  35  36
ENDBRANCH  28  30
ENDBRANCH  26  28
ENDBRANCH   5  26
TORSDOF 8
ENDMDL
MODEL 6
REMARK VINA RESULT:      -7.8      1.322      2.108
REMARK  Name = 
REMARK  10 active torsions:
REMARK  status: ('A' for Active; 'I' for Inactive)
REMARK    1  A    between atoms: C_1  and  O_2
REMARK    2  A    between atoms: O_2  and  C_3
REMARK    3  A    between atoms: C_7  and  C_8
REMARK    4  A    between atoms: C_10  and  C_11
REMARK    5  A    between atoms: C_20  and  O_21
REMARK    6  A    between atoms: N_23  and  C_24
REMARK    7  A    between atoms: C_24  and  N_26
REMARK    8  A    between atoms: N_26  and  C_27
REMARK    9  A    between atoms: C_32  and  O_33
REMARK   10  A    between atoms: O_33  and  C_34
REMARK                            x       y       z     vdW  Elec       q    Type
REMARK                         _______ _______ _______ _____ _____    ______ ____
ROOT
ATOM      1  C   UNL     1      -0.021  11.152  19.222  0.00  0.00    +0.000 C 
ATOM      2  C   UNL     1       0.727  10.186  18.295  0.00  0.00    +0.000 C 
ATOM      3  C   UNL     1       1.334   9.224  19.270  0.00  0.00    +0.000 C 
ATOM      4  N   UNL     1       1.026   9.445  20.520  0.00  0.00    +0.000 NA
ATOM      5  N   UNL     1       0.153  10.519  20.551  0.00  0.00    +0.000 N 
ENDROOT
BRANCH   3   6
ATOM      6  C   UNL     1       2.141   8.043  18.844  0.00  0.00    +0.000 A 
ATOM      7  C   UNL     1       2.848   8.180  17.644  0.00  0.00    +0.000 A 
ATOM      8  C   UNL     1       3.768   7.216  17.240  0.00  0.00    +0.000 A 
ATOM      9  C   UNL     1       3.986   6.066  18.006  0.00  0.00    +0.000 A 
ATOM     10  C   UNL     1       4.977   5.151  17.618  0.00  0.00    +0.000 A 
ATOM     11  C   UNL     1       5.194   3.980  18.339  0.00  0.00    +0.000 A 
ATOM     12  C   UNL     1       4.385   3.686  19.428  0.00  0.00    +0.000 A 
ATOM     13  C   UNL     1       3.405   4.597  19.835  0.00  0.00    +0.000 A 
ATOM     14  C   UNL     1       3.217   5.838  19.172  0.00  0.00    +0.000 A 
ATOM     15  C   UNL     1       2.321   6.868  19.598  0.00  0.00    +0.000 A 
BRANCH  15  16
ATOM     16  O   UNL     1       1.661   6.731  20.795  0.00  0.00    +0.000 OA
ATOM     17  H   UNL     1       1.130   7.530  20.949  0.00  0.00    +0.000 HD
ENDBRANCH  15  16
ENDBRANCH   3   6
BRANCH   1  22
ATOM     18  C   UNL     1       0.062  14.999  18.866  0.00  0.00    +0.000 A 
ATOM     19  C   UNL     1       1.415  15.273  19.046  0.00  0.00    +0.000 A 
ATOM     20  C   UNL     1       2.306  14.240  19.297  0.00  0.00    +0.000 A 
ATOM     21  C   UNL     1       1.846  12.924  19.334  0.00  0.00    +0.000 A 
ATOM     22  C   UNL     1       0.494  12.599  19.144  0.00  0.00    +0.000 A 
ATOM     23  C   UNL     1      -0.393  13.678  18.953  0.00  0.00    +0.000 A 
BRANCH  18  25
ATOM     24  C   UNL     1      -0.042  17.257  18.145  0.00  0.00    +0.000 C 
ATOM     25  O   UNL     1      -0.713  16.097  18.615  0.00  0.00    +0.000 OA
ENDBRANCH  18  25
ENDBRANCH   1  22
BRANCH   5  26
ATOM     26  C   UNL     1      -0.617  10.724  21.707  0.00  0.00    +0.000 C 
ATOM     27  S   UNL     1      -0.413   9.863  23.143  0.00  0.00    +0.000 S 
BRANCH  26  28
ATOM     28  N   UNL     1      -1.544  11.746  21.532  0.00  0.00    +0.000 N 
ATOM     29  H   UNL     1      -2.171  11.560  20.761  0.00  0.00    +0.000 HD
BRANCH  28  30
ATOM     30  C   UNL     1      -1.844  12.818  22.410  0.00  0.00    +0.000 A 
ATOM     31  C   UNL     1      -0.820  13.710  22.780  0.00  0.00    +0.000 A 
ATOM     32  C   UNL     1      -1.046  14.780  23.649  0.00  0.00    +0.000 A 
ATOM     33  C   UNL     1      -2.311  14.994  24.161  0.00  0.00    +0.000 A 
ATOM     34  C   UNL     1      -3.338  14.112  23.829  0.00  0.00    +0.000 A 
ATOM     35  C   UNL     1      -3.114  13.007  22.986  0.00  0.00    +0.000 A 
BRANCH  35  36
ATOM     36  O   UNL     1      -4.268  12.315  22.721  0.00  0.00    +0.000 OA
ATOM     37  C   UNL     1      -5.491  13.018  22.838  0.00  0.00    +0.000 C 
ENDBRANCH  35  36
ENDBRANCH  28  30
ENDBRANCH  26  28
ENDBRANCH   5  26
TORSDOF 8
ENDMDL
MODEL 7
REMARK VINA RESULT:      -7.8      3.297      4.537
REMARK  Name = 
REMARK  10 active torsions:
REMARK  status: ('A' for Active; 'I' for Inactive)
REMARK    1  A    between atoms: C_1  and  O_2
REMARK    2  A    between atoms: O_2  and  C_3
REMARK    3  A    between atoms: C_7  and  C_8
REMARK    4  A    between atoms: C_10  and  C_11
REMARK    5  A    between atoms: C_20  and  O_21
REMARK    6  A    between atoms: N_23  and  C_24
REMARK    7  A    between atoms: C_24  and  N_26
REMARK    8  A    between atoms: N_26  and  C_27
REMARK    9  A    between atoms: C_32  and  O_33
REMARK   10  A    between atoms: O_33  and  C_34
REMARK                            x       y       z     vdW  Elec       q    Type
REMARK                         _______ _______ _______ _____ _____    ______ ____
ROOT
ATOM      1  C   UNL     1      -1.054  11.510  19.498  0.00  0.00    +0.000 C 
ATOM      2  C   UNL     1      -0.677  10.072  19.875  0.00  0.00    +0.000 C 
ATOM      3  C   UNL     1       0.675   9.928  19.247  0.00  0.00    +0.000 C 
ATOM      4  N   UNL     1       1.121  11.004  18.655  0.00  0.00    +0.000 NA
ATOM      5  N   UNL     1       0.184  12.004  18.847  0.00  0.00    +0.000 N 
ENDROOT
BRANCH   3   6
ATOM      6  C   UNL     1       1.497   8.688  19.374  0.00  0.00    +0.000 A 
ATOM      7  C   UNL     1       1.347   7.970  20.565  0.00  0.00    +0.000 A 
ATOM      8  C   UNL     1       1.927   6.713  20.722  0.00  0.00    +0.000 A 
ATOM      9  C   UNL     1       2.701   6.147  19.703  0.00  0.00    +0.000 A 
ATOM     10  C   UNL     1       3.204   4.846  19.855  0.00  0.00    +0.000 A 
ATOM     11  C   UNL     1       4.008   4.269  18.875  0.00  0.00    +0.000 A 
ATOM     12  C   UNL     1       4.361   5.009  17.756  0.00  0.00    +0.000 A 
ATOM     13  C   UNL     1       3.853   6.301  17.584  0.00  0.00    +0.000 A 
ATOM     14  C   UNL     1       2.963   6.884  18.524  0.00  0.00    +0.000 A 
ATOM     15  C   UNL     1       2.312   8.147  18.362  0.00  0.00    +0.000 A 
BRANCH  15  16
ATOM     16  O   UNL     1       2.441   8.822  17.172  0.00  0.00    +0.000 OA
ATOM     17  H   UNL     1       1.621   9.315  17.004  0.00  0.00    +0.000 HD
ENDBRANCH  15  16
ENDBRANCH   3   6
BRANCH   1  22
ATOM     18  C   UNL     1      -3.382  11.413  16.416  0.00  0.00    +0.000 A 
ATOM     19  C   UNL     1      -4.616  11.724  16.980  0.00  0.00    +0.000 A 
ATOM     20  C   UNL     1      -4.718  11.950  18.345  0.00  0.00    +0.000 A 
ATOM     21  C   UNL     1      -3.575  11.899  19.142  0.00  0.00    +0.000 A 
ATOM     22  C   UNL     1      -2.309  11.604  18.614  0.00  0.00    +0.000 A 
ATOM     23  C   UNL     1      -2.251  11.318  17.235  0.00  0.00    +0.000 A 
BRANCH  18  25
ATOM     24  C   UNL     1      -3.035   9.933  14.592  0.00  0.00    +0.000 C 
ATOM     25  O   UNL     1      -3.407  11.222  15.062  0.00  0.00    +0.000 OA
ENDBRANCH  18  25
ENDBRANCH   1  22
BRANCH   5  26
ATOM     26  C   UNL     1       0.576  13.338  18.647  0.00  0.00    +0.000 C 
ATOM     27  S   UNL     1       2.165  13.822  18.362  0.00  0.00    +0.000 S 
BRANCH  26  28
ATOM     28  N   UNL     1      -0.513  14.202  18.679  0.00  0.00    +0.000 N 
ATOM     29  H   UNL     1      -1.299  13.840  18.155  0.00  0.00    +0.000 HD
BRANCH  28  30
ATOM     30  C   UNL     1      -0.714  15.331  19.514  0.00  0.00    +0.000 A 
ATOM     31  C   UNL     1      -0.863  15.140  20.901  0.00  0.00    +0.000 A 
ATOM     32  C   UNL     1      -1.073  16.206  21.778  0.00  0.00    +0.000 A 
ATOM     33  C   UNL     1      -1.128  17.497  21.290  0.00  0.00    +0.000 A 
ATOM     34  C   UNL     1      -1.007  17.711  19.918  0.00  0.00    +0.000 A 
ATOM     35  C   UNL     1      -0.834  16.642  19.019  0.00  0.00    +0.000 A 
BRANCH  35  36
ATOM     36  O   UNL     1      -0.656  17.072  17.730  0.00  0.00    +0.000 OA
ATOM     37  C   UNL     1      -0.613  18.470  17.508  0.00  0.00    +0.000 C 
ENDBRANCH  35  36
ENDBRANCH  28  30
ENDBRANCH  26  28
ENDBRANCH   5  26
TORSDOF 8
ENDMDL
MODEL 8
REMARK VINA RESULT:      -7.7      3.402      5.410
REMARK  Name = 
REMARK  10 active torsions:
REMARK  status: ('A' for Active; 'I' for Inactive)
REMARK    1  A    between atoms: C_1  and  O_2
REMARK    2  A    between atoms: O_2  and  C_3
REMARK    3  A    between atoms: C_7  and  C_8
REMARK    4  A    between atoms: C_10  and  C_11
REMARK    5  A    between atoms: C_20  and  O_21
REMARK    6  A    between atoms: N_23  and  C_24
REMARK    7  A    between atoms: C_24  and  N_26
REMARK    8  A    between atoms: N_26  and  C_27
REMARK    9  A    between atoms: C_32  and  O_33
REMARK   10  A    between atoms: O_33  and  C_34
REMARK                            x       y       z     vdW  Elec       q    Type
REMARK                         _______ _______ _______ _____ _____    ______ ____
ROOT
ATOM      1  C   UNL     1      -1.534  12.686  19.975  0.00  0.00    +0.000 C 
ATOM      2  C   UNL     1      -0.185  11.995  20.209  0.00  0.00    +0.000 C 
ATOM      3  C   UNL     1      -0.455  10.607  19.716  0.00  0.00    +0.000 C 
ATOM      4  N   UNL     1      -1.651  10.425  19.222  0.00  0.00    +0.000 NA
ATOM      5  N   UNL     1      -2.308  11.641  19.262  0.00  0.00    +0.000 N 
ENDROOT
BRANCH   3   6
ATOM      6  C   UNL     1       0.589   9.540  19.692  0.00  0.00    +0.000 A 
ATOM      7  C   UNL     1       0.673   8.735  20.834  0.00  0.00    +0.000 A 
ATOM      8  C   UNL     1       1.485   7.604  20.855  0.00  0.00    +0.000 A 
ATOM      9  C   UNL     1       2.265   7.259  19.745  0.00  0.00    +0.000 A 
ATOM     10  C   UNL     1       3.010   6.069  19.763  0.00  0.00    +0.000 A 
ATOM     11  C   UNL     1       3.823   5.716  18.690  0.00  0.00    +0.000 A 
ATOM     12  C   UNL     1       3.940   6.576  17.607  0.00  0.00    +0.000 A 
ATOM     13  C   UNL     1       3.190   7.756  17.569  0.00  0.00    +0.000 A 
ATOM     14  C   UNL     1       2.288   8.102  18.610  0.00  0.00    +0.000 A 
ATOM     15  C   UNL     1       1.404   9.226  18.588  0.00  0.00    +0.000 A 
BRANCH  15  16
ATOM     16  O   UNL     1       1.309   9.984  17.447  0.00  0.00    +0.000 OA
ATOM     17  H   UNL     1       2.028   9.731  16.845  0.00  0.00    +0.000 HD
ENDBRANCH  15  16
ENDBRANCH   3   6
BRANCH   1  22
ATOM     18  C   UNL     1      -3.316  12.728  23.403  0.00  0.00    +0.000 A 
ATOM     19  C   UNL     1      -3.380  14.092  23.674  0.00  0.00    +0.000 A 
ATOM     20  C   UNL     1      -2.843  15.005  22.778  0.00  0.00    +0.000 A 
ATOM     21  C   UNL     1      -2.270  14.553  21.590  0.00  0.00    +0.000 A 
ATOM     22  C   UNL     1      -2.198  13.189  21.267  0.00  0.00    +0.000 A 
ATOM     23  C   UNL     1      -2.697  12.285  22.228  0.00  0.00    +0.000 A 
BRANCH  18  25
ATOM     24  C   UNL     1      -5.181  12.306  24.809  0.00  0.00    +0.000 C 
ATOM     25  O   UNL     1      -3.888  11.931  24.355  0.00  0.00    +0.000 OA
ENDBRANCH  18  25
ENDBRANCH   1  22
BRANCH   5  26
ATOM     26  C   UNL     1      -3.449  11.814  18.462  0.00  0.00    +0.000 C 
ATOM     27  S   UNL     1      -3.770  10.920  17.069  0.00  0.00    +0.000 S 
BRANCH  26  28
ATOM     28  N   UNL     1      -4.296  12.788  18.980  0.00  0.00    +0.000 N 
ATOM     29  H   UNL     1      -4.159  13.685  18.532  0.00  0.00    +0.000 HD
BRANCH  28  30
ATOM     30  C   UNL     1      -5.422  12.614  19.824  0.00  0.00    +0.000 A 
ATOM     31  C   UNL     1      -5.710  13.591  20.794  0.00  0.00    +0.000 A 
ATOM     32  C   UNL     1      -6.797  13.477  21.664  0.00  0.00    +0.000 A 
ATOM     33  C   UNL     1      -7.634  12.382  21.576  0.00  0.00    +0.000 A 
ATOM     34  C   UNL     1      -7.358  11.387  20.639  0.00  0.00    +0.000 A 
ATOM     35  C   UNL     1      -6.243  11.472  19.784  0.00  0.00    +0.000 A 
BRANCH  35  36
ATOM     36  O   UNL     1      -6.198  10.436  18.887  0.00  0.00    +0.000 OA
ATOM     37  C   UNL     1      -6.847   9.231  19.248  0.00  0.00    +0.000 C 
ENDBRANCH  35  36
ENDBRANCH  28  30
ENDBRANCH  26  28
ENDBRANCH   5  26
TORSDOF 8
ENDMDL
MODEL 9
REMARK VINA RESULT:      -7.7      2.413      3.660
REMARK  Name = 
REMARK  10 active torsions:
REMARK  status: ('A' for Active; 'I' for Inactive)
REMARK    1  A    between atoms: C_1  and  O_2
REMARK    2  A    between atoms: O_2  and  C_3
REMARK    3  A    between atoms: C_7  and  C_8
REMARK    4  A    between atoms: C_10  and  C_11
REMARK    5  A    between atoms: C_20  and  O_21
REMARK    6  A    between atoms: N_23  and  C_24
REMARK    7  A    between atoms: C_24  and  N_26
REMARK    8  A    between atoms: N_26  and  C_27
REMARK    9  A    between atoms: C_32  and  O_33
REMARK   10  A    between atoms: O_33  and  C_34
REMARK                            x       y       z     vdW  Elec       q    Type
REMARK                         _______ _______ _______ _____ _____    ______ ____
ROOT
ATOM      1  C   UNL     1       1.294  11.591  18.714  0.00  0.00    +0.000 C 
ATOM      2  C   UNL     1       2.098  10.434  18.110  0.00  0.00    +0.000 C 
ATOM      3  C   UNL     1       1.757   9.302  19.031  0.00  0.00    +0.000 C 
ATOM      4  N   UNL     1       0.900   9.602  19.971  0.00  0.00    +0.000 NA
ATOM      5  N   UNL     1       0.517  10.918  19.783  0.00  0.00    +0.000 N 
ENDROOT
BRANCH   3   6
ATOM      6  C   UNL     1       2.271   7.915  18.832  0.00  0.00    +0.000 A 
ATOM      7  C   UNL     1       2.986   7.687  17.651  0.00  0.00    +0.000 A 
ATOM      8  C   UNL     1       3.660   6.485  17.442  0.00  0.00    +0.000 A 
ATOM      9  C   UNL     1       3.612   5.461  18.393  0.00  0.00    +0.000 A 
ATOM     10  C   UNL     1       4.367   4.294  18.195  0.00  0.00    +0.000 A 
ATOM     11  C   UNL     1       4.313   3.241  19.105  0.00  0.00    +0.000 A 
ATOM     12  C   UNL     1       3.463   3.324  20.198  0.00  0.00    +0.000 A 
ATOM     13  C   UNL     1       2.719   4.489  20.417  0.00  0.00    +0.000 A 
ATOM     14  C   UNL     1       2.816   5.611  19.553  0.00  0.00    +0.000 A 
ATOM     15  C   UNL     1       2.181   6.873  19.774  0.00  0.00    +0.000 A 
BRANCH  15  16
ATOM     16  O   UNL     1       1.512   7.091  20.954  0.00  0.00    +0.000 OA
ATOM     17  H   UNL     1       1.074   7.957  20.906  0.00  0.00    +0.000 HD
ENDBRANCH  15  16
ENDBRANCH   3   6
BRANCH   1  22
ATOM     18  C   UNL     1       3.742  14.580  18.751  0.00  0.00    +0.000 A 
ATOM     19  C   UNL     1       3.750  14.926  20.100  0.00  0.00    +0.000 A 
ATOM     20  C   UNL     1       2.966  14.222  21.002  0.00  0.00    +0.000 A 
ATOM     21  C   UNL     1       2.198  13.146  20.559  0.00  0.00    +0.000 A 
ATOM     22  C   UNL     1       2.170  12.753  19.212  0.00  0.00    +0.000 A 
ATOM     23  C   UNL     1       2.930  13.529  18.312  0.00  0.00    +0.000 A 
BRANCH  18  25
ATOM     24  C   UNL     1       5.233  16.420  18.598  0.00  0.00    +0.000 C 
ATOM     25  O   UNL     1       4.562  15.340  17.964  0.00  0.00    +0.000 OA
ENDBRANCH  18  25
ENDBRANCH   1  22
BRANCH   5  26
ATOM     26  C   UNL     1      -0.656  11.371  20.407  0.00  0.00    +0.000 C 
ATOM     27  S   UNL     1      -0.979  11.193  22.053  0.00  0.00    +0.000 S 
BRANCH  26  28
ATOM     28  N   UNL     1      -1.500  12.015  19.508  0.00  0.00    +0.000 N 
ATOM     29  H   UNL     1      -1.304  13.005  19.449  0.00  0.00    +0.000 HD
BRANCH  28  30
ATOM     30  C   UNL     1      -2.368  11.434  18.550  0.00  0.00    +0.000 A 
ATOM     31  C   UNL     1      -1.826  10.620  17.538  0.00  0.00    +0.000 A 
ATOM     32  C   UNL     1      -2.623  10.026  16.557  0.00  0.00    +0.000 A 
ATOM     33  C   UNL     1      -3.991  10.222  16.571  0.00  0.00    +0.000 A 
ATOM     34  C   UNL     1      -4.550  11.043  17.549  0.00  0.00    +0.000 A 
ATOM     35  C   UNL     1      -3.753  11.679  18.520  0.00  0.00    +0.000 A 
BRANCH  35  36
ATOM     36  O   UNL     1      -4.504  12.372  19.433  0.00  0.00    +0.000 OA
ATOM     37  C   UNL     1      -5.905  12.172  19.413  0.00  0.00    +0.000 C 
ENDBRANCH  35  36
ENDBRANCH  28  30
ENDBRANCH  26  28
ENDBRANCH   5  26
TORSDOF 8
ENDMDL
