MODEL 1
REMARK VINA RESULT:      -8.6      0.000      0.000
REMARK  Name = 
REMARK  10 active torsions:
REMARK  status: ('A' for Active; 'I' for Inactive)
REMARK    1  A    between atoms: C_2  and  O_3
REMARK    2  A    between atoms: C_2  and  C_4
REMARK    3  A    between atoms: C_4  and  C_5
REMARK    4  A    between atoms: C_5  and  N_6
REMARK    5  A    between atoms: C_5  and  C_25
REMARK    6  A    between atoms: C_7  and  C_9
REMARK    7  A    between atoms: C_9  and  C_10
REMARK    8  A    between atoms: C_10  and  C_11
REMARK    9  A    between atoms: C_11  and  C_12
REMARK   10  A    between atoms: N_14  and  C_15
REMARK                            x       y       z     vdW  Elec       q    Type
REMARK                         _______ _______ _______ _____ _____    ______ ____
ROOT
ATOM      1  N   UNL     1       4.311   4.880  17.815  0.00  0.00    +0.000 N 
ATOM      2  C   UNL     1       5.666   4.790  18.031  0.00  0.00    +0.000 C 
ATOM      3  O   UNL     1       6.172   4.818  19.149  0.00  0.00    +0.000 OA
ATOM      4  H   UNL     1       3.969   5.010  16.869  0.00  0.00    +0.000 HD
ENDROOT
BRANCH   1   5
ATOM      5  C   UNL     1       3.315   4.855  18.892  0.00  0.00    +0.000 C 
BRANCH   5   6
ATOM      6  C   UNL     1       2.690   6.245  19.054  0.00  0.00    +0.000 A 
ATOM      7  C   UNL     1       2.110   6.627  20.293  0.00  0.00    +0.000 A 
ATOM      8  C   UNL     1       1.605   7.921  20.493  0.00  0.00    +0.000 A 
ATOM      9  C   UNL     1       1.680   8.814  19.446  0.00  0.00    +0.000 A 
ATOM     10  C   UNL     1       2.217   8.452  18.239  0.00  0.00    +0.000 A 
ATOM     11  C   UNL     1       2.720   7.192  18.012  0.00  0.00    +0.000 A 
ATOM     12  O   UNL     1       2.207   9.462  17.331  0.00  0.00    +0.000 OA
ATOM     13  C   UNL     1       1.616  10.517  18.113  0.00  0.00    +0.000 C 
ATOM     14  O   UNL     1       1.272  10.112  19.457  0.00  0.00    +0.000 OA
ENDBRANCH   5   6
BRANCH   5  15
ATOM     15  C   UNL     1       2.281   3.733  18.717  0.00  0.00    +0.000 C 
BRANCH  15  17
ATOM     16  O   UNL     1       4.006   2.205  19.387  0.00  0.00    +0.000 OA
ATOM     17  C   UNL     1       2.852   2.383  19.028  0.00  0.00    +0.000 C 
BRANCH  17  18
ATOM     18  O   UNL     1       1.972   1.368  18.877  0.00  0.00    +0.000 OA
ATOM     19  H   UNL     1       1.296   1.530  18.187  0.00  0.00    +0.000 HD
ENDBRANCH  17  18
ENDBRANCH  15  17
ENDBRANCH   5  15
ENDBRANCH   1   5
BRANCH   2  20
ATOM     20  C   UNL     1       6.512   4.725  16.778  0.00  0.00    +0.000 C 
BRANCH  20  21
ATOM     21  C   UNL     1       7.229   6.039  16.486  0.00  0.00    +0.000 C 
BRANCH  21  22
ATOM     22  C   UNL     1       6.684   7.177  17.344  0.00  0.00    +0.000 C 
BRANCH  22  23
ATOM     23  C   UNL     1       7.816   7.838  18.103  0.00  0.00    +0.000 C 
ATOM     24  O   UNL     1       8.494   7.172  18.881  0.00  0.00    +0.000 OA
ATOM     25  N   UNL     1       7.905   9.203  17.884  0.00  0.00    +0.000 N 
ATOM     26  H   UNL     1       7.168   9.639  17.345  0.00  0.00    +0.000 HD
BRANCH  25  27
ATOM     27  C   UNL     1       8.863  10.075  18.451  0.00  0.00    +0.000 A 
ATOM     28  C   UNL     1       9.094  10.153  19.829  0.00  0.00    +0.000 A 
ATOM     29  C   UNL     1      10.021  11.049  20.361  0.00  0.00    +0.000 A 
ATOM     30  C   UNL     1      10.727  11.888  19.505  0.00  0.00    +0.000 A 
ATOM     31  C   UNL     1      10.531  11.813  18.116  0.00  0.00    +0.000 A 
ATOM     32  C   UNL     1       9.615  10.888  17.592  0.00  0.00    +0.000 A 
ATOM     33  C   UNL     1      11.385  12.709  17.252  0.00  0.00    +0.000 C 
ATOM     34  N   UNL     1      11.492  14.089  17.747  0.00  0.00    +0.000 NA
ATOM     35  C   UNL     1      11.511  14.213  19.215  0.00  0.00    +0.000 C 
ATOM     36  C   UNL     1      11.709  12.911  20.007  0.00  0.00    +0.000 C 
ATOM     37  H   UNL     1      10.699  14.624  17.395  0.00  0.00    +0.000 HD
ENDBRANCH  25  27
ENDBRANCH  22  23
ENDBRANCH  21  22
ENDBRANCH  20  21
ENDBRANCH   2  20
TORSDOF 10
ENDMDL
MODEL 2
REMARK VINA RESULT:      -8.2      3.424      5.025
REMARK  Name = 
REMARK  10 active torsions:
REMARK  status: ('A' for Active; 'I' for Inactive)
REMARK    1  A    between atoms: C_2  and  O_3
REMARK    2  A    between atoms: C_2  and  C_4
REMARK    3  A    between atoms: C_4  and  C_5
REMARK    4  A    between atoms: C_5  and  N_6
REMARK    5  A    between atoms: C_5  and  C_25
REMARK    6  A    between atoms: C_7  and  C_9
REMARK    7  A    between atoms: C_9  and  C_10
REMARK    8  A    between atoms: C_10  and  C_11
REMARK    9  A    between atoms: C_11  and  C_12
REMARK   10  A    between atoms: N_14  and  C_15
REMARK                            x       y       z     vdW  Elec       q    Type
REMARK                         _______ _______ _______ _____ _____    ______ ____
ROOT
ATOM      1  N   UNL     1       6.550   6.954  16.758  0.00  0.00    +0.000 N 
ATOM      2  C   UNL     1       7.487   7.394  17.662  0.00  0.00    +0.000 C 
ATOM      3  O   UNL     1       7.934   6.692  18.564  0.00  0.00    +0.000 OA
ATOM      4  H   UNL     1       6.105   7.624  16.141  0.00  0.00    +0.000 HD
ENDROOT
BRANCH   1   5
ATOM      5  C   UNL     1       6.103   5.559  16.669  0.00  0.00    +0.000 C 
BRANCH   5   6
ATOM      6  C   UNL     1       5.059   5.277  17.756  0.00  0.00    +0.000 A 
ATOM      7  C   UNL     1       5.088   4.051  18.471  0.00  0.00    +0.000 A 
ATOM      8  C   UNL     1       4.197   3.802  19.527  0.00  0.00    +0.000 A 
ATOM      9  C   UNL     1       3.281   4.781  19.845  0.00  0.00    +0.000 A 
ATOM     10  C   UNL     1       3.228   5.959  19.148  0.00  0.00    +0.000 A 
ATOM     11  C   UNL     1       4.088   6.233  18.110  0.00  0.00    +0.000 A 
ATOM     12  O   UNL     1       2.265   6.802  19.604  0.00  0.00    +0.000 OA
ATOM     13  C   UNL     1       1.724   6.025  20.690  0.00  0.00    +0.000 C 
ATOM     14  O   UNL     1       2.361   4.735  20.845  0.00  0.00    +0.000 OA
ENDBRANCH   5   6
BRANCH   5  15
ATOM     15  C   UNL     1       5.637   5.176  15.256  0.00  0.00    +0.000 C 
BRANCH  15  17
ATOM     16  O   UNL     1       7.819   5.369  14.277  0.00  0.00    +0.000 OA
ATOM     17  C   UNL     1       6.776   4.744  14.383  0.00  0.00    +0.000 C 
BRANCH  17  18
ATOM     18  O   UNL     1       6.547   3.590  13.717  0.00  0.00    +0.000 OA
ATOM     19  H   UNL     1       5.641   3.517  13.352  0.00  0.00    +0.000 HD
ENDBRANCH  17  18
ENDBRANCH  15  17
ENDBRANCH   5  15
ENDBRANCH   1   5
BRANCH   2  20
ATOM     20  C   UNL     1       7.887   8.847  17.515  0.00  0.00    +0.000 C 
BRANCH  20  21
ATOM     21  C   UNL     1       8.704   9.352  18.700  0.00  0.00    +0.000 C 
BRANCH  21  22
ATOM     22  C   UNL     1       9.685  10.443  18.280  0.00  0.00    +0.000 C 
BRANCH  22  23
ATOM     23  C   UNL     1       9.340  11.742  18.976  0.00  0.00    +0.000 C 
ATOM     24  O   UNL     1       8.661  12.582  18.390  0.00  0.00    +0.000 OA
ATOM     25  N   UNL     1       9.930  11.876  20.223  0.00  0.00    +0.000 N 
ATOM     26  H   UNL     1      10.601  11.171  20.499  0.00  0.00    +0.000 HD
BRANCH  25  27
ATOM     27  C   UNL     1       9.783  12.976  21.098  0.00  0.00    +0.000 A 
ATOM     28  C   UNL     1      10.509  14.163  20.953  0.00  0.00    +0.000 A 
ATOM     29  C   UNL     1      10.368  15.218  21.854  0.00  0.00    +0.000 A 
ATOM     30  C   UNL     1       9.489  15.085  22.926  0.00  0.00    +0.000 A 
ATOM     31  C   UNL     1       8.731  13.913  23.081  0.00  0.00    +0.000 A 
ATOM     32  C   UNL     1       8.863  12.870  22.151  0.00  0.00    +0.000 A 
ATOM     33  C   UNL     1       7.752  13.875  24.229  0.00  0.00    +0.000 C 
ATOM     34  N   UNL     1       8.299  14.382  25.496  0.00  0.00    +0.000 NA
ATOM     35  C   UNL     1       9.250  15.498  25.349  0.00  0.00    +0.000 C 
ATOM     36  C   UNL     1       9.316  16.159  23.964  0.00  0.00    +0.000 C 
ATOM     37  H   UNL     1       8.779  13.619  25.972  0.00  0.00    +0.000 HD
ENDBRANCH  25  27
ENDBRANCH  22  23
ENDBRANCH  21  22
ENDBRANCH  20  21
ENDBRANCH   2  20
TORSDOF 10
ENDMDL
MODEL 3
REMARK VINA RESULT:      -8.2      2.813      4.176
REMARK  Name = 
REMARK  10 active torsions:
REMARK  status: ('A' for Active; 'I' for Inactive)
REMARK    1  A    between atoms: C_2  and  O_3
REMARK    2  A    between atoms: C_2  and  C_4
REMARK    3  A    between atoms: C_4  and  C_5
REMARK    4  A    between atoms: C_5  and  N_6
REMARK    5  A    between atoms: C_5  and  C_25
REMARK    6  A    between atoms: C_7  and  C_9
REMARK    7  A    between atoms: C_9  and  C_10
REMARK    8  A    between atoms: C_10  and  C_11
REMARK    9  A    between atoms: C_11  and  C_12
REMARK   10  A    between atoms: N_14  and  C_15
REMARK                            x       y       z     vdW  Elec       q    Type
REMARK                         _______ _______ _______ _____ _____    ______ ____
ROOT
ATOM      1  N   UNL     1       6.184   4.426  17.524  0.00  0.00    +0.000 N 
ATOM      2  C   UNL     1       6.042   5.706  18.005  0.00  0.00    +0.000 C 
ATOM      3  O   UNL     1       5.028   6.378  17.840  0.00  0.00    +0.000 OA
ATOM      4  H   UNL     1       7.096   3.985  17.554  0.00  0.00    +0.000 HD
ENDROOT
BRANCH   1   5
ATOM      5  C   UNL     1       5.091   3.665  16.909  0.00  0.00    +0.000 C 
BRANCH   5   6
ATOM      6  C   UNL     1       3.898   3.598  17.870  0.00  0.00    +0.000 A 
ATOM      7  C   UNL     1       2.599   3.953  17.422  0.00  0.00    +0.000 A 
ATOM      8  C   UNL     1       1.478   3.822  18.256  0.00  0.00    +0.000 A 
ATOM      9  C   UNL     1       1.675   3.345  19.533  0.00  0.00    +0.000 A 
ATOM     10  C   UNL     1       2.926   3.019  19.987  0.00  0.00    +0.000 A 
ATOM     11  C   UNL     1       4.044   3.136  19.193  0.00  0.00    +0.000 A 
ATOM     12  O   UNL     1       2.925   2.566  21.267  0.00  0.00    +0.000 OA
ATOM     13  C   UNL     1       1.518   2.624  21.568  0.00  0.00    +0.000 C 
ATOM     14  O   UNL     1       0.717   3.124  20.473  0.00  0.00    +0.000 OA
ENDBRANCH   5   6
BRANCH   5  15
ATOM     15  C   UNL     1       4.723   4.182  15.510  0.00  0.00    +0.000 C 
BRANCH  15  17
ATOM     16  O   UNL     1       6.534   5.456  14.584  0.00  0.00    +0.000 OA
ATOM     17  C   UNL     1       5.932   4.396  14.651  0.00  0.00    +0.000 C 
BRANCH  17  18
ATOM     18  O   UNL     1       6.305   3.302  13.950  0.00  0.00    +0.000 OA
ATOM     19  H   UNL     1       5.580   2.658  13.805  0.00  0.00    +0.000 HD
ENDBRANCH  17  18
ENDBRANCH  15  17
ENDBRANCH   5  15
ENDBRANCH   1   5
BRANCH   2  20
ATOM     20  C   UNL     1       7.263   6.270  18.699  0.00  0.00    +0.000 C 
BRANCH  20  21
ATOM     21  C   UNL     1       8.093   7.168  17.787  0.00  0.00    +0.000 C 
BRANCH  21  22
ATOM     22  C   UNL     1       7.537   8.589  17.742  0.00  0.00    +0.000 C 
BRANCH  22  23
ATOM     23  C   UNL     1       8.551   9.558  18.313  0.00  0.00    +0.000 C 
ATOM     24  O   UNL     1       9.173   9.256  19.327  0.00  0.00    +0.000 OA
ATOM     25  N   UNL     1       8.600  10.768  17.639  0.00  0.00    +0.000 N 
ATOM     26  H   UNL     1       7.903  10.932  16.923  0.00  0.00    +0.000 HD
BRANCH  25  27
ATOM     27  C   UNL     1       9.450  11.855  17.943  0.00  0.00    +0.000 A 
ATOM     28  C   UNL     1      10.831  11.710  18.119  0.00  0.00    +0.000 A 
ATOM     29  C   UNL     1      11.640  12.796  18.453  0.00  0.00    +0.000 A 
ATOM     30  C   UNL     1      11.061  14.050  18.621  0.00  0.00    +0.000 A 
ATOM     31  C   UNL     1       9.682  14.227  18.426  0.00  0.00    +0.000 A 
ATOM     32  C   UNL     1       8.883  13.131  18.063  0.00  0.00    +0.000 A 
ATOM     33  C   UNL     1       9.143  15.631  18.559  0.00  0.00    +0.000 C 
ATOM     34  N   UNL     1       9.659  16.359  19.727  0.00  0.00    +0.000 NA
ATOM     35  C   UNL     1      11.059  16.050  20.071  0.00  0.00    +0.000 C 
ATOM     36  C   UNL     1      11.859  15.259  19.025  0.00  0.00    +0.000 C 
ATOM     37  H   UNL     1       9.079  16.135  20.535  0.00  0.00    +0.000 HD
ENDBRANCH  25  27
ENDBRANCH  22  23
ENDBRANCH  21  22
ENDBRANCH  20  21
ENDBRANCH   2  20
TORSDOF 10
ENDMDL
MODEL 4
REMARK VINA RESULT:      -8.2      5.157      9.130
REMARK  Name = 
REMARK  10 active torsions:
REMARK  status: ('A' for Active; 'I' for Inactive)
REMARK    1  A    between atoms: C_2  and  O_3
REMARK    2  A    between atoms: C_2  and  C_4
REMARK    3  A    between atoms: C_4  and  C_5
REMARK    4  A    between atoms: C_5  and  N_6
REMARK    5  A    between atoms: C_5  and  C_25
REMARK    6  A    between atoms: C_7  and  C_9
REMARK    7  A    between atoms: C_9  and  C_10
REMARK    8  A    between atoms: C_10  and  C_11
REMARK    9  A    between atoms: C_11  and  C_12
REMARK   10  A    between atoms: N_14  and  C_15
REMARK                            x       y       z     vdW  Elec       q    Type
REMARK                         _______ _______ _______ _____ _____    ______ ____
ROOT
ATOM      1  N   UNL     1       2.037   6.580  19.138  0.00  0.00    +0.000 N 
ATOM      2  C   UNL     1       1.999   7.906  18.778  0.00  0.00    +0.000 C 
ATOM      3  O   UNL     1       2.381   8.318  17.687  0.00  0.00    +0.000 OA
ATOM      4  H   UNL     1       1.859   6.325  20.103  0.00  0.00    +0.000 HD
ENDROOT
BRANCH   1   5
ATOM      5  C   UNL     1       2.380   5.497  18.210  0.00  0.00    +0.000 C 
BRANCH   5   6
ATOM      6  C   UNL     1       3.903   5.402  18.062  0.00  0.00    +0.000 A 
ATOM      7  C   UNL     1       4.494   5.371  16.771  0.00  0.00    +0.000 A 
ATOM      8  C   UNL     1       5.888   5.367  16.608  0.00  0.00    +0.000 A 
ATOM      9  C   UNL     1       6.672   5.386  17.741  0.00  0.00    +0.000 A 
ATOM     10  C   UNL     1       6.115   5.394  18.992  0.00  0.00    +0.000 A 
ATOM     11  C   UNL     1       4.753   5.398  19.185  0.00  0.00    +0.000 A 
ATOM     12  O   UNL     1       7.042   5.413  19.985  0.00  0.00    +0.000 OA
ATOM     13  C   UNL     1       8.258   5.437  19.213  0.00  0.00    +0.000 C 
ATOM     14  O   UNL     1       8.032   5.413  17.785  0.00  0.00    +0.000 OA
ENDBRANCH   5   6
BRANCH   5  15
ATOM     15  C   UNL     1       1.715   4.164  18.582  0.00  0.00    +0.000 C 
BRANCH  15  17
ATOM     16  O   UNL     1       2.182   4.461  20.917  0.00  0.00    +0.000 OA
ATOM     17  C   UNL     1       1.419   4.069  20.048  0.00  0.00    +0.000 C 
BRANCH  17  18
ATOM     18  O   UNL     1       0.222   3.508  20.330  0.00  0.00    +0.000 OA
ATOM     19  H   UNL     1      -0.263   3.193  19.539  0.00  0.00    +0.000 HD
ENDBRANCH  17  18
ENDBRANCH  15  17
ENDBRANCH   5  15
ENDBRANCH   1   5
BRANCH   2  20
ATOM     20  C   UNL     1       1.516   8.851  19.858  0.00  0.00    +0.000 C 
BRANCH  20  21
ATOM     21  C   UNL     1       1.266   8.144  21.186  0.00  0.00    +0.000 C 
BRANCH  21  22
ATOM     22  C   UNL     1      -0.148   8.400  21.700  0.00  0.00    +0.000 C 
BRANCH  22  23
ATOM     23  C   UNL     1      -0.187   9.698  22.478  0.00  0.00    +0.000 C 
ATOM     24  O   UNL     1       0.297   9.743  23.606  0.00  0.00    +0.000 OA
ATOM     25  N   UNL     1      -0.873  10.712  21.829  0.00  0.00    +0.000 N 
ATOM     26  H   UNL     1      -1.363  10.473  20.976  0.00  0.00    +0.000 HD
BRANCH  25  27
ATOM     27  C   UNL     1      -1.064  12.027  22.311  0.00  0.00    +0.000 A 
ATOM     28  C   UNL     1      -0.181  13.075  22.026  0.00  0.00    +0.000 A 
ATOM     29  C   UNL     1      -0.378  14.354  22.546  0.00  0.00    +0.000 A 
ATOM     30  C   UNL     1      -1.474  14.593  23.370  0.00  0.00    +0.000 A 
ATOM     31  C   UNL     1      -2.388  13.565  23.653  0.00  0.00    +0.000 A 
ATOM     32  C   UNL     1      -2.192  12.289  23.101  0.00  0.00    +0.000 A 
ATOM     33  C   UNL     1      -3.585  13.923  24.499  0.00  0.00    +0.000 C 
ATOM     34  N   UNL     1      -3.261  14.746  25.673  0.00  0.00    +0.000 NA
ATOM     35  C   UNL     1      -2.169  15.713  25.460  0.00  0.00    +0.000 C 
ATOM     36  C   UNL     1      -1.728  15.933  24.005  0.00  0.00    +0.000 C 
ATOM     37  H   UNL     1      -2.992  14.130  26.439  0.00  0.00    +0.000 HD
ENDBRANCH  25  27
ENDBRANCH  22  23
ENDBRANCH  21  22
ENDBRANCH  20  21
ENDBRANCH   2  20
TORSDOF 10
ENDMDL
MODEL 5
REMARK VINA RESULT:      -8.1      2.682      4.736
REMARK  Name = 
REMARK  10 active torsions:
REMARK  status: ('A' for Active; 'I' for Inactive)
REMARK    1  A    between atoms: C_2  and  O_3
REMARK    2  A    between atoms: C_2  and  C_4
REMARK    3  A    between atoms: C_4  and  C_5
REMARK    4  A    between atoms: C_5  and  N_6
REMARK    5  A    between atoms: C_5  and  C_25
REMARK    6  A    between atoms: C_7  and  C_9
REMARK    7  A    between atoms: C_9  and  C_10
REMARK    8  A    between atoms: C_10  and  C_11
REMARK    9  A    between atoms: C_11  and  C_12
REMARK   10  A    between atoms: N_14  and  C_15
REMARK                            x       y       z     vdW  Elec       q    Type
REMARK                         _______ _______ _______ _____ _____    ______ ____
ROOT
ATOM      1  N   UNL     1       6.563   6.277  17.333  0.00  0.00    +0.000 N 
ATOM      2  C   UNL     1       7.516   6.979  18.031  0.00  0.00    +0.000 C 
ATOM      3  O   UNL     1       8.204   6.482  18.918  0.00  0.00    +0.000 OA
ATOM      4  H   UNL     1       5.923   6.779  16.728  0.00  0.00    +0.000 HD
ENDROOT
BRANCH   1   5
ATOM      5  C   UNL     1       6.375   4.827  17.454  0.00  0.00    +0.000 C 
BRANCH   5   6
ATOM      6  C   UNL     1       4.943   4.525  17.913  0.00  0.00    +0.000 A 
ATOM      7  C   UNL     1       4.100   3.699  17.124  0.00  0.00    +0.000 A 
ATOM      8  C   UNL     1       2.816   3.339  17.561  0.00  0.00    +0.000 A 
ATOM      9  C   UNL     1       2.389   3.821  18.779  0.00  0.00    +0.000 A 
ATOM     10  C   UNL     1       3.184   4.636  19.541  0.00  0.00    +0.000 A 
ATOM     11  C   UNL     1       4.447   5.005  19.140  0.00  0.00    +0.000 A 
ATOM     12  O   UNL     1       2.597   5.009  20.708  0.00  0.00    +0.000 OA
ATOM     13  C   UNL     1       1.339   4.315  20.606  0.00  0.00    +0.000 C 
ATOM     14  O   UNL     1       1.196   3.563  19.380  0.00  0.00    +0.000 OA
ENDBRANCH   5   6
BRANCH   5  15
ATOM     15  C   UNL     1       6.785   4.068  16.183  0.00  0.00    +0.000 C 
BRANCH  15  17
ATOM     16  O   UNL     1       7.825   5.506  14.568  0.00  0.00    +0.000 OA
ATOM     17  C   UNL     1       6.814   4.957  14.978  0.00  0.00    +0.000 C 
BRANCH  17  18
ATOM     18  O   UNL     1       5.614   5.099  14.374  0.00  0.00    +0.000 OA
ATOM     19  H   UNL     1       4.851   4.959  14.972  0.00  0.00    +0.000 HD
ENDBRANCH  17  18
ENDBRANCH  15  17
ENDBRANCH   5  15
ENDBRANCH   1   5
BRANCH   2  20
ATOM     20  C   UNL     1       7.617   8.448  17.680  0.00  0.00    +0.000 C 
BRANCH  20  21
ATOM     21  C   UNL     1       8.579   9.204  18.590  0.00  0.00    +0.000 C 
BRANCH  21  22
ATOM     22  C   UNL     1       9.407  10.221  17.810  0.00  0.00    +0.000 C 
BRANCH  22  23
ATOM     23  C   UNL     1       9.553  11.495  18.617  0.00  0.00    +0.000 C 
ATOM     24  O   UNL     1       8.990  11.591  19.704  0.00  0.00    +0.000 OA
ATOM     25  N   UNL     1      10.271  12.484  17.964  0.00  0.00    +0.000 N 
ATOM     26  H   UNL     1      10.529  12.314  17.000  0.00  0.00    +0.000 HD
BRANCH  25  27
ATOM     27  C   UNL     1      10.569  13.768  18.474  0.00  0.00    +0.000 A 
ATOM     28  C   UNL     1      11.436  13.972  19.553  0.00  0.00    +0.000 A 
ATOM     29  C   UNL     1      11.683  15.249  20.056  0.00  0.00    +0.000 A 
ATOM     30  C   UNL     1      11.050  16.344  19.476  0.00  0.00    +0.000 A 
ATOM     31  C   UNL     1      10.195  16.169  18.376  0.00  0.00    +0.000 A 
ATOM     32  C   UNL     1       9.976  14.881  17.863  0.00  0.00    +0.000 A 
ATOM     33  C   UNL     1       9.602  17.414  17.761  0.00  0.00    +0.000 C 
ATOM     34  N   UNL     1       9.089  18.378  18.745  0.00  0.00    +0.000 NA
ATOM     35  C   UNL     1       9.865  18.448  19.996  0.00  0.00    +0.000 C 
ATOM     36  C   UNL     1      11.231  17.746  19.991  0.00  0.00    +0.000 C 
ATOM     37  H   UNL     1       8.130  18.123  18.982  0.00  0.00    +0.000 HD
ENDBRANCH  25  27
ENDBRANCH  22  23
ENDBRANCH  21  22
ENDBRANCH  20  21
ENDBRANCH   2  20
TORSDOF 10
ENDMDL
MODEL 6
REMARK VINA RESULT:      -8.1      5.664      9.988
REMARK  Name = 
REMARK  10 active torsions:
REMARK  status: ('A' for Active; 'I' for Inactive)
REMARK    1  A    between atoms: C_2  and  O_3
REMARK    2  A    between atoms: C_2  and  C_4
REMARK    3  A    between atoms: C_4  and  C_5
REMARK    4  A    between atoms: C_5  and  N_6
REMARK    5  A    between atoms: C_5  and  C_25
REMARK    6  A    between atoms: C_7  and  C_9
REMARK    7  A    between atoms: C_9  and  C_10
REMARK    8  A    between atoms: C_10  and  C_11
REMARK    9  A    between atoms: C_11  and  C_12
REMARK   10  A    between atoms: N_14  and  C_15
REMARK                            x       y       z     vdW  Elec       q    Type
REMARK                         _______ _______ _______ _____ _____    ______ ____
ROOT
ATOM      1  N   UNL     1       2.139   6.210  19.641  0.00  0.00    +0.000 N 
ATOM      2  C   UNL     1       1.906   7.563  19.716  0.00  0.00    +0.000 C 
ATOM      3  O   UNL     1       1.998   8.316  18.751  0.00  0.00    +0.000 OA
ATOM      4  H   UNL     1       2.204   5.671  20.497  0.00  0.00    +0.000 HD
ENDROOT
BRANCH   1   5
ATOM      5  C   UNL     1       2.361   5.495  18.379  0.00  0.00    +0.000 C 
BRANCH   5   6
ATOM      6  C   UNL     1       3.854   5.196  18.206  0.00  0.00    +0.000 A 
ATOM      7  C   UNL     1       4.345   4.711  16.965  0.00  0.00    +0.000 A 
ATOM      8  C   UNL     1       5.718   4.508  16.754  0.00  0.00    +0.000 A 
ATOM      9  C   UNL     1       6.580   4.785  17.792  0.00  0.00    +0.000 A 
ATOM     10  C   UNL     1       6.118   5.232  19.002  0.00  0.00    +0.000 A 
ATOM     11  C   UNL     1       4.779   5.442  19.239  0.00  0.00    +0.000 A 
ATOM     12  O   UNL     1       7.112   5.453  19.901  0.00  0.00    +0.000 OA
ATOM     13  C   UNL     1       8.266   5.110  19.111  0.00  0.00    +0.000 C 
ATOM     14  O   UNL     1       7.936   4.677  17.771  0.00  0.00    +0.000 OA
ENDBRANCH   5   6
BRANCH   5  15
ATOM     15  C   UNL     1       1.465   4.255  18.236  0.00  0.00    +0.000 C 
BRANCH  15  17
ATOM     16  O   UNL     1       0.811   3.786  20.497  0.00  0.00    +0.000 OA
ATOM     17  C   UNL     1       1.418   3.443  19.495  0.00  0.00    +0.000 C 
BRANCH  17  18
ATOM     18  O   UNL     1       2.111   2.284  19.425  0.00  0.00    +0.000 OA
ATOM     19  H   UNL     1       1.873   1.638  20.122  0.00  0.00    +0.000 HD
ENDBRANCH  17  18
ENDBRANCH  15  17
ENDBRANCH   5  15
ENDBRANCH   1   5
BRANCH   2  20
ATOM     20  C   UNL     1       1.595   8.084  21.103  0.00  0.00    +0.000 C 
BRANCH  20  21
ATOM     21  C   UNL     1       0.108   8.356  21.306  0.00  0.00    +0.000 C 
BRANCH  21  22
ATOM     22  C   UNL     1      -0.143   9.188  22.561  0.00  0.00    +0.000 C 
BRANCH  22  23
ATOM     23  C   UNL     1      -0.761  10.517  22.182  0.00  0.00    +0.000 C 
ATOM     24  O   UNL     1      -0.716  10.896  21.015  0.00  0.00    +0.000 OA
ATOM     25  N   UNL     1      -1.255  11.226  23.266  0.00  0.00    +0.000 N 
ATOM     26  H   UNL     1      -1.067  10.858  24.189  0.00  0.00    +0.000 HD
BRANCH  25  27
ATOM     27  C   UNL     1      -1.888  12.489  23.214  0.00  0.00    +0.000 A 
ATOM     28  C   UNL     1      -1.176  13.690  23.119  0.00  0.00    +0.000 A 
ATOM     29  C   UNL     1      -1.828  14.923  23.106  0.00  0.00    +0.000 A 
ATOM     30  C   UNL     1      -3.217  14.960  23.195  0.00  0.00    +0.000 A 
ATOM     31  C   UNL     1      -3.956  13.769  23.266  0.00  0.00    +0.000 A 
ATOM     32  C   UNL     1      -3.289  12.533  23.251  0.00  0.00    +0.000 A 
ATOM     33  C   UNL     1      -5.460  13.892  23.290  0.00  0.00    +0.000 C 
ATOM     34  N   UNL     1      -5.958  14.936  24.198  0.00  0.00    +0.000 NA
ATOM     35  C   UNL     1      -5.098  16.130  24.287  0.00  0.00    +0.000 C 
ATOM     36  C   UNL     1      -3.988  16.251  23.233  0.00  0.00    +0.000 C 
ATOM     37  H   UNL     1      -6.046  14.540  25.133  0.00  0.00    +0.000 HD
ENDBRANCH  25  27
ENDBRANCH  22  23
ENDBRANCH  21  22
ENDBRANCH  20  21
ENDBRANCH   2  20
TORSDOF 10
ENDMDL
MODEL 7
REMARK VINA RESULT:      -8.0      5.268      9.021
REMARK  Name = 
REMARK  10 active torsions:
REMARK  status: ('A' for Active; 'I' for Inactive)
REMARK    1  A    between atoms: C_2  and  O_3
REMARK    2  A    between atoms: C_2  and  C_4
REMARK    3  A    between atoms: C_4  and  C_5
REMARK    4  A    between atoms: C_5  and  N_6
REMARK    5  A    between atoms: C_5  and  C_25
REMARK    6  A    between atoms: C_7  and  C_9
REMARK    7  A    between atoms: C_9  and  C_10
REMARK    8  A    between atoms: C_10  and  C_11
REMARK    9  A    between atoms: C_11  and  C_12
REMARK   10  A    between atoms: N_14  and  C_15
REMARK                            x       y       z     vdW  Elec       q    Type
REMARK                         _______ _______ _______ _____ _____    ______ ____
ROOT
ATOM      1  N   UNL     1       2.702   5.430  20.002  0.00  0.00    +0.000 N 
ATOM      2  C   UNL     1       2.274   6.616  19.455  0.00  0.00    +0.000 C 
ATOM      3  O   UNL     1       2.231   6.822  18.246  0.00  0.00    +0.000 OA
ATOM      4  H   UNL     1       2.865   5.377  21.001  0.00  0.00    +0.000 HD
ENDROOT
BRANCH   1   5
ATOM      5  C   UNL     1       2.998   4.232  19.209  0.00  0.00    +0.000 C 
BRANCH   5   6
ATOM      6  C   UNL     1       4.264   4.459  18.374  0.00  0.00    +0.000 A 
ATOM      7  C   UNL     1       5.502   4.724  19.015  0.00  0.00    +0.000 A 
ATOM      8  C   UNL     1       6.690   4.853  18.279  0.00  0.00    +0.000 A 
ATOM      9  C   UNL     1       6.620   4.724  16.909  0.00  0.00    +0.000 A 
ATOM     10  C   UNL     1       5.428   4.490  16.276  0.00  0.00    +0.000 A 
ATOM     11  C   UNL     1       4.247   4.357  16.970  0.00  0.00    +0.000 A 
ATOM     12  O   UNL     1       5.554   4.390  14.927  0.00  0.00    +0.000 OA
ATOM     13  C   UNL     1       6.975   4.571  14.779  0.00  0.00    +0.000 C 
ATOM     14  O   UNL     1       7.660   4.790  16.034  0.00  0.00    +0.000 OA
ENDBRANCH   5   6
BRANCH   5  15
ATOM     15  C   UNL     1       3.045   2.954  20.060  0.00  0.00    +0.000 C 
BRANCH  15  17
ATOM     16  O   UNL     1       2.360   3.053  22.358  0.00  0.00    +0.000 OA
ATOM     17  C   UNL     1       2.049   2.983  21.180  0.00  0.00    +0.000 C 
BRANCH  17  18
ATOM     18  O   UNL     1       0.762   2.927  20.769  0.00  0.00    +0.000 OA
ATOM     19  H   UNL     1       0.279   2.138  21.090  0.00  0.00    +0.000 HD
ENDBRANCH  17  18
ENDBRANCH  15  17
ENDBRANCH   5  15
ENDBRANCH   1   5
BRANCH   2  20
ATOM     20  C   UNL     1       1.921   7.694  20.457  0.00  0.00    +0.000 C 
BRANCH  20  21
ATOM     21  C   UNL     1       1.319   8.931  19.799  0.00  0.00    +0.000 C 
BRANCH  21  22
ATOM     22  C   UNL     1      -0.013   9.313  20.438  0.00  0.00    +0.000 C 
BRANCH  22  23
ATOM     23  C   UNL     1       0.170  10.525  21.327  0.00  0.00    +0.000 C 
ATOM     24  O   UNL     1       1.174  10.615  22.028  0.00  0.00    +0.000 OA
ATOM     25  N   UNL     1      -0.910  11.393  21.310  0.00  0.00    +0.000 N 
ATOM     26  H   UNL     1      -1.739  11.096  20.810  0.00  0.00    +0.000 HD
BRANCH  25  27
ATOM     27  C   UNL     1      -1.016  12.602  22.034  0.00  0.00    +0.000 A 
ATOM     28  C   UNL     1      -0.066  13.626  21.943  0.00  0.00    +0.000 A 
ATOM     29  C   UNL     1      -0.180  14.793  22.697  0.00  0.00    +0.000 A 
ATOM     30  C   UNL     1      -1.260  14.942  23.563  0.00  0.00    +0.000 A 
ATOM     31  C   UNL     1      -2.239  13.941  23.655  0.00  0.00    +0.000 A 
ATOM     32  C   UNL     1      -2.127  12.782  22.870  0.00  0.00    +0.000 A 
ATOM     33  C   UNL     1      -3.413  14.209  24.565  0.00  0.00    +0.000 C 
ATOM     34  N   UNL     1      -3.038  14.772  25.871  0.00  0.00    +0.000 NA
ATOM     35  C   UNL     1      -1.885  15.689  25.833  0.00  0.00    +0.000 C 
ATOM     36  C   UNL     1      -1.427  16.151  24.442  0.00  0.00    +0.000 C 
ATOM     37  H   UNL     1      -2.812  14.006  26.504  0.00  0.00    +0.000 HD
ENDBRANCH  25  27
ENDBRANCH  22  23
ENDBRANCH  21  22
ENDBRANCH  20  21
ENDBRANCH   2  20
TORSDOF 10
ENDMDL
MODEL 8
REMARK VINA RESULT:      -8.0      4.220      8.150
REMARK  Name = 
REMARK  10 active torsions:
REMARK  status: ('A' for Active; 'I' for Inactive)
REMARK    1  A    between atoms: C_2  and  O_3
REMARK    2  A    between atoms: C_2  and  C_4
REMARK    3  A    between atoms: C_4  and  C_5
REMARK    4  A    between atoms: C_5  and  N_6
REMARK    5  A    between atoms: C_5  and  C_25
REMARK    6  A    between atoms: C_7  and  C_9
REMARK    7  A    between atoms: C_9  and  C_10
REMARK    8  A    between atoms: C_10  and  C_11
REMARK    9  A    between atoms: C_11  and  C_12
REMARK   10  A    between atoms: N_14  and  C_15
REMARK                            x       y       z     vdW  Elec       q    Type
REMARK                         _______ _______ _______ _____ _____    ______ ____
ROOT
ATOM      1  N   UNL     1       4.928   4.462  17.178  0.00  0.00    +0.000 N 
ATOM      2  C   UNL     1       4.718   4.146  18.500  0.00  0.00    +0.000 C 
ATOM      3  O   UNL     1       5.554   4.337  19.378  0.00  0.00    +0.000 OA
ATOM      4  H   UNL     1       4.267   4.136  16.482  0.00  0.00    +0.000 HD
ENDROOT
BRANCH   1   5
ATOM      5  C   UNL     1       6.098   5.204  16.698  0.00  0.00    +0.000 C 
BRANCH   5   6
ATOM      6  C   UNL     1       6.378   4.845  15.234  0.00  0.00    +0.000 A 
ATOM      7  C   UNL     1       7.502   5.398  14.566  0.00  0.00    +0.000 A 
ATOM      8  C   UNL     1       7.827   5.022  13.254  0.00  0.00    +0.000 A 
ATOM      9  C   UNL     1       7.016   4.103  12.624  0.00  0.00    +0.000 A 
ATOM     10  C   UNL     1       5.916   3.578  13.250  0.00  0.00    +0.000 A 
ATOM     11  C   UNL     1       5.572   3.926  14.535  0.00  0.00    +0.000 A 
ATOM     12  O   UNL     1       5.240   2.688  12.476  0.00  0.00    +0.000 OA
ATOM     13  C   UNL     1       6.055   2.696  11.289  0.00  0.00    +0.000 C 
ATOM     14  O   UNL     1       7.183   3.598  11.372  0.00  0.00    +0.000 OA
ENDBRANCH   5   6
BRANCH   5  15
ATOM     15  C   UNL     1       5.985   6.716  16.949  0.00  0.00    +0.000 C 
BRANCH  15  17
ATOM     16  O   UNL     1       7.699   8.364  17.271  0.00  0.00    +0.000 OA
ATOM     17  C   UNL     1       7.225   7.280  17.572  0.00  0.00    +0.000 C 
BRANCH  17  18
ATOM     18  O   UNL     1       7.780   6.479  18.509  0.00  0.00    +0.000 OA
ATOM     19  H   UNL     1       7.641   6.789  19.428  0.00  0.00    +0.000 HD
ENDBRANCH  17  18
ENDBRANCH  15  17
ENDBRANCH   5  15
ENDBRANCH   1   5
BRANCH   2  20
ATOM     20  C   UNL     1       3.395   3.472  18.797  0.00  0.00    +0.000 C 
BRANCH  20  21
ATOM     21  C   UNL     1       3.433   2.647  20.079  0.00  0.00    +0.000 C 
BRANCH  21  22
ATOM     22  C   UNL     1       2.633   3.309  21.196  0.00  0.00    +0.000 C 
BRANCH  22  23
ATOM     23  C   UNL     1       1.867   4.496  20.648  0.00  0.00    +0.000 C 
ATOM     24  O   UNL     1       0.690   4.360  20.324  0.00  0.00    +0.000 OA
ATOM     25  N   UNL     1       2.645   5.631  20.489  0.00  0.00    +0.000 N 
ATOM     26  H   UNL     1       3.642   5.539  20.643  0.00  0.00    +0.000 HD
BRANCH  25  27
ATOM     27  C   UNL     1       2.201   6.882  20.006  0.00  0.00    +0.000 A 
ATOM     28  C   UNL     1       2.427   7.311  18.693  0.00  0.00    +0.000 A 
ATOM     29  C   UNL     1       2.007   8.567  18.255  0.00  0.00    +0.000 A 
ATOM     30  C   UNL     1       1.354   9.415  19.145  0.00  0.00    +0.000 A 
ATOM     31  C   UNL     1       1.093   9.000  20.461  0.00  0.00    +0.000 A 
ATOM     32  C   UNL     1       1.498   7.722  20.880  0.00  0.00    +0.000 A 
ATOM     33  C   UNL     1       0.320   9.951  21.342  0.00  0.00    +0.000 C 
ATOM     34  N   UNL     1       0.775  11.346  21.256  0.00  0.00    +0.000 NA
ATOM     35  C   UNL     1       1.234  11.758  19.917  0.00  0.00    +0.000 C 
ATOM     36  C   UNL     1       0.911  10.801  18.761  0.00  0.00    +0.000 C 
ATOM     37  H   UNL     1       1.546  11.479  21.909  0.00  0.00    +0.000 HD
ENDBRANCH  25  27
ENDBRANCH  22  23
ENDBRANCH  21  22
ENDBRANCH  20  21
ENDBRANCH   2  20
TORSDOF 10
ENDMDL
MODEL 9
REMARK VINA RESULT:      -8.0      4.917      7.392
REMARK  Name = 
REMARK  10 active torsions:
REMARK  status: ('A' for Active; 'I' for Inactive)
REMARK    1  A    between atoms: C_2  and  O_3
REMARK    2  A    between atoms: C_2  and  C_4
REMARK    3  A    between atoms: C_4  and  C_5
REMARK    4  A    between atoms: C_5  and  N_6
REMARK    5  A    between atoms: C_5  and  C_25
REMARK    6  A    between atoms: C_7  and  C_9
REMARK    7  A    between atoms: C_9  and  C_10
REMARK    8  A    between atoms: C_10  and  C_11
REMARK    9  A    between atoms: C_11  and  C_12
REMARK   10  A    between atoms: N_14  and  C_15
REMARK                            x       y       z     vdW  Elec       q    Type
REMARK                         _______ _______ _______ _____ _____    ______ ____
ROOT
ATOM      1  N   UNL     1       3.170   5.424  19.827  0.00  0.00    +0.000 N 
ATOM      2  C   UNL     1       2.394   6.419  19.280  0.00  0.00    +0.000 C 
ATOM      3  O   UNL     1       2.015   6.412  18.113  0.00  0.00    +0.000 OA
ATOM      4  H   UNL     1       3.580   5.565  20.743  0.00  0.00    +0.000 HD
ENDROOT
BRANCH   1   5
ATOM      5  C   UNL     1       3.492   4.174  19.131  0.00  0.00    +0.000 C 
BRANCH   5   6
ATOM      6  C   UNL     1       4.665   4.400  18.171  0.00  0.00    +0.000 A 
ATOM      7  C   UNL     1       5.975   4.603  18.679  0.00  0.00    +0.000 A 
ATOM      8  C   UNL     1       7.079   4.729  17.822  0.00  0.00    +0.000 A 
ATOM      9  C   UNL     1       6.854   4.660  16.464  0.00  0.00    +0.000 A 
ATOM     10  C   UNL     1       5.592   4.486  15.959  0.00  0.00    +0.000 A 
ATOM     11  C   UNL     1       4.491   4.358  16.774  0.00  0.00    +0.000 A 
ATOM     12  O   UNL     1       5.566   4.440  14.601  0.00  0.00    +0.000 OA
ATOM     13  C   UNL     1       6.968   4.586  14.304  0.00  0.00    +0.000 C 
ATOM     14  O   UNL     1       7.793   4.733  15.482  0.00  0.00    +0.000 OA
ENDBRANCH   5   6
BRANCH   5  15
ATOM     15  C   UNL     1       3.706   2.997  20.096  0.00  0.00    +0.000 C 
BRANCH  15  17
ATOM     16  O   UNL     1       2.637   2.440  22.171  0.00  0.00    +0.000 OA
ATOM     17  C   UNL     1       2.534   2.792  21.007  0.00  0.00    +0.000 C 
BRANCH  17  18
ATOM     18  O   UNL     1       1.339   3.036  20.423  0.00  0.00    +0.000 OA
ATOM     19  H   UNL     1       1.071   2.356  19.771  0.00  0.00    +0.000 HD
ENDBRANCH  17  18
ENDBRANCH  15  17
ENDBRANCH   5  15
ENDBRANCH   1   5
BRANCH   2  20
ATOM     20  C   UNL     1       2.092   7.579  20.205  0.00  0.00    +0.000 C 
BRANCH  20  21
ATOM     21  C   UNL     1       1.452   8.757  19.478  0.00  0.00    +0.000 C 
BRANCH  21  22
ATOM     22  C   UNL     1       0.490   9.519  20.384  0.00  0.00    +0.000 C 
BRANCH  22  23
ATOM     23  C   UNL     1       0.868  10.985  20.421  0.00  0.00    +0.000 C 
ATOM     24  O   UNL     1       0.971  11.558  21.502  0.00  0.00    +0.000 OA
ATOM     25  N   UNL     1       0.978  11.560  19.165  0.00  0.00    +0.000 N 
ATOM     26  H   UNL     1       0.698  11.000  18.369  0.00  0.00    +0.000 HD
BRANCH  25  27
ATOM     27  C   UNL     1       1.322  12.903  18.892  0.00  0.00    +0.000 A 
ATOM     28  C   UNL     1       2.611  13.294  18.513  0.00  0.00    +0.000 A 
ATOM     29  C   UNL     1       2.928  14.632  18.286  0.00  0.00    +0.000 A 
ATOM     30  C   UNL     1       1.943  15.603  18.444  0.00  0.00    +0.000 A 
ATOM     31  C   UNL     1       0.635  15.235  18.800  0.00  0.00    +0.000 A 
ATOM     32  C   UNL     1       0.323  13.881  19.000  0.00  0.00    +0.000 A 
ATOM     33  C   UNL     1      -0.391  16.339  18.884  0.00  0.00    +0.000 C 
ATOM     34  N   UNL     1       0.083  17.541  19.586  0.00  0.00    +0.000 NA
ATOM     35  C   UNL     1       1.510  17.847  19.380  0.00  0.00    +0.000 C 
ATOM     36  C   UNL     1       2.219  17.070  18.261  0.00  0.00    +0.000 C 
ATOM     37  H   UNL     1      -0.071  17.417  20.586  0.00  0.00    +0.000 HD
ENDBRANCH  25  27
ENDBRANCH  22  23
ENDBRANCH  21  22
ENDBRANCH  20  21
ENDBRANCH   2  20
TORSDOF 10
ENDMDL
