MODEL 1
REMARK VINA RESULT:      -8.1      0.000      0.000
REMARK  Name = 
REMARK  10 active torsions:
REMARK  status: ('A' for Active; 'I' for Inactive)
REMARK    1  A    between atoms: C_1  and  C_2
REMARK    2  A    between atoms: C_4  and  C_5
REMARK    3  A    between atoms: C_7  and  N_8
REMARK    4  A    between atoms: N_8  and  C_9
REMARK    5  A    between atoms: C_9  and  C_10
REMARK    6  A    between atoms: N_12  and  C_13
REMARK    7  A    between atoms: C_13  and  C_14
REMARK    8  A    between atoms: C_21  and  C_23
REMARK    9  A    between atoms: C_23  and  C_24
REMARK   10  A    between atoms: C_24  and  C_25
REMARK                            x       y       z     vdW  Elec       q    Type
REMARK                         _______ _______ _______ _____ _____    ______ ____
ROOT
ATOM      1  N   UNL     1      -0.415  10.744  18.660  0.00  0.00    +0.000 N 
ATOM      2  C   UNL     1       0.808  10.084  18.841  0.00  0.00    +0.000 C 
ATOM      3  O   UNL     1       1.518  10.255  19.837  0.00  0.00    +0.000 OA
ENDROOT
BRANCH   1  10
ATOM      4  C   UNL     1      -2.345  12.164  23.007  0.00  0.00    +0.000 C 
ATOM      5  C   UNL     1      -1.800  12.544  21.660  0.00  0.00    +0.000 A 
ATOM      6  C   UNL     1      -1.647  13.879  21.290  0.00  0.00    +0.000 A 
ATOM      7  C   UNL     1      -1.016  14.201  20.080  0.00  0.00    +0.000 A 
ATOM      8  C   UNL     1      -0.939  15.634  19.635  0.00  0.00    +0.000 C 
ATOM      9  C   UNL     1      -0.525  13.166  19.249  0.00  0.00    +0.000 A 
ATOM     10  C   UNL     1      -0.777  11.817  19.553  0.00  0.00    +0.000 A 
ATOM     11  C   UNL     1      -1.416  11.536  20.766  0.00  0.00    +0.000 A 
ENDBRANCH   1  10
BRANCH   1  12
ATOM     12  C   UNL     1      -1.192  10.668  17.399  0.00  0.00    +0.000 C 
BRANCH  12  13
ATOM     13  C   UNL     1      -2.721  10.566  17.420  0.00  0.00    +0.000 C 
ATOM     14  O   UNL     1      -3.268   9.533  17.810  0.00  0.00    +0.000 OA
ATOM     15  N   UNL     1      -3.434  11.720  17.174  0.00  0.00    +0.000 N 
ATOM     16  H   UNL     1      -2.967  12.502  16.731  0.00  0.00    +0.000 HD
BRANCH  15  17
ATOM     17  C   UNL     1      -4.882  11.664  17.132  0.00  0.00    +0.000 C 
BRANCH  17  18
ATOM     18  C   UNL     1      -5.558  11.752  18.479  0.00  0.00    +0.000 A 
ATOM     19  C   UNL     1      -4.856  12.332  19.554  0.00  0.00    +0.000 A 
ATOM     20  C   UNL     1      -5.461  12.490  20.803  0.00  0.00    +0.000 A 
ATOM     21  C   UNL     1      -6.775  12.080  20.981  0.00  0.00    +0.000 A 
ATOM     22  F   UNL     1      -7.355  12.228  22.179  0.00  0.00    +0.000 F 
ATOM     23  C   UNL     1      -7.496  11.525  19.931  0.00  0.00    +0.000 A 
ATOM     24  C   UNL     1      -6.893  11.369  18.680  0.00  0.00    +0.000 A 
ENDBRANCH  17  18
ENDBRANCH  15  17
ENDBRANCH  12  13
ENDBRANCH   1  12
BRANCH   2  25
ATOM     25  C   UNL     1       1.258   9.063  17.788  0.00  0.00    +0.000 C 
BRANCH  25  26
ATOM     26  C   UNL     1       2.605   8.434  18.135  0.00  0.00    +0.000 C 
BRANCH  26  27
ATOM     27  C   UNL     1       2.372   7.111  18.840  0.00  0.00    +0.000 C 
ATOM     28  O   UNL     1       2.269   7.092  20.063  0.00  0.00    +0.000 OA
ATOM     29  N   UNL     1       2.424   6.029  17.987  0.00  0.00    +0.000 N 
ATOM     30  C   UNL     1       2.139   4.720  18.383  0.00  0.00    +0.000 A 
ATOM     31  C   UNL     1       2.462   3.675  17.515  0.00  0.00    +0.000 A 
ATOM     32  C   UNL     1       2.161   2.368  17.886  0.00  0.00    +0.000 A 
ATOM     33  C   UNL     1       1.537   2.137  19.101  0.00  0.00    +0.000 A 
ATOM     34  C   UNL     1       1.244   3.219  19.897  0.00  0.00    +0.000 A 
ATOM     35  N   UNL     1       1.540   4.486  19.564  0.00  0.00    +0.000 NA
ATOM     36  H   UNL     1       2.786   6.171  17.051  0.00  0.00    +0.000 HD
ENDBRANCH  26  27
ENDBRANCH  25  26
ENDBRANCH   2  25
TORSDOF 8
ENDMDL
MODEL 2
REMARK VINA RESULT:      -7.9      2.575      4.328
REMARK  Name = 
REMARK  10 active torsions:
REMARK  status: ('A' for Active; 'I' for Inactive)
REMARK    1  A    between atoms: C_1  and  C_2
REMARK    2  A    between atoms: C_4  and  C_5
REMARK    3  A    between atoms: C_7  and  N_8
REMARK    4  A    between atoms: N_8  and  C_9
REMARK    5  A    between atoms: C_9  and  C_10
REMARK    6  A    between atoms: N_12  and  C_13
REMARK    7  A    between atoms: C_13  and  C_14
REMARK    8  A    between atoms: C_21  and  C_23
REMARK    9  A    between atoms: C_23  and  C_24
REMARK   10  A    between atoms: C_24  and  C_25
REMARK                            x       y       z     vdW  Elec       q    Type
REMARK                         _______ _______ _______ _____ _____    ______ ____
ROOT
ATOM      1  N   UNL     1       0.738   9.050  20.389  0.00  0.00    +0.000 N 
ATOM      2  C   UNL     1       1.667   8.180  19.801  0.00  0.00    +0.000 C 
ATOM      3  O   UNL     1       2.201   8.410  18.712  0.00  0.00    +0.000 OA
ENDROOT
BRANCH   1  10
ATOM      4  C   UNL     1       1.383  13.631  18.588  0.00  0.00    +0.000 C 
ATOM      5  C   UNL     1       0.482  12.445  18.786  0.00  0.00    +0.000 A 
ATOM      6  C   UNL     1      -0.801  12.410  18.245  0.00  0.00    +0.000 A 
ATOM      7  C   UNL     1      -1.568  11.240  18.337  0.00  0.00    +0.000 A 
ATOM      8  C   UNL     1      -2.986  11.234  17.841  0.00  0.00    +0.000 C 
ATOM      9  C   UNL     1      -1.025  10.095  18.967  0.00  0.00    +0.000 A 
ATOM     10  C   UNL     1       0.218  10.153  19.619  0.00  0.00    +0.000 A 
ATOM     11  C   UNL     1       0.950  11.341  19.512  0.00  0.00    +0.000 A 
ENDBRANCH   1  10
BRANCH   1  12
ATOM     12  C   UNL     1      -0.025   8.705  21.614  0.00  0.00    +0.000 C 
BRANCH  12  13
ATOM     13  C   UNL     1      -0.335   9.767  22.674  0.00  0.00    +0.000 C 
ATOM     14  O   UNL     1       0.314   9.808  23.719  0.00  0.00    +0.000 OA
ATOM     15  N   UNL     1      -1.220  10.765  22.327  0.00  0.00    +0.000 N 
ATOM     16  H   UNL     1      -1.829  10.629  21.529  0.00  0.00    +0.000 HD
BRANCH  15  17
ATOM     17  C   UNL     1      -1.586  11.764  23.313  0.00  0.00    +0.000 C 
BRANCH  17  18
ATOM     18  C   UNL     1      -2.975  12.333  23.149  0.00  0.00    +0.000 A 
ATOM     19  C   UNL     1      -3.423  12.671  21.857  0.00  0.00    +0.000 A 
ATOM     20  C   UNL     1      -4.720  13.144  21.650  0.00  0.00    +0.000 A 
ATOM     21  C   UNL     1      -5.581  13.272  22.732  0.00  0.00    +0.000 A 
ATOM     22  F   UNL     1      -6.824  13.730  22.535  0.00  0.00    +0.000 F 
ATOM     23  C   UNL     1      -5.170  12.926  24.014  0.00  0.00    +0.000 A 
ATOM     24  C   UNL     1      -3.873  12.449  24.222  0.00  0.00    +0.000 A 
ENDBRANCH  17  18
ENDBRANCH  15  17
ENDBRANCH  12  13
ENDBRANCH   1  12
BRANCH   2  25
ATOM     25  C   UNL     1       2.083   6.918  20.568  0.00  0.00    +0.000 C 
BRANCH  25  26
ATOM     26  C   UNL     1       1.561   5.644  19.907  0.00  0.00    +0.000 C 
BRANCH  26  27
ATOM     27  C   UNL     1       2.551   5.187  18.853  0.00  0.00    +0.000 C 
ATOM     28  O   UNL     1       2.139   4.586  17.864  0.00  0.00    +0.000 OA
ATOM     29  N   UNL     1       3.863   5.410  19.212  0.00  0.00    +0.000 N 
ATOM     30  C   UNL     1       4.946   5.168  18.364  0.00  0.00    +0.000 A 
ATOM     31  C   UNL     1       6.233   5.188  18.904  0.00  0.00    +0.000 A 
ATOM     32  C   UNL     1       7.323   4.973  18.067  0.00  0.00    +0.000 A 
ATOM     33  C   UNL     1       7.106   4.757  16.715  0.00  0.00    +0.000 A 
ATOM     34  C   UNL     1       5.810   4.760  16.258  0.00  0.00    +0.000 A 
ATOM     35  N   UNL     1       4.743   4.950  17.053  0.00  0.00    +0.000 NA
ATOM     36  H   UNL     1       4.062   5.665  20.172  0.00  0.00    +0.000 HD
ENDBRANCH  26  27
ENDBRANCH  25  26
ENDBRANCH   2  25
TORSDOF 8
ENDMDL
MODEL 3
REMARK VINA RESULT:      -7.8      1.991      2.602
REMARK  Name = 
REMARK  10 active torsions:
REMARK  status: ('A' for Active; 'I' for Inactive)
REMARK    1  A    between atoms: C_1  and  C_2
REMARK    2  A    between atoms: C_4  and  C_5
REMARK    3  A    between atoms: C_7  and  N_8
REMARK    4  A    between atoms: N_8  and  C_9
REMARK    5  A    between atoms: C_9  and  C_10
REMARK    6  A    between atoms: N_12  and  C_13
REMARK    7  A    between atoms: C_13  and  C_14
REMARK    8  A    between atoms: C_21  and  C_23
REMARK    9  A    between atoms: C_23  and  C_24
REMARK   10  A    between atoms: C_24  and  C_25
REMARK                            x       y       z     vdW  Elec       q    Type
REMARK                         _______ _______ _______ _____ _____    ______ ____
ROOT
ATOM      1  N   UNL     1       0.098  10.469  20.481  0.00  0.00    +0.000 N 
ATOM      2  C   UNL     1       0.886   9.453  21.038  0.00  0.00    +0.000 C 
ATOM      3  O   UNL     1       1.074   9.342  22.253  0.00  0.00    +0.000 OA
ENDROOT
BRANCH   1  10
ATOM      4  C   UNL     1      -3.253  12.239  23.687  0.00  0.00    +0.000 C 
ATOM      5  C   UNL     1      -2.035  12.478  22.843  0.00  0.00    +0.000 A 
ATOM      6  C   UNL     1      -1.361  13.698  22.871  0.00  0.00    +0.000 A 
ATOM      7  C   UNL     1      -0.155  13.847  22.171  0.00  0.00    +0.000 A 
ATOM      8  C   UNL     1       0.520  15.189  22.121  0.00  0.00    +0.000 C 
ATOM      9  C   UNL     1       0.377  12.750  21.452  0.00  0.00    +0.000 A 
ATOM     10  C   UNL     1      -0.349  11.555  21.320  0.00  0.00    +0.000 A 
ATOM     11  C   UNL     1      -1.552  11.447  22.026  0.00  0.00    +0.000 A 
ENDBRANCH   1  10
BRANCH   1  12
ATOM     12  C   UNL     1      -0.000  10.704  19.019  0.00  0.00    +0.000 C 
BRANCH  12  13
ATOM     13  C   UNL     1      -1.188  11.467  18.422  0.00  0.00    +0.000 C 
ATOM     14  O   UNL     1      -1.058  12.640  18.073  0.00  0.00    +0.000 OA
ATOM     15  N   UNL     1      -2.319  10.738  18.125  0.00  0.00    +0.000 N 
ATOM     16  H   UNL     1      -2.441   9.824  18.543  0.00  0.00    +0.000 HD
BRANCH  15  17
ATOM     17  C   UNL     1      -3.488  11.423  17.608  0.00  0.00    +0.000 C 
BRANCH  17  18
ATOM     18  C   UNL     1      -4.607  11.605  18.605  0.00  0.00    +0.000 A 
ATOM     19  C   UNL     1      -5.813  10.904  18.408  0.00  0.00    +0.000 A 
ATOM     20  C   UNL     1      -6.853  10.994  19.335  0.00  0.00    +0.000 A 
ATOM     21  C   UNL     1      -6.690  11.776  20.470  0.00  0.00    +0.000 A 
ATOM     22  F   UNL     1      -7.689  11.865  21.359  0.00  0.00    +0.000 F 
ATOM     23  C   UNL     1      -5.502  12.460  20.699  0.00  0.00    +0.000 A 
ATOM     24  C   UNL     1      -4.459  12.369  19.773  0.00  0.00    +0.000 A 
ENDBRANCH  17  18
ENDBRANCH  15  17
ENDBRANCH  12  13
ENDBRANCH   1  12
BRANCH   2  25
ATOM     25  C   UNL     1       1.495   8.398  20.105  0.00  0.00    +0.000 C 
BRANCH  25  26
ATOM     26  C   UNL     1       1.512   7.009  20.739  0.00  0.00    +0.000 C 
BRANCH  26  27
ATOM     27  C   UNL     1       2.373   6.086  19.898  0.00  0.00    +0.000 C 
ATOM     28  O   UNL     1       2.547   4.927  20.265  0.00  0.00    +0.000 OA
ATOM     29  N   UNL     1       2.976   6.729  18.838  0.00  0.00    +0.000 N 
ATOM     30  C   UNL     1       3.731   6.069  17.864  0.00  0.00    +0.000 A 
ATOM     31  C   UNL     1       4.500   6.834  16.985  0.00  0.00    +0.000 A 
ATOM     32  C   UNL     1       5.237   6.192  15.995  0.00  0.00    +0.000 A 
ATOM     33  C   UNL     1       5.182   4.811  15.899  0.00  0.00    +0.000 A 
ATOM     34  C   UNL     1       4.396   4.128  16.798  0.00  0.00    +0.000 A 
ATOM     35  N   UNL     1       3.689   4.728  17.769  0.00  0.00    +0.000 NA
ATOM     36  H   UNL     1       2.959   7.742  18.816  0.00  0.00    +0.000 HD
ENDBRANCH  26  27
ENDBRANCH  25  26
ENDBRANCH   2  25
TORSDOF 8
ENDMDL
MODEL 4
REMARK VINA RESULT:      -7.7      3.165      8.536
REMARK  Name = 
REMARK  10 active torsions:
REMARK  status: ('A' for Active; 'I' for Inactive)
REMARK    1  A    between atoms: C_1  and  C_2
REMARK    2  A    between atoms: C_4  and  C_5
REMARK    3  A    between atoms: C_7  and  N_8
REMARK    4  A    between atoms: N_8  and  C_9
REMARK    5  A    between atoms: C_9  and  C_10
REMARK    6  A    between atoms: N_12  and  C_13
REMARK    7  A    between atoms: C_13  and  C_14
REMARK    8  A    between atoms: C_21  and  C_23
REMARK    9  A    between atoms: C_23  and  C_24
REMARK   10  A    between atoms: C_24  and  C_25
REMARK                            x       y       z     vdW  Elec       q    Type
REMARK                         _______ _______ _______ _____ _____    ______ ____
ROOT
ATOM      1  N   UNL     1       0.560  11.258  18.921  0.00  0.00    +0.000 N 
ATOM      2  C   UNL     1      -0.715  11.423  18.365  0.00  0.00    +0.000 C 
ATOM      3  O   UNL     1      -1.137  12.514  17.970  0.00  0.00    +0.000 OA
ENDROOT
BRANCH   1  10
ATOM      4  C   UNL     1       1.458  15.033  22.017  0.00  0.00    +0.000 C 
ATOM      5  C   UNL     1       1.755  14.342  20.717  0.00  0.00    +0.000 A 
ATOM      6  C   UNL     1       2.751  14.806  19.860  0.00  0.00    +0.000 A 
ATOM      7  C   UNL     1       3.091  14.066  18.718  0.00  0.00    +0.000 A 
ATOM      8  C   UNL     1       4.094  14.614  17.743  0.00  0.00    +0.000 C 
ATOM      9  C   UNL     1       2.429  12.844  18.453  0.00  0.00    +0.000 A 
ATOM     10  C   UNL     1       1.346  12.425  19.244  0.00  0.00    +0.000 A 
ATOM     11  C   UNL     1       1.031  13.194  20.369  0.00  0.00    +0.000 A 
ENDBRANCH   1  10
BRANCH   1  12
ATOM     12  C   UNL     1       1.011   9.989  19.543  0.00  0.00    +0.000 C 
BRANCH  12  13
ATOM     13  C   UNL     1       1.768   8.936  18.726  0.00  0.00    +0.000 C 
ATOM     14  O   UNL     1       2.094   9.172  17.562  0.00  0.00    +0.000 OA
ATOM     15  N   UNL     1       2.222   7.822  19.398  0.00  0.00    +0.000 N 
ATOM     16  H   UNL     1       1.827   7.598  20.304  0.00  0.00    +0.000 HD
BRANCH  15  17
ATOM     17  C   UNL     1       2.897   6.773  18.659  0.00  0.00    +0.000 C 
BRANCH  17  18
ATOM     18  C   UNL     1       2.247   5.414  18.755  0.00  0.00    +0.000 A 
ATOM     19  C   UNL     1       2.379   4.520  17.674  0.00  0.00    +0.000 A 
ATOM     20  C   UNL     1       1.846   3.231  17.742  0.00  0.00    +0.000 A 
ATOM     21  C   UNL     1       1.189   2.824  18.894  0.00  0.00    +0.000 A 
ATOM     22  F   UNL     1       0.674   1.589  18.958  0.00  0.00    +0.000 F 
ATOM     23  C   UNL     1       1.063   3.680  19.983  0.00  0.00    +0.000 A 
ATOM     24  C   UNL     1       1.599   4.969  19.917  0.00  0.00    +0.000 A 
ENDBRANCH  17  18
ENDBRANCH  15  17
ENDBRANCH  12  13
ENDBRANCH   1  12
BRANCH   2  25
ATOM     25  C   UNL     1      -1.605  10.186  18.184  0.00  0.00    +0.000 C 
BRANCH  25  26
ATOM     26  C   UNL     1      -2.264  10.147  16.807  0.00  0.00    +0.000 C 
BRANCH  26  27
ATOM     27  C   UNL     1      -3.558  10.937  16.850  0.00  0.00    +0.000 C 
ATOM     28  O   UNL     1      -4.066  11.315  15.798  0.00  0.00    +0.000 OA
ATOM     29  N   UNL     1      -3.959  11.247  18.132  0.00  0.00    +0.000 N 
ATOM     30  C   UNL     1      -5.169  11.878  18.431  0.00  0.00    +0.000 A 
ATOM     31  C   UNL     1      -5.364  12.368  19.723  0.00  0.00    +0.000 A 
ATOM     32  C   UNL     1      -6.574  12.977  20.042  0.00  0.00    +0.000 A 
ATOM     33  C   UNL     1      -7.560  13.070  19.073  0.00  0.00    +0.000 A 
ATOM     34  C   UNL     1      -7.295  12.556  17.826  0.00  0.00    +0.000 A 
ATOM     35  N   UNL     1      -6.128  11.979  17.494  0.00  0.00    +0.000 NA
ATOM     36  H   UNL     1      -3.300  11.105  18.890  0.00  0.00    +0.000 HD
ENDBRANCH  26  27
ENDBRANCH  25  26
ENDBRANCH   2  25
TORSDOF 8
ENDMDL
MODEL 5
REMARK VINA RESULT:      -7.7      2.562      4.214
REMARK  Name = 
REMARK  10 active torsions:
REMARK  status: ('A' for Active; 'I' for Inactive)
REMARK    1  A    between atoms: C_1  and  C_2
REMARK    2  A    between atoms: C_4  and  C_5
REMARK    3  A    between atoms: C_7  and  N_8
REMARK    4  A    between atoms: N_8  and  C_9
REMARK    5  A    between atoms: C_9  and  C_10
REMARK    6  A    between atoms: N_12  and  C_13
REMARK    7  A    between atoms: C_13  and  C_14
REMARK    8  A    between atoms: C_21  and  C_23
REMARK    9  A    between atoms: C_23  and  C_24
REMARK   10  A    between atoms: C_24  and  C_25
REMARK                            x       y       z     vdW  Elec       q    Type
REMARK                         _______ _______ _______ _____ _____    ______ ____
ROOT
ATOM      1  N   UNL     1       0.985   9.163  20.174  0.00  0.00    +0.000 N 
ATOM      2  C   UNL     1       1.834   8.358  19.404  0.00  0.00    +0.000 C 
ATOM      3  O   UNL     1       2.265   8.704  18.301  0.00  0.00    +0.000 OA
ENDROOT
BRANCH   1  10
ATOM      4  C   UNL     1      -2.824  11.320  17.832  0.00  0.00    +0.000 C 
ATOM      5  C   UNL     1      -1.421  11.418  18.360  0.00  0.00    +0.000 A 
ATOM      6  C   UNL     1      -0.701  12.609  18.290  0.00  0.00    +0.000 A 
ATOM      7  C   UNL     1       0.555  12.703  18.906  0.00  0.00    +0.000 A 
ATOM      8  C   UNL     1       1.373  13.954  18.747  0.00  0.00    +0.000 C 
ATOM      9  C   UNL     1       1.076  11.591  19.609  0.00  0.00    +0.000 A 
ATOM     10  C   UNL     1       0.415  10.352  19.588  0.00  0.00    +0.000 A 
ATOM     11  C   UNL     1      -0.832  10.294  18.956  0.00  0.00    +0.000 A 
ENDBRANCH   1  10
BRANCH   1  12
ATOM     12  C   UNL     1       0.336   8.688  21.422  0.00  0.00    +0.000 C 
BRANCH  12  13
ATOM     13  C   UNL     1      -0.045   9.671  22.534  0.00  0.00    +0.000 C 
ATOM     14  O   UNL     1       0.606   9.707  23.579  0.00  0.00    +0.000 OA
ATOM     15  N   UNL     1      -1.003  10.616  22.240  0.00  0.00    +0.000 N 
ATOM     16  H   UNL     1      -1.605  10.475  21.437  0.00  0.00    +0.000 HD
BRANCH  15  17
ATOM     17  C   UNL     1      -1.436  11.535  23.275  0.00  0.00    +0.000 C 
BRANCH  17  18
ATOM     18  C   UNL     1      -2.735  12.248  22.984  0.00  0.00    +0.000 A 
ATOM     19  C   UNL     1      -3.025  12.616  21.656  0.00  0.00    +0.000 A 
ATOM     20  C   UNL     1      -4.239  13.224  21.330  0.00  0.00    +0.000 A 
ATOM     21  C   UNL     1      -5.175  13.457  22.328  0.00  0.00    +0.000 A 
ATOM     22  F   UNL     1      -6.339  14.043  22.017  0.00  0.00    +0.000 F 
ATOM     23  C   UNL     1      -4.922  13.084  23.643  0.00  0.00    +0.000 A 
ATOM     24  C   UNL     1      -3.708  12.473  23.970  0.00  0.00    +0.000 A 
ENDBRANCH  17  18
ENDBRANCH  15  17
ENDBRANCH  12  13
ENDBRANCH   1  12
BRANCH   2  25
ATOM     25  C   UNL     1       2.297   7.013  19.980  0.00  0.00    +0.000 C 
BRANCH  25  26
ATOM     26  C   UNL     1       1.683   5.827  19.239  0.00  0.00    +0.000 C 
BRANCH  26  27
ATOM     27  C   UNL     1       2.778   5.071  18.512  0.00  0.00    +0.000 C 
ATOM     28  O   UNL     1       2.744   3.844  18.485  0.00  0.00    +0.000 OA
ATOM     29  N   UNL     1       3.785   5.891  18.050  0.00  0.00    +0.000 N 
ATOM     30  C   UNL     1       4.847   5.440  17.263  0.00  0.00    +0.000 A 
ATOM     31  C   UNL     1       5.935   6.291  17.060  0.00  0.00    +0.000 A 
ATOM     32  C   UNL     1       6.989   5.864  16.259  0.00  0.00    +0.000 A 
ATOM     33  C   UNL     1       6.928   4.611  15.670  0.00  0.00    +0.000 A 
ATOM     34  C   UNL     1       5.819   3.835  15.912  0.00  0.00    +0.000 A 
ATOM     35  N   UNL     1       4.798   4.223  16.695  0.00  0.00    +0.000 NA
ATOM     36  H   UNL     1       3.815   6.849  18.380  0.00  0.00    +0.000 HD
ENDBRANCH  26  27
ENDBRANCH  25  26
ENDBRANCH   2  25
TORSDOF 8
ENDMDL
MODEL 6
REMARK VINA RESULT:      -7.7      2.497      3.958
REMARK  Name = 
REMARK  10 active torsions:
REMARK  status: ('A' for Active; 'I' for Inactive)
REMARK    1  A    between atoms: C_1  and  C_2
REMARK    2  A    between atoms: C_4  and  C_5
REMARK    3  A    between atoms: C_7  and  N_8
REMARK    4  A    between atoms: N_8  and  C_9
REMARK    5  A    between atoms: C_9  and  C_10
REMARK    6  A    between atoms: N_12  and  C_13
REMARK    7  A    between atoms: C_13  and  C_14
REMARK    8  A    between atoms: C_21  and  C_23
REMARK    9  A    between atoms: C_23  and  C_24
REMARK   10  A    between atoms: C_24  and  C_25
REMARK                            x       y       z     vdW  Elec       q    Type
REMARK                         _______ _______ _______ _____ _____    ______ ____
ROOT
ATOM      1  N   UNL     1       1.122   9.513  19.363  0.00  0.00    +0.000 N 
ATOM      2  C   UNL     1       1.947   9.017  18.345  0.00  0.00    +0.000 C 
ATOM      3  O   UNL     1       1.922   9.455  17.191  0.00  0.00    +0.000 OA
ENDROOT
BRANCH   1  10
ATOM      4  C   UNL     1      -0.572  14.177  19.209  0.00  0.00    +0.000 C 
ATOM      5  C   UNL     1      -0.832  12.711  19.015  0.00  0.00    +0.000 A 
ATOM      6  C   UNL     1      -2.052  12.249  18.526  0.00  0.00    +0.000 A 
ATOM      7  C   UNL     1      -2.219  10.888  18.234  0.00  0.00    +0.000 A 
ATOM      8  C   UNL     1      -3.563  10.375  17.800  0.00  0.00    +0.000 C 
ATOM      9  C   UNL     1      -1.139   9.994  18.425  0.00  0.00    +0.000 A 
ATOM     10  C   UNL     1       0.055  10.425  19.027  0.00  0.00    +0.000 A 
ATOM     11  C   UNL     1       0.181  11.789  19.311  0.00  0.00    +0.000 A 
ENDBRANCH   1  10
BRANCH   1  12
ATOM     12  C   UNL     1       1.032   8.886  20.705  0.00  0.00    +0.000 C 
BRANCH  12  13
ATOM     13  C   UNL     1      -0.123   9.221  21.655  0.00  0.00    +0.000 C 
ATOM     14  O   UNL     1      -0.947   8.358  21.958  0.00  0.00    +0.000 OA
ATOM     15  N   UNL     1      -0.084  10.446  22.287  0.00  0.00    +0.000 N 
ATOM     16  H   UNL     1       0.519  11.172  21.919  0.00  0.00    +0.000 HD
BRANCH  15  17
ATOM     17  C   UNL     1      -1.181  10.831  23.155  0.00  0.00    +0.000 C 
BRANCH  17  18
ATOM     18  C   UNL     1      -1.800  12.170  22.833  0.00  0.00    +0.000 A 
ATOM     19  C   UNL     1      -1.076  13.342  23.129  0.00  0.00    +0.000 A 
ATOM     20  C   UNL     1      -1.582  14.599  22.796  0.00  0.00    +0.000 A 
ATOM     21  C   UNL     1      -2.809  14.693  22.154  0.00  0.00    +0.000 A 
ATOM     22  F   UNL     1      -3.297  15.900  21.837  0.00  0.00    +0.000 F 
ATOM     23  C   UNL     1      -3.534  13.552  21.832  0.00  0.00    +0.000 A 
ATOM     24  C   UNL     1      -3.027  12.291  22.163  0.00  0.00    +0.000 A 
ENDBRANCH  17  18
ENDBRANCH  15  17
ENDBRANCH  12  13
ENDBRANCH   1  12
BRANCH   2  25
ATOM     25  C   UNL     1       2.966   7.923  18.689  0.00  0.00    +0.000 C 
BRANCH  25  26
ATOM     26  C   UNL     1       3.727   7.436  17.458  0.00  0.00    +0.000 C 
BRANCH  26  27
ATOM     27  C   UNL     1       3.718   5.920  17.432  0.00  0.00    +0.000 C 
ATOM     28  O   UNL     1       4.582   5.326  16.794  0.00  0.00    +0.000 OA
ATOM     29  N   UNL     1       2.619   5.376  18.062  0.00  0.00    +0.000 N 
ATOM     30  C   UNL     1       2.442   4.004  18.256  0.00  0.00    +0.000 A 
ATOM     31  C   UNL     1       1.191   3.545  18.675  0.00  0.00    +0.000 A 
ATOM     32  C   UNL     1       1.008   2.184  18.896  0.00  0.00    +0.000 A 
ATOM     33  C   UNL     1       2.073   1.319  18.709  0.00  0.00    +0.000 A 
ATOM     34  C   UNL     1       3.276   1.848  18.303  0.00  0.00    +0.000 A 
ATOM     35  N   UNL     1       3.469   3.156  18.069  0.00  0.00    +0.000 NA
ATOM     36  H   UNL     1       1.851   5.991  18.306  0.00  0.00    +0.000 HD
ENDBRANCH  26  27
ENDBRANCH  25  26
ENDBRANCH   2  25
TORSDOF 8
ENDMDL
MODEL 7
REMARK VINA RESULT:      -7.7      1.920      2.459
REMARK  Name = 
REMARK  10 active torsions:
REMARK  status: ('A' for Active; 'I' for Inactive)
REMARK    1  A    between atoms: C_1  and  C_2
REMARK    2  A    between atoms: C_4  and  C_5
REMARK    3  A    between atoms: C_7  and  N_8
REMARK    4  A    between atoms: N_8  and  C_9
REMARK    5  A    between atoms: C_9  and  C_10
REMARK    6  A    between atoms: N_12  and  C_13
REMARK    7  A    between atoms: C_13  and  C_14
REMARK    8  A    between atoms: C_21  and  C_23
REMARK    9  A    between atoms: C_23  and  C_24
REMARK   10  A    between atoms: C_24  and  C_25
REMARK                            x       y       z     vdW  Elec       q    Type
REMARK                         _______ _______ _______ _____ _____    ______ ____
ROOT
ATOM      1  N   UNL     1       0.334  10.343  20.264  0.00  0.00    +0.000 N 
ATOM      2  C   UNL     1       1.072   9.289  20.820  0.00  0.00    +0.000 C 
ATOM      3  O   UNL     1       1.243   9.161  22.035  0.00  0.00    +0.000 OA
ENDROOT
BRANCH   1  10
ATOM      4  C   UNL     1      -2.902  12.182  23.549  0.00  0.00    +0.000 C 
ATOM      5  C   UNL     1      -1.703  12.399  22.670  0.00  0.00    +0.000 A 
ATOM      6  C   UNL     1      -1.011  13.608  22.671  0.00  0.00    +0.000 A 
ATOM      7  C   UNL     1       0.176  13.735  21.937  0.00  0.00    +0.000 A 
ATOM      8  C   UNL     1       0.869  15.066  21.860  0.00  0.00    +0.000 C 
ATOM      9  C   UNL     1       0.673  12.626  21.212  0.00  0.00    +0.000 A 
ATOM     10  C   UNL     1      -0.074  11.441  21.107  0.00  0.00    +0.000 A 
ATOM     11  C   UNL     1      -1.258  11.355  21.848  0.00  0.00    +0.000 A 
ENDBRANCH   1  10
BRANCH   1  12
ATOM     12  C   UNL     1       0.260  10.594  18.803  0.00  0.00    +0.000 C 
BRANCH  12  13
ATOM     13  C   UNL     1      -1.085  10.582  18.069  0.00  0.00    +0.000 C 
ATOM     14  O   UNL     1      -1.400   9.621  17.367  0.00  0.00    +0.000 OA
ATOM     15  N   UNL     1      -1.981  11.583  18.379  0.00  0.00    +0.000 N 
ATOM     16  H   UNL     1      -1.646  12.417  18.846  0.00  0.00    +0.000 HD
BRANCH  15  17
ATOM     17  C   UNL     1      -3.246  11.646  17.673  0.00  0.00    +0.000 C 
BRANCH  17  18
ATOM     18  C   UNL     1      -4.467  11.568  18.557  0.00  0.00    +0.000 A 
ATOM     19  C   UNL     1      -4.500  12.333  19.739  0.00  0.00    +0.000 A 
ATOM     20  C   UNL     1      -5.632  12.338  20.557  0.00  0.00    +0.000 A 
ATOM     21  C   UNL     1      -6.742  11.589  20.192  0.00  0.00    +0.000 A 
ATOM     22  F   UNL     1      -7.827  11.591  20.978  0.00  0.00    +0.000 F 
ATOM     23  C   UNL     1      -6.743  10.842  19.020  0.00  0.00    +0.000 A 
ATOM     24  C   UNL     1      -5.611  10.838  18.198  0.00  0.00    +0.000 A 
ENDBRANCH  17  18
ENDBRANCH  15  17
ENDBRANCH  12  13
ENDBRANCH   1  12
BRANCH   2  25
ATOM     25  C   UNL     1       1.643   8.216  19.884  0.00  0.00    +0.000 C 
BRANCH  25  26
ATOM     26  C   UNL     1       1.782   6.863  20.577  0.00  0.00    +0.000 C 
BRANCH  26  27
ATOM     27  C   UNL     1       2.658   5.957  19.732  0.00  0.00    +0.000 C 
ATOM     28  O   UNL     1       2.901   4.820  20.126  0.00  0.00    +0.000 OA
ATOM     29  N   UNL     1       3.193   6.595  18.633  0.00  0.00    +0.000 N 
ATOM     30  C   UNL     1       3.946   5.943  17.654  0.00  0.00    +0.000 A 
ATOM     31  C   UNL     1       4.646   6.717  16.726  0.00  0.00    +0.000 A 
ATOM     32  C   UNL     1       5.380   6.081  15.730  0.00  0.00    +0.000 A 
ATOM     33  C   UNL     1       5.390   4.697  15.675  0.00  0.00    +0.000 A 
ATOM     34  C   UNL     1       4.669   4.005  16.620  0.00  0.00    +0.000 A 
ATOM     35  N   UNL     1       3.967   4.600  17.599  0.00  0.00    +0.000 NA
ATOM     36  H   UNL     1       3.125   7.605  18.583  0.00  0.00    +0.000 HD
ENDBRANCH  26  27
ENDBRANCH  25  26
ENDBRANCH   2  25
TORSDOF 8
ENDMDL
MODEL 8
REMARK VINA RESULT:      -7.7      2.889      4.750
REMARK  Name = 
REMARK  10 active torsions:
REMARK  status: ('A' for Active; 'I' for Inactive)
REMARK    1  A    between atoms: C_1  and  C_2
REMARK    2  A    between atoms: C_4  and  C_5
REMARK    3  A    between atoms: C_7  and  N_8
REMARK    4  A    between atoms: N_8  and  C_9
REMARK    5  A    between atoms: C_9  and  C_10
REMARK    6  A    between atoms: N_12  and  C_13
REMARK    7  A    between atoms: C_13  and  C_14
REMARK    8  A    between atoms: C_21  and  C_23
REMARK    9  A    between atoms: C_23  and  C_24
REMARK   10  A    between atoms: C_24  and  C_25
REMARK                            x       y       z     vdW  Elec       q    Type
REMARK                         _______ _______ _______ _____ _____    ______ ____
ROOT
ATOM      1  N   UNL     1       1.275   9.104  19.679  0.00  0.00    +0.000 N 
ATOM      2  C   UNL     1       1.999   8.386  18.718  0.00  0.00    +0.000 C 
ATOM      3  O   UNL     1       2.170   8.795  17.566  0.00  0.00    +0.000 OA
ENDROOT
BRANCH   1  10
ATOM      4  C   UNL     1       1.037  14.037  19.177  0.00  0.00    +0.000 C 
ATOM      5  C   UNL     1       0.350  12.704  19.090  0.00  0.00    +0.000 A 
ATOM      6  C   UNL     1      -0.961  12.592  18.631  0.00  0.00    +0.000 A 
ATOM      7  C   UNL     1      -1.529  11.324  18.440  0.00  0.00    +0.000 A 
ATOM      8  C   UNL     1      -2.972  11.204  18.040  0.00  0.00    +0.000 C 
ATOM      9  C   UNL     1      -0.759  10.166  18.699  0.00  0.00    +0.000 A 
ATOM     10  C   UNL     1       0.520  10.264  19.272  0.00  0.00    +0.000 A 
ATOM     11  C   UNL     1       1.050  11.546  19.456  0.00  0.00    +0.000 A 
ENDBRANCH   1  10
BRANCH   1  12
ATOM     12  C   UNL     1       0.930   8.547  21.010  0.00  0.00    +0.000 C 
BRANCH  12  13
ATOM     13  C   UNL     1       0.480   9.462  22.154  0.00  0.00    +0.000 C 
ATOM     14  O   UNL     1       1.263   9.752  23.060  0.00  0.00    +0.000 OA
ATOM     15  N   UNL     1      -0.744  10.081  22.022  0.00  0.00    +0.000 N 
ATOM     16  H   UNL     1      -1.408   9.721  21.347  0.00  0.00    +0.000 HD
BRANCH  15  17
ATOM     17  C   UNL     1      -1.237  10.915  23.101  0.00  0.00    +0.000 C 
BRANCH  17  18
ATOM     18  C   UNL     1      -1.666  12.301  22.683  0.00  0.00    +0.000 A 
ATOM     19  C   UNL     1      -0.736  13.355  22.773  0.00  0.00    +0.000 A 
ATOM     20  C   UNL     1      -1.068  14.641  22.342  0.00  0.00    +0.000 A 
ATOM     21  C   UNL     1      -2.327  14.878  21.808  0.00  0.00    +0.000 A 
ATOM     22  F   UNL     1      -2.648  16.113  21.398  0.00  0.00    +0.000 F 
ATOM     23  C   UNL     1      -3.255  13.851  21.689  0.00  0.00    +0.000 A 
ATOM     24  C   UNL     1      -2.923  12.562  22.117  0.00  0.00    +0.000 A 
ENDBRANCH  17  18
ENDBRANCH  15  17
ENDBRANCH  12  13
ENDBRANCH   1  12
BRANCH   2  25
ATOM     25  C   UNL     1       2.658   7.063  19.128  0.00  0.00    +0.000 C 
BRANCH  25  26
ATOM     26  C   UNL     1       1.951   5.854  18.520  0.00  0.00    +0.000 C 
BRANCH  26  27
ATOM     27  C   UNL     1       2.935   5.077  17.666  0.00  0.00    +0.000 C 
ATOM     28  O   UNL     1       2.679   3.914  17.363  0.00  0.00    +0.000 OA
ATOM     29  N   UNL     1       4.103   5.768  17.424  0.00  0.00    +0.000 N 
ATOM     30  C   UNL     1       5.114   5.302  16.580  0.00  0.00    +0.000 A 
ATOM     31  C   UNL     1       6.350   5.951  16.600  0.00  0.00    +0.000 A 
ATOM     32  C   UNL     1       7.359   5.514  15.747  0.00  0.00    +0.000 A 
ATOM     33  C   UNL     1       7.108   4.453  14.891  0.00  0.00    +0.000 A 
ATOM     34  C   UNL     1       5.863   3.872  14.925  0.00  0.00    +0.000 A 
ATOM     35  N   UNL     1       4.881   4.269  15.752  0.00  0.00    +0.000 NA
ATOM     36  H   UNL     1       4.285   6.608  17.962  0.00  0.00    +0.000 HD
ENDBRANCH  26  27
ENDBRANCH  25  26
ENDBRANCH   2  25
TORSDOF 8
ENDMDL
MODEL 9
REMARK VINA RESULT:      -7.6      3.189      4.940
REMARK  Name = 
REMARK  10 active torsions:
REMARK  status: ('A' for Active; 'I' for Inactive)
REMARK    1  A    between atoms: C_1  and  C_2
REMARK    2  A    between atoms: C_4  and  C_5
REMARK    3  A    between atoms: C_7  and  N_8
REMARK    4  A    between atoms: N_8  and  C_9
REMARK    5  A    between atoms: C_9  and  C_10
REMARK    6  A    between atoms: N_12  and  C_13
REMARK    7  A    between atoms: C_13  and  C_14
REMARK    8  A    between atoms: C_21  and  C_23
REMARK    9  A    between atoms: C_23  and  C_24
REMARK   10  A    between atoms: C_24  and  C_25
REMARK                            x       y       z     vdW  Elec       q    Type
REMARK                         _______ _______ _______ _____ _____    ______ ____
ROOT
ATOM      1  N   UNL     1       1.523   8.950  19.341  0.00  0.00    +0.000 N 
ATOM      2  C   UNL     1       2.136   8.275  18.277  0.00  0.00    +0.000 C 
ATOM      3  O   UNL     1       2.276   8.778  17.158  0.00  0.00    +0.000 OA
ENDROOT
BRANCH   1  10
ATOM      4  C   UNL     1      -2.707  11.313  18.258  0.00  0.00    +0.000 C 
ATOM      5  C   UNL     1      -1.222  11.375  18.474  0.00  0.00    +0.000 A 
ATOM      6  C   UNL     1      -0.533  12.586  18.434  0.00  0.00    +0.000 A 
ATOM      7  C   UNL     1       0.828  12.627  18.766  0.00  0.00    +0.000 A 
ATOM      8  C   UNL     1       1.593  13.913  18.629  0.00  0.00    +0.000 C 
ATOM      9  C   UNL     1       1.490  11.438  19.156  0.00  0.00    +0.000 A 
ATOM     10  C   UNL     1       0.839  10.195  19.086  0.00  0.00    +0.000 A 
ATOM     11  C   UNL     1      -0.518  10.194  18.743  0.00  0.00    +0.000 A 
ENDBRANCH   1  10
BRANCH   1  12
ATOM     12  C   UNL     1       1.207   8.297  20.635  0.00  0.00    +0.000 C 
BRANCH  12  13
ATOM     13  C   UNL     1       0.871   9.130  21.877  0.00  0.00    +0.000 C 
ATOM     14  O   UNL     1       1.773   9.584  22.582  0.00  0.00    +0.000 OA
ATOM     15  N   UNL     1      -0.446   9.499  22.051  0.00  0.00    +0.000 N 
ATOM     16  H   UNL     1      -1.168   9.005  21.540  0.00  0.00    +0.000 HD
BRANCH  15  17
ATOM     17  C   UNL     1      -0.824  10.243  23.237  0.00  0.00    +0.000 C 
BRANCH  17  18
ATOM     18  C   UNL     1      -1.427  11.600  22.966  0.00  0.00    +0.000 A 
ATOM     19  C   UNL     1      -0.729  12.501  22.137  0.00  0.00    +0.000 A 
ATOM     20  C   UNL     1      -1.276  13.743  21.811  0.00  0.00    +0.000 A 
ATOM     21  C   UNL     1      -2.528  14.088  22.300  0.00  0.00    +0.000 A 
ATOM     22  F   UNL     1      -3.051  15.282  21.990  0.00  0.00    +0.000 F 
ATOM     23  C   UNL     1      -3.246  13.210  23.102  0.00  0.00    +0.000 A 
ATOM     24  C   UNL     1      -2.701  11.964  23.428  0.00  0.00    +0.000 A 
ENDBRANCH  17  18
ENDBRANCH  15  17
ENDBRANCH  12  13
ENDBRANCH   1  12
BRANCH   2  25
ATOM     25  C   UNL     1       2.711   6.875  18.527  0.00  0.00    +0.000 C 
BRANCH  25  26
ATOM     26  C   UNL     1       4.198   6.794  18.187  0.00  0.00    +0.000 C 
BRANCH  26  27
ATOM     27  C   UNL     1       4.404   5.769  17.088  0.00  0.00    +0.000 C 
ATOM     28  O   UNL     1       3.668   4.788  17.037  0.00  0.00    +0.000 OA
ATOM     29  N   UNL     1       5.520   6.020  16.319  0.00  0.00    +0.000 N 
ATOM     30  C   UNL     1       5.859   5.276  15.186  0.00  0.00    +0.000 A 
ATOM     31  C   UNL     1       7.128   5.449  14.630  0.00  0.00    +0.000 A 
ATOM     32  C   UNL     1       7.470   4.733  13.487  0.00  0.00    +0.000 A 
ATOM     33  C   UNL     1       6.540   3.876  12.922  0.00  0.00    +0.000 A 
ATOM     34  C   UNL     1       5.309   3.766  13.524  0.00  0.00    +0.000 A 
ATOM     35  N   UNL     1       4.965   4.437  14.636  0.00  0.00    +0.000 NA
ATOM     36  H   UNL     1       6.185   6.712  16.646  0.00  0.00    +0.000 HD
ENDBRANCH  26  27
ENDBRANCH  25  26
ENDBRANCH   2  25
TORSDOF 8
ENDMDL
