MODEL 1
REMARK VINA RESULT:      -8.4      0.000      0.000
REMARK  Name = 
REMARK  8 active torsions:
REMARK  status: ('A' for Active; 'I' for Inactive)
REMARK    1  A    between atoms: C_1  and  C_2
REMARK    2  A    between atoms: C_2  and  C_3
REMARK    3  A    between atoms: C_3  and  C_4
REMARK    4  A    between atoms: N_10  and  N_11
REMARK    5  A    between atoms: C_12  and  C_14
REMARK    6  A    between atoms: C_14  and  N_15
REMARK    7  A    between atoms: C_16  and  C_18
REMARK    8  A    between atoms: C_23  and  O_24
REMARK                            x       y       z     vdW  Elec       q    Type
REMARK                         _______ _______ _______ _____ _____    ______ ____
ROOT
ATOM      1  N   UNL     1       7.408   4.618  16.724  0.00  0.00    +0.000 N 
ATOM      2  C   UNL     1       7.362   5.775  17.489  0.00  0.00    +0.000 C 
ATOM      3  O   UNL     1       7.661   6.905  17.103  0.00  0.00    +0.000 OA
ATOM      4  H   UNL     1       7.402   3.719  17.208  0.00  0.00    +0.000 HD
ENDROOT
BRANCH   1   7
ATOM      5  C   UNL     1       5.276   4.826  14.892  0.00  0.00    +0.000 C 
ATOM      6  C   UNL     1       6.742   4.824  14.535  0.00  0.00    +0.000 C 
ATOM      7  N   UNL     1       7.710   4.700  15.396  0.00  0.00    +0.000 NA
BRANCH   6   8
ATOM      8  C   UNL     1       7.109   4.875  13.060  0.00  0.00    +0.000 C 
BRANCH   8   9
ATOM      9  C   UNL     1       6.666   3.675  12.256  0.00  0.00    +0.000 A 
ATOM     10  C   UNL     1       7.607   2.760  11.763  0.00  0.00    +0.000 A 
ATOM     11  C   UNL     1       7.193   1.596  11.109  0.00  0.00    +0.000 A 
ATOM     12  C   UNL     1       5.834   1.334  10.940  0.00  0.00    +0.000 A 
ATOM     13  C   UNL     1       4.890   2.239  11.415  0.00  0.00    +0.000 A 
ATOM     14  C   UNL     1       5.302   3.403  12.070  0.00  0.00    +0.000 A 
ENDBRANCH   8   9
ENDBRANCH   6   8
ENDBRANCH   1   7
BRANCH   2  15
ATOM     15  C   UNL     1       6.972   5.505  18.940  0.00  0.00    +0.000 C 
BRANCH  15  16
ATOM     16  N   UNL     1       5.782   4.685  19.023  0.00  0.00    +0.000 N 
ATOM     17  C   UNL     1       4.527   5.172  18.770  0.00  0.00    +0.000 C 
ATOM     18  O   UNL     1       4.337   6.348  18.463  0.00  0.00    +0.000 OA
ATOM     19  H   UNL     1       5.893   3.677  19.111  0.00  0.00    +0.000 HD
BRANCH  17  20
ATOM     20  C   UNL     1       3.387   4.192  18.858  0.00  0.00    +0.000 A 
ATOM     21  C   UNL     1       2.264   4.571  19.611  0.00  0.00    +0.000 A 
ATOM     22  C   UNL     1       1.158   3.723  19.724  0.00  0.00    +0.000 A 
ATOM     23  C   UNL     1       1.162   2.484  19.088  0.00  0.00    +0.000 A 
ATOM     24  C   UNL     1       2.272   2.086  18.344  0.00  0.00    +0.000 A 
ATOM     25  C   UNL     1       3.379   2.933  18.233  0.00  0.00    +0.000 A 
BRANCH  25  26
ATOM     26  O   UNL     1       4.454   2.506  17.495  0.00  0.00    +0.000 OA
ATOM     27  H   UNL     1       5.270   2.657  18.003  0.00  0.00    +0.000 HD
ENDBRANCH  25  26
ENDBRANCH  17  20
ENDBRANCH  15  16
ENDBRANCH   2  15
TORSDOF 7
ENDMDL
MODEL 2
REMARK VINA RESULT:      -8.4      1.160      1.658
REMARK  Name = 
REMARK  8 active torsions:
REMARK  status: ('A' for Active; 'I' for Inactive)
REMARK    1  A    between atoms: C_1  and  C_2
REMARK    2  A    between atoms: C_2  and  C_3
REMARK    3  A    between atoms: C_3  and  C_4
REMARK    4  A    between atoms: N_10  and  N_11
REMARK    5  A    between atoms: C_12  and  C_14
REMARK    6  A    between atoms: C_14  and  N_15
REMARK    7  A    between atoms: C_16  and  C_18
REMARK    8  A    between atoms: C_23  and  O_24
REMARK                            x       y       z     vdW  Elec       q    Type
REMARK                         _______ _______ _______ _____ _____    ______ ____
ROOT
ATOM      1  N   UNL     1       6.866   5.813  16.713  0.00  0.00    +0.000 N 
ATOM      2  C   UNL     1       7.398   5.048  17.742  0.00  0.00    +0.000 C 
ATOM      3  O   UNL     1       8.209   4.132  17.611  0.00  0.00    +0.000 OA
ATOM      4  H   UNL     1       6.018   6.350  16.900  0.00  0.00    +0.000 HD
ENDROOT
BRANCH   1   7
ATOM      5  C   UNL     1       5.403   4.118  15.001  0.00  0.00    +0.000 C 
ATOM      6  C   UNL     1       6.648   4.883  14.624  0.00  0.00    +0.000 C 
ATOM      7  N   UNL     1       7.323   5.640  15.439  0.00  0.00    +0.000 NA
BRANCH   6   8
ATOM      8  C   UNL     1       7.204   4.679  13.223  0.00  0.00    +0.000 C 
BRANCH   8   9
ATOM      9  C   UNL     1       6.424   3.709  12.367  0.00  0.00    +0.000 A 
ATOM     10  C   UNL     1       7.023   2.531  11.898  0.00  0.00    +0.000 A 
ATOM     11  C   UNL     1       6.273   1.583  11.195  0.00  0.00    +0.000 A 
ATOM     12  C   UNL     1       4.918   1.803  10.951  0.00  0.00    +0.000 A 
ATOM     13  C   UNL     1       4.314   2.973  11.402  0.00  0.00    +0.000 A 
ATOM     14  C   UNL     1       5.061   3.921  12.107  0.00  0.00    +0.000 A 
ENDBRANCH   8   9
ENDBRANCH   6   8
ENDBRANCH   1   7
BRANCH   2  15
ATOM     15  C   UNL     1       6.802   5.399  19.103  0.00  0.00    +0.000 C 
BRANCH  15  16
ATOM     16  N   UNL     1       5.530   4.741  19.309  0.00  0.00    +0.000 N 
ATOM     17  C   UNL     1       4.351   5.236  18.818  0.00  0.00    +0.000 C 
ATOM     18  O   UNL     1       4.305   6.283  18.174  0.00  0.00    +0.000 OA
ATOM     19  H   UNL     1       5.530   3.797  19.688  0.00  0.00    +0.000 HD
BRANCH  17  20
ATOM     20  C   UNL     1       3.111   4.422  19.078  0.00  0.00    +0.000 A 
ATOM     21  C   UNL     1       2.772   3.439  18.133  0.00  0.00    +0.000 A 
ATOM     22  C   UNL     1       1.645   2.631  18.314  0.00  0.00    +0.000 A 
ATOM     23  C   UNL     1       0.842   2.796  19.440  0.00  0.00    +0.000 A 
ATOM     24  C   UNL     1       1.158   3.773  20.384  0.00  0.00    +0.000 A 
ATOM     25  C   UNL     1       2.283   4.583  20.201  0.00  0.00    +0.000 A 
BRANCH  25  26
ATOM     26  O   UNL     1       2.559   5.535  21.150  0.00  0.00    +0.000 OA
ATOM     27  H   UNL     1       2.051   6.341  20.950  0.00  0.00    +0.000 HD
ENDBRANCH  25  26
ENDBRANCH  17  20
ENDBRANCH  15  16
ENDBRANCH   2  15
TORSDOF 7
ENDMDL
MODEL 3
REMARK VINA RESULT:      -8.3      3.825      6.915
REMARK  Name = 
REMARK  8 active torsions:
REMARK  status: ('A' for Active; 'I' for Inactive)
REMARK    1  A    between atoms: C_1  and  C_2
REMARK    2  A    between atoms: C_2  and  C_3
REMARK    3  A    between atoms: C_3  and  C_4
REMARK    4  A    between atoms: N_10  and  N_11
REMARK    5  A    between atoms: C_12  and  C_14
REMARK    6  A    between atoms: C_14  and  N_15
REMARK    7  A    between atoms: C_16  and  C_18
REMARK    8  A    between atoms: C_23  and  O_24
REMARK                            x       y       z     vdW  Elec       q    Type
REMARK                         _______ _______ _______ _____ _____    ______ ____
ROOT
ATOM      1  N   UNL     1       7.357   6.526  17.020  0.00  0.00    +0.000 N 
ATOM      2  C   UNL     1       6.515   5.857  16.142  0.00  0.00    +0.000 C 
ATOM      3  O   UNL     1       5.797   6.384  15.293  0.00  0.00    +0.000 OA
ATOM      4  H   UNL     1       7.692   6.025  17.844  0.00  0.00    +0.000 HD
ENDROOT
BRANCH   1   7
ATOM      5  C   UNL     1       8.649   7.890  19.122  0.00  0.00    +0.000 C 
ATOM      6  C   UNL     1       8.129   8.523  17.853  0.00  0.00    +0.000 C 
ATOM      7  N   UNL     1       7.512   7.877  16.908  0.00  0.00    +0.000 NA
BRANCH   6   8
ATOM      8  C   UNL     1       8.252  10.033  17.717  0.00  0.00    +0.000 C 
BRANCH   8   9
ATOM      9  C   UNL     1       9.390  10.649  18.496  0.00  0.00    +0.000 A 
ATOM     10  C   UNL     1      10.563  11.056  17.843  0.00  0.00    +0.000 A 
ATOM     11  C   UNL     1      11.573  11.721  18.544  0.00  0.00    +0.000 A 
ATOM     12  C   UNL     1      11.424  11.984  19.905  0.00  0.00    +0.000 A 
ATOM     13  C   UNL     1      10.270  11.577  20.567  0.00  0.00    +0.000 A 
ATOM     14  C   UNL     1       9.257  10.913  19.867  0.00  0.00    +0.000 A 
ENDBRANCH   8   9
ENDBRANCH   6   8
ENDBRANCH   1   7
BRANCH   2  15
ATOM     15  C   UNL     1       6.491   4.351  16.385  0.00  0.00    +0.000 C 
BRANCH  15  16
ATOM     16  N   UNL     1       5.248   3.934  16.999  0.00  0.00    +0.000 N 
ATOM     17  C   UNL     1       5.000   4.073  18.338  0.00  0.00    +0.000 C 
ATOM     18  O   UNL     1       5.831   4.556  19.106  0.00  0.00    +0.000 OA
ATOM     19  H   UNL     1       4.471   3.681  16.393  0.00  0.00    +0.000 HD
BRANCH  17  20
ATOM     20  C   UNL     1       3.647   3.630  18.828  0.00  0.00    +0.000 A 
ATOM     21  C   UNL     1       3.142   2.417  18.330  0.00  0.00    +0.000 A 
ATOM     22  C   UNL     1       1.901   1.932  18.752  0.00  0.00    +0.000 A 
ATOM     23  C   UNL     1       1.147   2.652  19.675  0.00  0.00    +0.000 A 
ATOM     24  C   UNL     1       1.627   3.863  20.173  0.00  0.00    +0.000 A 
ATOM     25  C   UNL     1       2.867   4.350  19.749  0.00  0.00    +0.000 A 
BRANCH  25  26
ATOM     26  O   UNL     1       3.304   5.546  20.260  0.00  0.00    +0.000 OA
ATOM     27  H   UNL     1       3.607   6.114  19.528  0.00  0.00    +0.000 HD
ENDBRANCH  25  26
ENDBRANCH  17  20
ENDBRANCH  15  16
ENDBRANCH   2  15
TORSDOF 7
ENDMDL
MODEL 4
REMARK VINA RESULT:      -8.2      1.876      6.983
REMARK  Name = 
REMARK  8 active torsions:
REMARK  status: ('A' for Active; 'I' for Inactive)
REMARK    1  A    between atoms: C_1  and  C_2
REMARK    2  A    between atoms: C_2  and  C_3
REMARK    3  A    between atoms: C_3  and  C_4
REMARK    4  A    between atoms: N_10  and  N_11
REMARK    5  A    between atoms: C_12  and  C_14
REMARK    6  A    between atoms: C_14  and  N_15
REMARK    7  A    between atoms: C_16  and  C_18
REMARK    8  A    between atoms: C_23  and  O_24
REMARK                            x       y       z     vdW  Elec       q    Type
REMARK                         _______ _______ _______ _____ _____    ______ ____
ROOT
ATOM      1  N   UNL     1       5.208   6.444  18.115  0.00  0.00    +0.000 N 
ATOM      2  C   UNL     1       6.515   6.217  18.525  0.00  0.00    +0.000 C 
ATOM      3  O   UNL     1       6.856   5.721  19.598  0.00  0.00    +0.000 OA
ATOM      4  H   UNL     1       5.050   7.093  17.344  0.00  0.00    +0.000 HD
ENDROOT
BRANCH   1   7
ATOM      5  C   UNL     1       2.816   7.935  18.095  0.00  0.00    +0.000 C 
ATOM      6  C   UNL     1       3.052   6.665  18.876  0.00  0.00    +0.000 C 
ATOM      7  N   UNL     1       4.174   6.007  18.891  0.00  0.00    +0.000 NA
BRANCH   6   8
ATOM      8  C   UNL     1       1.932   6.175  19.780  0.00  0.00    +0.000 C 
BRANCH   8   9
ATOM      9  C   UNL     1       1.660   4.691  19.707  0.00  0.00    +0.000 A 
ATOM     10  C   UNL     1       1.509   4.054  18.467  0.00  0.00    +0.000 A 
ATOM     11  C   UNL     1       1.363   2.666  18.393  0.00  0.00    +0.000 A 
ATOM     12  C   UNL     1       1.364   1.899  19.557  0.00  0.00    +0.000 A 
ATOM     13  C   UNL     1       1.503   2.519  20.795  0.00  0.00    +0.000 A 
ATOM     14  C   UNL     1       1.651   3.908  20.871  0.00  0.00    +0.000 A 
ENDBRANCH   8   9
ENDBRANCH   6   8
ENDBRANCH   1   7
BRANCH   2  15
ATOM     15  C   UNL     1       7.542   6.735  17.522  0.00  0.00    +0.000 C 
BRANCH  15  16
ATOM     16  N   UNL     1       7.261   6.261  16.184  0.00  0.00    +0.000 N 
ATOM     17  C   UNL     1       7.457   4.960  15.803  0.00  0.00    +0.000 C 
ATOM     18  O   UNL     1       7.896   4.114  16.580  0.00  0.00    +0.000 OA
ATOM     19  H   UNL     1       6.748   6.871  15.552  0.00  0.00    +0.000 HD
BRANCH  17  20
ATOM     20  C   UNL     1       7.083   4.603  14.388  0.00  0.00    +0.000 A 
ATOM     21  C   UNL     1       5.997   3.730  14.206  0.00  0.00    +0.000 A 
ATOM     22  C   UNL     1       5.579   3.367  12.923  0.00  0.00    +0.000 A 
ATOM     23  C   UNL     1       6.242   3.868  11.805  0.00  0.00    +0.000 A 
ATOM     24  C   UNL     1       7.329   4.726  11.966  0.00  0.00    +0.000 A 
ATOM     25  C   UNL     1       7.749   5.088  13.250  0.00  0.00    +0.000 A 
BRANCH  25  26
ATOM     26  O   UNL     1       8.824   5.933  13.368  0.00  0.00    +0.000 OA
ATOM     27  H   UNL     1       9.118   6.200  12.479  0.00  0.00    +0.000 HD
ENDBRANCH  25  26
ENDBRANCH  17  20
ENDBRANCH  15  16
ENDBRANCH   2  15
TORSDOF 7
ENDMDL
MODEL 5
REMARK VINA RESULT:      -8.2      0.491      1.102
REMARK  Name = 
REMARK  8 active torsions:
REMARK  status: ('A' for Active; 'I' for Inactive)
REMARK    1  A    between atoms: C_1  and  C_2
REMARK    2  A    between atoms: C_2  and  C_3
REMARK    3  A    between atoms: C_3  and  C_4
REMARK    4  A    between atoms: N_10  and  N_11
REMARK    5  A    between atoms: C_12  and  C_14
REMARK    6  A    between atoms: C_14  and  N_15
REMARK    7  A    between atoms: C_16  and  C_18
REMARK    8  A    between atoms: C_23  and  O_24
REMARK                            x       y       z     vdW  Elec       q    Type
REMARK                         _______ _______ _______ _____ _____    ______ ____
ROOT
ATOM      1  N   UNL     1       7.307   4.427  17.127  0.00  0.00    +0.000 N 
ATOM      2  C   UNL     1       7.361   5.593  17.878  0.00  0.00    +0.000 C 
ATOM      3  O   UNL     1       7.764   6.686  17.480  0.00  0.00    +0.000 OA
ATOM      4  H   UNL     1       7.216   3.539  17.622  0.00  0.00    +0.000 HD
ENDROOT
BRANCH   1   7
ATOM      5  C   UNL     1       5.212   4.780  15.274  0.00  0.00    +0.000 C 
ATOM      6  C   UNL     1       6.677   4.654  14.929  0.00  0.00    +0.000 C 
ATOM      7  N   UNL     1       7.625   4.465  15.800  0.00  0.00    +0.000 NA
BRANCH   6   8
ATOM      8  C   UNL     1       7.057   4.652  13.457  0.00  0.00    +0.000 C 
BRANCH   8   9
ATOM      9  C   UNL     1       6.305   3.652  12.610  0.00  0.00    +0.000 A 
ATOM     10  C   UNL     1       4.953   3.853  12.301  0.00  0.00    +0.000 A 
ATOM     11  C   UNL     1       4.285   2.985  11.432  0.00  0.00    +0.000 A 
ATOM     12  C   UNL     1       4.961   1.907  10.864  0.00  0.00    +0.000 A 
ATOM     13  C   UNL     1       6.300   1.689  11.170  0.00  0.00    +0.000 A 
ATOM     14  C   UNL     1       6.971   2.558  12.038  0.00  0.00    +0.000 A 
ENDBRANCH   8   9
ENDBRANCH   6   8
ENDBRANCH   1   7
BRANCH   2  15
ATOM     15  C   UNL     1       6.937   5.378  19.328  0.00  0.00    +0.000 C 
BRANCH  15  16
ATOM     16  N   UNL     1       5.712   4.612  19.413  0.00  0.00    +0.000 N 
ATOM     17  C   UNL     1       4.487   5.137  19.100  0.00  0.00    +0.000 C 
ATOM     18  O   UNL     1       4.355   6.304  18.733  0.00  0.00    +0.000 OA
ATOM     19  H   UNL     1       5.779   3.606  19.551  0.00  0.00    +0.000 HD
BRANCH  17  20
ATOM     20  C   UNL     1       3.305   4.210  19.198  0.00  0.00    +0.000 A 
ATOM     21  C   UNL     1       2.214   4.631  19.976  0.00  0.00    +0.000 A 
ATOM     22  C   UNL     1       1.072   3.833  20.100  0.00  0.00    +0.000 A 
ATOM     23  C   UNL     1       1.008   2.603  19.451  0.00  0.00    +0.000 A 
ATOM     24  C   UNL     1       2.085   2.162  18.683  0.00  0.00    +0.000 A 
ATOM     25  C   UNL     1       3.228   2.960  18.560  0.00  0.00    +0.000 A 
BRANCH  25  26
ATOM     26  O   UNL     1       4.268   2.492  17.798  0.00  0.00    +0.000 OA
ATOM     27  H   UNL     1       4.901   2.026  18.374  0.00  0.00    +0.000 HD
ENDBRANCH  25  26
ENDBRANCH  17  20
ENDBRANCH  15  16
ENDBRANCH   2  15
TORSDOF 7
ENDMDL
MODEL 6
REMARK VINA RESULT:      -8.2      1.018      1.695
REMARK  Name = 
REMARK  8 active torsions:
REMARK  status: ('A' for Active; 'I' for Inactive)
REMARK    1  A    between atoms: C_1  and  C_2
REMARK    2  A    between atoms: C_2  and  C_3
REMARK    3  A    between atoms: C_3  and  C_4
REMARK    4  A    between atoms: N_10  and  N_11
REMARK    5  A    between atoms: C_12  and  C_14
REMARK    6  A    between atoms: C_14  and  N_15
REMARK    7  A    between atoms: C_16  and  C_18
REMARK    8  A    between atoms: C_23  and  O_24
REMARK                            x       y       z     vdW  Elec       q    Type
REMARK                         _______ _______ _______ _____ _____    ______ ____
ROOT
ATOM      1  N   UNL     1       7.542   5.087  16.661  0.00  0.00    +0.000 N 
ATOM      2  C   UNL     1       7.250   6.172  17.477  0.00  0.00    +0.000 C 
ATOM      3  O   UNL     1       7.130   7.339  17.106  0.00  0.00    +0.000 OA
ATOM      4  H   UNL     1       7.881   4.231  17.101  0.00  0.00    +0.000 HD
ENDROOT
BRANCH   1   7
ATOM      5  C   UNL     1       5.542   3.907  15.064  0.00  0.00    +0.000 C 
ATOM      6  C   UNL     1       6.688   4.748  14.556  0.00  0.00    +0.000 C 
ATOM      7  N   UNL     1       7.616   5.262  15.310  0.00  0.00    +0.000 NA
BRANCH   6   8
ATOM      8  C   UNL     1       6.819   4.926  13.051  0.00  0.00    +0.000 C 
BRANCH   8   9
ATOM      9  C   UNL     1       6.509   3.692  12.238  0.00  0.00    +0.000 A 
ATOM     10  C   UNL     1       7.539   2.845  11.806  0.00  0.00    +0.000 A 
ATOM     11  C   UNL     1       7.246   1.649  11.144  0.00  0.00    +0.000 A 
ATOM     12  C   UNL     1       5.922   1.288  10.904  0.00  0.00    +0.000 A 
ATOM     13  C   UNL     1       4.890   2.124  11.318  0.00  0.00    +0.000 A 
ATOM     14  C   UNL     1       5.180   3.320  11.982  0.00  0.00    +0.000 A 
ENDBRANCH   8   9
ENDBRANCH   6   8
ENDBRANCH   1   7
BRANCH   2  15
ATOM     15  C   UNL     1       7.168   5.791  18.953  0.00  0.00    +0.000 C 
BRANCH  15  16
ATOM     16  N   UNL     1       5.801   5.549  19.362  0.00  0.00    +0.000 N 
ATOM     17  C   UNL     1       5.164   4.356  19.146  0.00  0.00    +0.000 C 
ATOM     18  O   UNL     1       5.719   3.416  18.579  0.00  0.00    +0.000 OA
ATOM     19  H   UNL     1       5.352   6.225  19.974  0.00  0.00    +0.000 HD
BRANCH  17  20
ATOM     20  C   UNL     1       3.754   4.235  19.661  0.00  0.00    +0.000 A 
ATOM     21  C   UNL     1       3.344   2.980  20.139  0.00  0.00    +0.000 A 
ATOM     22  C   UNL     1       2.056   2.794  20.651  0.00  0.00    +0.000 A 
ATOM     23  C   UNL     1       1.160   3.860  20.688  0.00  0.00    +0.000 A 
ATOM     24  C   UNL     1       1.546   5.111  20.208  0.00  0.00    +0.000 A 
ATOM     25  C   UNL     1       2.833   5.296  19.694  0.00  0.00    +0.000 A 
BRANCH  25  26
ATOM     26  O   UNL     1       3.174   6.541  19.229  0.00  0.00    +0.000 OA
ATOM     27  H   UNL     1       2.366   7.015  18.963  0.00  0.00    +0.000 HD
ENDBRANCH  25  26
ENDBRANCH  17  20
ENDBRANCH  15  16
ENDBRANCH   2  15
TORSDOF 7
ENDMDL
MODEL 7
REMARK VINA RESULT:      -8.0      3.872      6.990
REMARK  Name = 
REMARK  8 active torsions:
REMARK  status: ('A' for Active; 'I' for Inactive)
REMARK    1  A    between atoms: C_1  and  C_2
REMARK    2  A    between atoms: C_2  and  C_3
REMARK    3  A    between atoms: C_3  and  C_4
REMARK    4  A    between atoms: N_10  and  N_11
REMARK    5  A    between atoms: C_12  and  C_14
REMARK    6  A    between atoms: C_14  and  N_15
REMARK    7  A    between atoms: C_16  and  C_18
REMARK    8  A    between atoms: C_23  and  O_24
REMARK                            x       y       z     vdW  Elec       q    Type
REMARK                         _______ _______ _______ _____ _____    ______ ____
ROOT
ATOM      1  N   UNL     1       7.308   6.692  17.164  0.00  0.00    +0.000 N 
ATOM      2  C   UNL     1       6.407   5.998  16.368  0.00  0.00    +0.000 C 
ATOM      3  O   UNL     1       5.619   6.501  15.568  0.00  0.00    +0.000 OA
ATOM      4  H   UNL     1       7.712   6.211  17.968  0.00  0.00    +0.000 HD
ENDROOT
BRANCH   1   7
ATOM      5  C   UNL     1       8.757   8.109  19.123  0.00  0.00    +0.000 C 
ATOM      6  C   UNL     1       8.127   8.712  17.891  0.00  0.00    +0.000 C 
ATOM      7  N   UNL     1       7.439   8.042  17.013  0.00  0.00    +0.000 NA
BRANCH   6   8
ATOM      8  C   UNL     1       8.222  10.219  17.716  0.00  0.00    +0.000 C 
BRANCH   8   9
ATOM      9  C   UNL     1       9.364  10.873  18.458  0.00  0.00    +0.000 A 
ATOM     10  C   UNL     1       9.273  11.116  19.836  0.00  0.00    +0.000 A 
ATOM     11  C   UNL     1      10.368  11.624  20.542  0.00  0.00    +0.000 A 
ATOM     12  C   UNL     1      11.564  11.895  19.879  0.00  0.00    +0.000 A 
ATOM     13  C   UNL     1      11.664  11.668  18.509  0.00  0.00    +0.000 A 
ATOM     14  C   UNL     1      10.571  11.159  17.801  0.00  0.00    +0.000 A 
ENDBRANCH   8   9
ENDBRANCH   6   8
ENDBRANCH   1   7
BRANCH   2  15
ATOM     15  C   UNL     1       6.419   4.496  16.641  0.00  0.00    +0.000 C 
BRANCH  15  16
ATOM     16  N   UNL     1       5.155   4.049  17.188  0.00  0.00    +0.000 N 
ATOM     17  C   UNL     1       4.758   4.337  18.467  0.00  0.00    +0.000 C 
ATOM     18  O   UNL     1       5.462   4.991  19.234  0.00  0.00    +0.000 OA
ATOM     19  H   UNL     1       4.468   3.648  16.554  0.00  0.00    +0.000 HD
BRANCH  17  20
ATOM     20  C   UNL     1       3.400   3.838  18.885  0.00  0.00    +0.000 A 
ATOM     21  C   UNL     1       2.916   2.677  18.260  0.00  0.00    +0.000 A 
ATOM     22  C   UNL     1       1.672   2.142  18.608  0.00  0.00    +0.000 A 
ATOM     23  C   UNL     1       0.895   2.761  19.584  0.00  0.00    +0.000 A 
ATOM     24  C   UNL     1       1.354   3.921  20.208  0.00  0.00    +0.000 A 
ATOM     25  C   UNL     1       2.597   4.457  19.858  0.00  0.00    +0.000 A 
BRANCH  25  26
ATOM     26  O   UNL     1       3.014   5.600  20.493  0.00  0.00    +0.000 OA
ATOM     27  H   UNL     1       2.240   6.160  20.682  0.00  0.00    +0.000 HD
ENDBRANCH  25  26
ENDBRANCH  17  20
ENDBRANCH  15  16
ENDBRANCH   2  15
TORSDOF 7
ENDMDL
MODEL 8
REMARK VINA RESULT:      -8.0      1.250      1.691
REMARK  Name = 
REMARK  8 active torsions:
REMARK  status: ('A' for Active; 'I' for Inactive)
REMARK    1  A    between atoms: C_1  and  C_2
REMARK    2  A    between atoms: C_2  and  C_3
REMARK    3  A    between atoms: C_3  and  C_4
REMARK    4  A    between atoms: N_10  and  N_11
REMARK    5  A    between atoms: C_12  and  C_14
REMARK    6  A    between atoms: C_14  and  N_15
REMARK    7  A    between atoms: C_16  and  C_18
REMARK    8  A    between atoms: C_23  and  O_24
REMARK                            x       y       z     vdW  Elec       q    Type
REMARK                         _______ _______ _______ _____ _____    ______ ____
ROOT
ATOM      1  N   UNL     1       7.560   5.225  16.676  0.00  0.00    +0.000 N 
ATOM      2  C   UNL     1       7.354   6.357  17.453  0.00  0.00    +0.000 C 
ATOM      3  O   UNL     1       7.293   7.514  17.036  0.00  0.00    +0.000 OA
ATOM      4  H   UNL     1       7.859   4.368  17.143  0.00  0.00    +0.000 HD
ENDROOT
BRANCH   1   7
ATOM      5  C   UNL     1       5.858   3.579  15.148  0.00  0.00    +0.000 C 
ATOM      6  C   UNL     1       6.811   4.609  14.593  0.00  0.00    +0.000 C 
ATOM      7  N   UNL     1       7.608   5.340  15.317  0.00  0.00    +0.000 NA
BRANCH   6   8
ATOM      8  C   UNL     1       6.915   4.732  13.081  0.00  0.00    +0.000 C 
BRANCH   8   9
ATOM      9  C   UNL     1       6.368   3.554  12.311  0.00  0.00    +0.000 A 
ATOM     10  C   UNL     1       5.003   3.477  11.999  0.00  0.00    +0.000 A 
ATOM     11  C   UNL     1       4.514   2.442  11.197  0.00  0.00    +0.000 A 
ATOM     12  C   UNL     1       5.382   1.471  10.700  0.00  0.00    +0.000 A 
ATOM     13  C   UNL     1       6.737   1.530  11.010  0.00  0.00    +0.000 A 
ATOM     14  C   UNL     1       7.230   2.565  11.810  0.00  0.00    +0.000 A 
ENDBRANCH   8   9
ENDBRANCH   6   8
ENDBRANCH   1   7
BRANCH   2  15
ATOM     15  C   UNL     1       7.290   6.042  18.945  0.00  0.00    +0.000 C 
BRANCH  15  16
ATOM     16  N   UNL     1       5.934   5.763  19.368  0.00  0.00    +0.000 N 
ATOM     17  C   UNL     1       5.319   4.561  19.139  0.00  0.00    +0.000 C 
ATOM     18  O   UNL     1       5.886   3.643  18.548  0.00  0.00    +0.000 OA
ATOM     19  H   UNL     1       5.479   6.419  19.998  0.00  0.00    +0.000 HD
BRANCH  17  20
ATOM     20  C   UNL     1       3.919   4.401  19.672  0.00  0.00    +0.000 A 
ATOM     21  C   UNL     1       3.126   5.557  19.763  0.00  0.00    +0.000 A 
ATOM     22  C   UNL     1       1.810   5.485  20.230  0.00  0.00    +0.000 A 
ATOM     23  C   UNL     1       1.271   4.260  20.615  0.00  0.00    +0.000 A 
ATOM     24  C   UNL     1       2.047   3.104  20.541  0.00  0.00    +0.000 A 
ATOM     25  C   UNL     1       3.364   3.175  20.076  0.00  0.00    +0.000 A 
BRANCH  25  26
ATOM     26  O   UNL     1       4.097   2.016  20.020  0.00  0.00    +0.000 OA
ATOM     27  H   UNL     1       3.540   1.304  19.660  0.00  0.00    +0.000 HD
ENDBRANCH  25  26
ENDBRANCH  17  20
ENDBRANCH  15  16
ENDBRANCH   2  15
TORSDOF 7
ENDMDL
MODEL 9
REMARK VINA RESULT:      -7.9      6.291      9.004
REMARK  Name = 
REMARK  8 active torsions:
REMARK  status: ('A' for Active; 'I' for Inactive)
REMARK    1  A    between atoms: C_1  and  C_2
REMARK    2  A    between atoms: C_2  and  C_3
REMARK    3  A    between atoms: C_3  and  C_4
REMARK    4  A    between atoms: N_10  and  N_11
REMARK    5  A    between atoms: C_12  and  C_14
REMARK    6  A    between atoms: C_14  and  N_15
REMARK    7  A    between atoms: C_16  and  C_18
REMARK    8  A    between atoms: C_23  and  O_24
REMARK                            x       y       z     vdW  Elec       q    Type
REMARK                         _______ _______ _______ _____ _____    ______ ____
ROOT
ATOM      1  N   UNL     1       1.051   9.178  20.418  0.00  0.00    +0.000 N 
ATOM      2  C   UNL     1       0.926   9.855  21.623  0.00  0.00    +0.000 C 
ATOM      3  O   UNL     1       1.401   9.499  22.701  0.00  0.00    +0.000 OA
ATOM      4  H   UNL     1       0.405   9.412  19.664  0.00  0.00    +0.000 HD
ENDROOT
BRANCH   1   7
ATOM      5  C   UNL     1       1.936   8.340  17.876  0.00  0.00    +0.000 C 
ATOM      6  C   UNL     1       2.283   7.679  19.188  0.00  0.00    +0.000 C 
ATOM      7  N   UNL     1       1.841   8.068  20.348  0.00  0.00    +0.000 NA
BRANCH   6   8
ATOM      8  C   UNL     1       3.129   6.417  19.139  0.00  0.00    +0.000 C 
BRANCH   8   9
ATOM      9  C   UNL     1       2.353   5.128  19.271  0.00  0.00    +0.000 A 
ATOM     10  C   UNL     1       1.904   4.691  20.525  0.00  0.00    +0.000 A 
ATOM     11  C   UNL     1       1.097   3.554  20.636  0.00  0.00    +0.000 A 
ATOM     12  C   UNL     1       0.731   2.842  19.495  0.00  0.00    +0.000 A 
ATOM     13  C   UNL     1       1.179   3.259  18.245  0.00  0.00    +0.000 A 
ATOM     14  C   UNL     1       1.984   4.396  18.131  0.00  0.00    +0.000 A 
ENDBRANCH   8   9
ENDBRANCH   6   8
ENDBRANCH   1   7
BRANCH   2  15
ATOM     15  C   UNL     1       0.038  11.092  21.512  0.00  0.00    +0.000 C 
BRANCH  15  16
ATOM     16  N   UNL     1      -0.959  10.936  20.475  0.00  0.00    +0.000 N 
ATOM     17  C   UNL     1      -0.744  11.316  19.177  0.00  0.00    +0.000 C 
ATOM     18  O   UNL     1       0.316  11.824  18.816  0.00  0.00    +0.000 OA
ATOM     19  H   UNL     1      -1.785  10.377  20.678  0.00  0.00    +0.000 HD
BRANCH  17  20
ATOM     20  C   UNL     1      -1.860  11.056  18.199  0.00  0.00    +0.000 A 
ATOM     21  C   UNL     1      -1.619  10.126  17.174  0.00  0.00    +0.000 A 
ATOM     22  C   UNL     1      -2.613   9.819  16.239  0.00  0.00    +0.000 A 
ATOM     23  C   UNL     1      -3.858  10.438  16.316  0.00  0.00    +0.000 A 
ATOM     24  C   UNL     1      -4.112  11.371  17.320  0.00  0.00    +0.000 A 
ATOM     25  C   UNL     1      -3.118  11.680  18.254  0.00  0.00    +0.000 A 
BRANCH  25  26
ATOM     26  O   UNL     1      -3.405  12.605  19.226  0.00  0.00    +0.000 OA
ATOM     27  H   UNL     1      -3.103  12.265  20.088  0.00  0.00    +0.000 HD
ENDBRANCH  25  26
ENDBRANCH  17  20
ENDBRANCH  15  16
ENDBRANCH   2  15
TORSDOF 7
ENDMDL
