MODEL 1
REMARK VINA RESULT:      -8.0      0.000      0.000
REMARK  Name = 
REMARK  5 active torsions:
REMARK  status: ('A' for Active; 'I' for Inactive)
REMARK    1  A    between atoms: C_1  and  C_2
REMARK    2  A    between atoms: C_2  and  C_3
REMARK    3  A    between atoms: C_6  and  O_7
REMARK    4  A    between atoms: O_7  and  C_8
REMARK    5  A    between atoms: C_8  and  C_9
REMARK                            x       y       z     vdW  Elec       q    Type
REMARK                         _______ _______ _______ _____ _____    ______ ____
ROOT
ATOM      1  C   UNL     1       2.135   3.206  18.254  0.00  0.00    +0.000 C 
ATOM      2  O   UNL     1       1.656   2.199  18.780  0.00  0.00    +0.000 OA
ATOM      3  N   UNL     1       1.835   4.486  18.702  0.00  0.00    +0.000 N 
ATOM      4  C   UNL     1       1.088   4.673  19.947  0.00  0.00    +0.000 C 
ATOM      5  C   UNL     1       1.748   5.737  20.856  0.00  0.00    +0.000 C 
ATOM      6  N   UNL     1       2.074   6.963  20.114  0.00  0.00    +0.000 N 
ATOM      7  C   UNL     1       1.522   8.186  20.444  0.00  0.00    +0.000 A 
ATOM      8  C   UNL     1       1.361   8.557  21.780  0.00  0.00    +0.000 A 
ATOM      9  C   UNL     1       0.838   9.808  22.107  0.00  0.00    +0.000 A 
ATOM     10  C   UNL     1       0.470  10.671  21.089  0.00  0.00    +0.000 A 
ATOM     11  C   UNL     1       0.658  10.240  19.789  0.00  0.00    +0.000 A 
ATOM     12  N   UNL     1       1.180   9.038  19.454  0.00  0.00    +0.000 NA
ATOM     13  C   UNL     1       2.747   6.796  18.818  0.00  0.00    +0.000 C 
ATOM     14  C   UNL     1       2.055   5.732  17.950  0.00  0.00    +0.000 C 
ENDROOT
BRANCH   1  15
ATOM     15  C   UNL     1       3.220   3.076  17.175  0.00  0.00    +0.000 C 
BRANCH  15  16
ATOM     16  O   UNL     1       4.534   2.892  17.653  0.00  0.00    +0.000 OA
BRANCH  16  20
ATOM     17  C   UNL     1       7.180   6.118  18.207  0.00  0.00    +0.000 A 
ATOM     18  C   UNL     1       6.474   5.509  19.240  0.00  0.00    +0.000 A 
ATOM     19  C   UNL     1       5.601   4.446  18.967  0.00  0.00    +0.000 A 
ATOM     20  C   UNL     1       5.406   3.954  17.660  0.00  0.00    +0.000 A 
ATOM     21  C   UNL     1       6.116   4.576  16.620  0.00  0.00    +0.000 A 
ATOM     22 BR   UNL     1       6.059   4.153  14.763  0.00  0.00    +0.000 Br
ATOM     23  C   UNL     1       6.996   5.639  16.906  0.00  0.00    +0.000 A 
BRANCH  17  25
ATOM     24  C   UNL     1       7.796   8.490  17.628  0.00  0.00    +0.000 C 
ATOM     25  C   UNL     1       8.130   7.261  18.460  0.00  0.00    +0.000 C 
ENDBRANCH  17  25
ENDBRANCH  16  20
ENDBRANCH  15  16
ENDBRANCH   1  15
TORSDOF 4
ENDMDL
MODEL 2
REMARK VINA RESULT:      -7.2      1.689      2.479
REMARK  Name = 
REMARK  5 active torsions:
REMARK  status: ('A' for Active; 'I' for Inactive)
REMARK    1  A    between atoms: C_1  and  C_2
REMARK    2  A    between atoms: C_2  and  C_3
REMARK    3  A    between atoms: C_6  and  O_7
REMARK    4  A    between atoms: O_7  and  C_8
REMARK    5  A    between atoms: C_8  and  C_9
REMARK                            x       y       z     vdW  Elec       q    Type
REMARK                         _______ _______ _______ _____ _____    ______ ____
ROOT
ATOM      1  C   UNL     1       2.534   3.129  19.088  0.00  0.00    +0.000 C 
ATOM      2  O   UNL     1       2.015   2.226  19.749  0.00  0.00    +0.000 OA
ATOM      3  N   UNL     1       2.128   4.453  19.199  0.00  0.00    +0.000 N 
ATOM      4  C   UNL     1       1.195   4.849  20.256  0.00  0.00    +0.000 C 
ATOM      5  C   UNL     1       1.675   6.121  20.994  0.00  0.00    +0.000 C 
ATOM      6  N   UNL     1       2.069   7.182  20.056  0.00  0.00    +0.000 N 
ATOM      7  C   UNL     1       1.433   8.408  20.030  0.00  0.00    +0.000 A 
ATOM      8  C   UNL     1       1.061   9.042  21.217  0.00  0.00    +0.000 A 
ATOM      9  C   UNL     1       0.454  10.297  21.187  0.00  0.00    +0.000 A 
ATOM     10  C   UNL     1       0.215  10.900  19.964  0.00  0.00    +0.000 A 
ATOM     11  C   UNL     1       0.611  10.217  18.828  0.00  0.00    +0.000 A 
ATOM     12  N   UNL     1       1.216   9.008  18.840  0.00  0.00    +0.000 NA
ATOM     13  C   UNL     1       2.935   6.789  18.934  0.00  0.00    +0.000 C 
ATOM     14  C   UNL     1       2.417   5.523  18.232  0.00  0.00    +0.000 C 
ENDROOT
BRANCH   1  15
ATOM     15  C   UNL     1       3.772   2.845  18.225  0.00  0.00    +0.000 C 
BRANCH  15  16
ATOM     16  O   UNL     1       4.871   3.704  18.438  0.00  0.00    +0.000 OA
BRANCH  16  20
ATOM     17  C   UNL     1       6.800   4.750  14.847  0.00  0.00    +0.000 A 
ATOM     18  C   UNL     1       5.689   3.915  14.915  0.00  0.00    +0.000 A 
ATOM     19  C   UNL     1       5.114   3.605  16.155  0.00  0.00    +0.000 A 
ATOM     20  C   UNL     1       5.622   4.120  17.366  0.00  0.00    +0.000 A 
ATOM     21  C   UNL     1       6.747   4.957  17.292  0.00  0.00    +0.000 A 
ATOM     22 BR   UNL     1       7.667   5.792  18.738  0.00  0.00    +0.000 Br
ATOM     23  C   UNL     1       7.313   5.268  16.040  0.00  0.00    +0.000 A 
BRANCH  17  25
ATOM     24  C   UNL     1       7.023   4.179  12.405  0.00  0.00    +0.000 C 
ATOM     25  C   UNL     1       7.445   5.110  13.532  0.00  0.00    +0.000 C 
ENDBRANCH  17  25
ENDBRANCH  16  20
ENDBRANCH  15  16
ENDBRANCH   1  15
TORSDOF 4
ENDMDL
MODEL 3
REMARK VINA RESULT:      -7.0      0.927      1.019
REMARK  Name = 
REMARK  5 active torsions:
REMARK  status: ('A' for Active; 'I' for Inactive)
REMARK    1  A    between atoms: C_1  and  C_2
REMARK    2  A    between atoms: C_2  and  C_3
REMARK    3  A    between atoms: C_6  and  O_7
REMARK    4  A    between atoms: O_7  and  C_8
REMARK    5  A    between atoms: C_8  and  C_9
REMARK                            x       y       z     vdW  Elec       q    Type
REMARK                         _______ _______ _______ _____ _____    ______ ____
ROOT
ATOM      1  C   UNL     1       2.971   3.616  18.238  0.00  0.00    +0.000 C 
ATOM      2  O   UNL     1       2.675   2.528  18.739  0.00  0.00    +0.000 OA
ATOM      3  N   UNL     1       2.427   4.811  18.692  0.00  0.00    +0.000 N 
ATOM      4  C   UNL     1       1.627   4.835  19.918  0.00  0.00    +0.000 C 
ATOM      5  C   UNL     1       2.055   5.988  20.856  0.00  0.00    +0.000 C 
ATOM      6  N   UNL     1       2.166   7.265  20.138  0.00  0.00    +0.000 N 
ATOM      7  C   UNL     1       1.387   8.359  20.466  0.00  0.00    +0.000 A 
ATOM      8  C   UNL     1       1.128   8.672  21.802  0.00  0.00    +0.000 A 
ATOM      9  C   UNL     1       0.373   9.799  22.129  0.00  0.00    +0.000 A 
ATOM     10  C   UNL     1      -0.124  10.594  21.111  0.00  0.00    +0.000 A 
ATOM     11  C   UNL     1       0.173  10.227  19.811  0.00  0.00    +0.000 A 
ATOM     12  N   UNL     1       0.917   9.148  19.478  0.00  0.00    +0.000 NA
ATOM     13  C   UNL     1       2.890   7.248  18.858  0.00  0.00    +0.000 C 
ATOM     14  C   UNL     1       2.429   6.087  17.960  0.00  0.00    +0.000 C 
ENDROOT
BRANCH   1  15
ATOM     15  C   UNL     1       4.087   3.708  17.187  0.00  0.00    +0.000 C 
BRANCH  15  16
ATOM     16  O   UNL     1       5.403   3.702  17.695  0.00  0.00    +0.000 OA
BRANCH  16  20
ATOM     17  C   UNL     1       7.779   7.105  18.389  0.00  0.00    +0.000 A 
ATOM     18  C   UNL     1       7.722   6.012  19.248  0.00  0.00    +0.000 A 
ATOM     19  C   UNL     1       6.893   4.922  18.949  0.00  0.00    +0.000 A 
ATOM     20  C   UNL     1       6.098   4.883  17.785  0.00  0.00    +0.000 A 
ATOM     21  C   UNL     1       6.155   5.992  16.924  0.00  0.00    +0.000 A 
ATOM     22 BR   UNL     1       5.200   6.243  15.294  0.00  0.00    +0.000 Br
ATOM     23  C   UNL     1       6.997   7.079  17.230  0.00  0.00    +0.000 A 
BRANCH  17  25
ATOM     24  C   UNL     1       8.266   9.519  17.862  0.00  0.00    +0.000 C 
ATOM     25  C   UNL     1       8.661   8.295  18.674  0.00  0.00    +0.000 C 
ENDBRANCH  17  25
ENDBRANCH  16  20
ENDBRANCH  15  16
ENDBRANCH   1  15
TORSDOF 4
ENDMDL
MODEL 4
REMARK VINA RESULT:      -6.9      2.985      4.732
REMARK  Name = 
REMARK  5 active torsions:
REMARK  status: ('A' for Active; 'I' for Inactive)
REMARK    1  A    between atoms: C_1  and  C_2
REMARK    2  A    between atoms: C_2  and  C_3
REMARK    3  A    between atoms: C_6  and  O_7
REMARK    4  A    between atoms: O_7  and  C_8
REMARK    5  A    between atoms: C_8  and  C_9
REMARK                            x       y       z     vdW  Elec       q    Type
REMARK                         _______ _______ _______ _____ _____    ______ ____
ROOT
ATOM      1  C   UNL     1       2.045   8.500  18.411  0.00  0.00    +0.000 C 
ATOM      2  O   UNL     1       2.434   8.760  17.269  0.00  0.00    +0.000 OA
ATOM      3  N   UNL     1       1.336   9.417  19.176  0.00  0.00    +0.000 N 
ATOM      4  C   UNL     1       0.857  10.662  18.574  0.00  0.00    +0.000 C 
ATOM      5  C   UNL     1      -0.624  10.935  18.929  0.00  0.00    +0.000 C 
ATOM      6  N   UNL     1      -0.880  10.780  20.367  0.00  0.00    +0.000 N 
ATOM      7  C   UNL     1      -1.334  11.826  21.147  0.00  0.00    +0.000 A 
ATOM      8  C   UNL     1      -2.304  12.706  20.661  0.00  0.00    +0.000 A 
ATOM      9  C   UNL     1      -2.787  13.738  21.466  0.00  0.00    +0.000 A 
ATOM     10  C   UNL     1      -2.284  13.883  22.747  0.00  0.00    +0.000 A 
ATOM     11  C   UNL     1      -1.328  12.976  23.165  0.00  0.00    +0.000 A 
ATOM     12  N   UNL     1      -0.861  11.960  22.404  0.00  0.00    +0.000 NA
ATOM     13  C   UNL     1      -0.331   9.578  21.014  0.00  0.00    +0.000 C 
ATOM     14  C   UNL     1       1.142   9.350  20.633  0.00  0.00    +0.000 C 
ENDROOT
BRANCH   1  15
ATOM     15  C   UNL     1       2.190   7.078  18.975  0.00  0.00    +0.000 C 
BRANCH  15  16
ATOM     16  O   UNL     1       3.508   6.579  19.033  0.00  0.00    +0.000 OA
BRANCH  16  20
ATOM     17  C   UNL     1       5.349   4.584  15.818  0.00  0.00    +0.000 A 
ATOM     18  C   UNL     1       5.708   5.859  16.247  0.00  0.00    +0.000 A 
ATOM     19  C   UNL     1       5.033   6.458  17.319  0.00  0.00    +0.000 A 
ATOM     20  C   UNL     1       3.985   5.807  18.002  0.00  0.00    +0.000 A 
ATOM     21  C   UNL     1       3.623   4.524  17.562  0.00  0.00    +0.000 A 
ATOM     22 BR   UNL     1       2.252   3.402  18.263  0.00  0.00    +0.000 Br
ATOM     23  C   UNL     1       4.312   3.927  16.487  0.00  0.00    +0.000 A 
BRANCH  17  25
ATOM     24  C   UNL     1       7.054   4.818  13.980  0.00  0.00    +0.000 C 
ATOM     25  C   UNL     1       6.053   3.905  14.670  0.00  0.00    +0.000 C 
ENDBRANCH  17  25
ENDBRANCH  16  20
ENDBRANCH  15  16
ENDBRANCH   1  15
TORSDOF 4
ENDMDL
MODEL 5
REMARK VINA RESULT:      -6.8      1.361      1.739
REMARK  Name = 
REMARK  5 active torsions:
REMARK  status: ('A' for Active; 'I' for Inactive)
REMARK    1  A    between atoms: C_1  and  C_2
REMARK    2  A    between atoms: C_2  and  C_3
REMARK    3  A    between atoms: C_6  and  O_7
REMARK    4  A    between atoms: O_7  and  C_8
REMARK    5  A    between atoms: C_8  and  C_9
REMARK                            x       y       z     vdW  Elec       q    Type
REMARK                         _______ _______ _______ _____ _____    ______ ____
ROOT
ATOM      1  C   UNL     1       3.529   3.845  19.194  0.00  0.00    +0.000 C 
ATOM      2  O   UNL     1       3.395   3.057  20.134  0.00  0.00    +0.000 OA
ATOM      3  N   UNL     1       2.815   5.034  19.120  0.00  0.00    +0.000 N 
ATOM      4  C   UNL     1       2.018   5.486  20.262  0.00  0.00    +0.000 C 
ATOM      5  C   UNL     1       2.271   6.979  20.580  0.00  0.00    +0.000 C 
ATOM      6  N   UNL     1       2.194   7.815  19.374  0.00  0.00    +0.000 N 
ATOM      7  C   UNL     1       1.264   8.829  19.245  0.00  0.00    +0.000 A 
ATOM      8  C   UNL     1       0.959   9.657  20.327  0.00  0.00    +0.000 A 
ATOM      9  C   UNL     1       0.046  10.702  20.180  0.00  0.00    +0.000 A 
ATOM     10  C   UNL     1      -0.560  10.898  18.952  0.00  0.00    +0.000 A 
ATOM     11  C   UNL     1      -0.210  10.043  17.923  0.00  0.00    +0.000 A 
ATOM     12  N   UNL     1       0.685   9.036  18.044  0.00  0.00    +0.000 NA
ATOM     13  C   UNL     1       2.916   7.336  18.186  0.00  0.00    +0.000 C 
ATOM     14  C   UNL     1       2.632   5.850  17.909  0.00  0.00    +0.000 C 
ENDROOT
BRANCH   1  15
ATOM     15  C   UNL     1       4.621   3.615  18.140  0.00  0.00    +0.000 C 
BRANCH  15  16
ATOM     16  O   UNL     1       5.931   3.957  18.537  0.00  0.00    +0.000 OA
BRANCH  16  20
ATOM     17  C   UNL     1       7.799   7.673  17.891  0.00  0.00    +0.000 A 
ATOM     18  C   UNL     1       7.923   6.937  19.066  0.00  0.00    +0.000 A 
ATOM     19  C   UNL     1       7.256   5.712  19.205  0.00  0.00    +0.000 A 
ATOM     20  C   UNL     1       6.448   5.179  18.180  0.00  0.00    +0.000 A 
ATOM     21  C   UNL     1       6.321   5.928  16.998  0.00  0.00    +0.000 A 
ATOM     22 BR   UNL     1       5.301   5.487  15.450  0.00  0.00    +0.000 Br
ATOM     23  C   UNL     1       7.002   7.155  16.866  0.00  0.00    +0.000 A 
BRANCH  17  25
ATOM     24  C   UNL     1       8.968   9.597  19.019  0.00  0.00    +0.000 C 
ATOM     25  C   UNL     1       8.504   8.993  17.702  0.00  0.00    +0.000 C 
ENDBRANCH  17  25
ENDBRANCH  16  20
ENDBRANCH  15  16
ENDBRANCH   1  15
TORSDOF 4
ENDMDL
MODEL 6
REMARK VINA RESULT:      -6.7      2.194      3.299
REMARK  Name = 
REMARK  5 active torsions:
REMARK  status: ('A' for Active; 'I' for Inactive)
REMARK    1  A    between atoms: C_1  and  C_2
REMARK    2  A    between atoms: C_2  and  C_3
REMARK    3  A    between atoms: C_6  and  O_7
REMARK    4  A    between atoms: O_7  and  C_8
REMARK    5  A    between atoms: C_8  and  C_9
REMARK                            x       y       z     vdW  Elec       q    Type
REMARK                         _______ _______ _______ _____ _____    ______ ____
ROOT
ATOM      1  C   UNL     1       3.090   5.438  19.979  0.00  0.00    +0.000 C 
ATOM      2  O   UNL     1       2.902   4.609  20.873  0.00  0.00    +0.000 OA
ATOM      3  N   UNL     1       2.229   6.509  19.773  0.00  0.00    +0.000 N 
ATOM      4  C   UNL     1       1.171   6.799  20.742  0.00  0.00    +0.000 C 
ATOM      5  C   UNL     1       1.126   8.301  21.108  0.00  0.00    +0.000 C 
ATOM      6  N   UNL     1       1.153   9.156  19.914  0.00  0.00    +0.000 N 
ATOM      7  C   UNL     1       0.120  10.023  19.611  0.00  0.00    +0.000 A 
ATOM      8  C   UNL     1      -0.508  10.759  20.617  0.00  0.00    +0.000 A 
ATOM      9  C   UNL     1      -1.526  11.660  20.301  0.00  0.00    +0.000 A 
ATOM     10  C   UNL     1      -1.910  11.805  18.980  0.00  0.00    +0.000 A 
ATOM     11  C   UNL     1      -1.244  11.046  18.034  0.00  0.00    +0.000 A 
ATOM     12  N   UNL     1      -0.245  10.180  18.321  0.00  0.00    +0.000 NA
ATOM     13  C   UNL     1       2.152   8.830  18.885  0.00  0.00    +0.000 C 
ATOM     14  C   UNL     1       2.157   7.329  18.553  0.00  0.00    +0.000 C 
ENDROOT
BRANCH   1  15
ATOM     15  C   UNL     1       4.385   5.409  19.154  0.00  0.00    +0.000 C 
BRANCH  15  16
ATOM     16  O   UNL     1       4.493   4.350  18.229  0.00  0.00    +0.000 OA
BRANCH  16  20
ATOM     17  C   UNL     1       6.640   4.627  14.620  0.00  0.00    +0.000 A 
ATOM     18  C   UNL     1       5.331   4.165  14.709  0.00  0.00    +0.000 A 
ATOM     19  C   UNL     1       4.691   4.092  15.954  0.00  0.00    +0.000 A 
ATOM     20  C   UNL     1       5.332   4.479  17.149  0.00  0.00    +0.000 A 
ATOM     21  C   UNL     1       6.656   4.938  17.055  0.00  0.00    +0.000 A 
ATOM     22 BR   UNL     1       7.786   5.516  18.476  0.00  0.00    +0.000 Br
ATOM     23  C   UNL     1       7.288   5.015  15.797  0.00  0.00    +0.000 A 
BRANCH  17  25
ATOM     24  C   UNL     1       6.764   3.806  12.243  0.00  0.00    +0.000 C 
ATOM     25  C   UNL     1       7.361   4.723  13.299  0.00  0.00    +0.000 C 
ENDBRANCH  17  25
ENDBRANCH  16  20
ENDBRANCH  15  16
ENDBRANCH   1  15
TORSDOF 4
ENDMDL
MODEL 7
REMARK VINA RESULT:      -6.6      2.614      4.154
REMARK  Name = 
REMARK  5 active torsions:
REMARK  status: ('A' for Active; 'I' for Inactive)
REMARK    1  A    between atoms: C_1  and  C_2
REMARK    2  A    between atoms: C_2  and  C_3
REMARK    3  A    between atoms: C_6  and  O_7
REMARK    4  A    between atoms: O_7  and  C_8
REMARK    5  A    between atoms: C_8  and  C_9
REMARK                            x       y       z     vdW  Elec       q    Type
REMARK                         _______ _______ _______ _____ _____    ______ ____
ROOT
ATOM      1  C   UNL     1       2.420   7.104  19.231  0.00  0.00    +0.000 C 
ATOM      2  O   UNL     1       2.618   6.102  19.922  0.00  0.00    +0.000 OA
ATOM      3  N   UNL     1       1.548   8.112  19.625  0.00  0.00    +0.000 N 
ATOM      4  C   UNL     1       0.981   8.107  20.975  0.00  0.00    +0.000 C 
ATOM      5  C   UNL     1       1.088   9.498  21.644  0.00  0.00    +0.000 C 
ATOM      6  N   UNL     1       0.618  10.570  20.756  0.00  0.00    +0.000 N 
ATOM      7  C   UNL     1      -0.450  11.380  21.089  0.00  0.00    +0.000 A 
ATOM      8  C   UNL     1      -0.610  11.844  22.396  0.00  0.00    +0.000 A 
ATOM      9  C   UNL     1      -1.669  12.693  22.719  0.00  0.00    +0.000 A 
ATOM     10  C   UNL     1      -2.564  13.058  21.728  0.00  0.00    +0.000 A 
ATOM     11  C   UNL     1      -2.345  12.564  20.456  0.00  0.00    +0.000 A 
ATOM     12  N   UNL     1      -1.314  11.754  20.122  0.00  0.00    +0.000 NA
ATOM     13  C   UNL     1       1.105  10.545  19.368  0.00  0.00    +0.000 C 
ATOM     14  C   UNL     1       0.977   9.144  18.746  0.00  0.00    +0.000 C 
ENDROOT
BRANCH   1  15
ATOM     15  C   UNL     1       3.260   7.357  17.970  0.00  0.00    +0.000 C 
BRANCH  15  16
ATOM     16  O   UNL     1       4.534   6.751  17.957  0.00  0.00    +0.000 OA
BRANCH  16  20
ATOM     17  C   UNL     1       5.661   4.387  14.664  0.00  0.00    +0.000 A 
ATOM     18  C   UNL     1       5.696   5.778  14.667  0.00  0.00    +0.000 A 
ATOM     19  C   UNL     1       5.290   6.491  15.803  0.00  0.00    +0.000 A 
ATOM     20  C   UNL     1       4.841   5.844  16.973  0.00  0.00    +0.000 A 
ATOM     21  C   UNL     1       4.803   4.440  16.963  0.00  0.00    +0.000 A 
ATOM     22 BR   UNL     1       4.240   3.286  18.370  0.00  0.00    +0.000 Br
ATOM     23  C   UNL     1       5.220   3.732  15.818  0.00  0.00    +0.000 A 
BRANCH  17  25
ATOM     24  C   UNL     1       5.060   3.608  12.346  0.00  0.00    +0.000 C 
ATOM     25  C   UNL     1       6.093   3.584  13.462  0.00  0.00    +0.000 C 
ENDBRANCH  17  25
ENDBRANCH  16  20
ENDBRANCH  15  16
ENDBRANCH   1  15
TORSDOF 4
ENDMDL
MODEL 8
REMARK VINA RESULT:      -6.5      5.044      9.348
REMARK  Name = 
REMARK  5 active torsions:
REMARK  status: ('A' for Active; 'I' for Inactive)
REMARK    1  A    between atoms: C_1  and  C_2
REMARK    2  A    between atoms: C_2  and  C_3
REMARK    3  A    between atoms: C_6  and  O_7
REMARK    4  A    between atoms: O_7  and  C_8
REMARK    5  A    between atoms: C_8  and  C_9
REMARK                            x       y       z     vdW  Elec       q    Type
REMARK                         _______ _______ _______ _____ _____    ______ ____
ROOT
ATOM      1  C   UNL     1       0.161   9.954  19.482  0.00  0.00    +0.000 C 
ATOM      2  O   UNL     1      -0.252  10.204  20.617  0.00  0.00    +0.000 OA
ATOM      3  N   UNL     1       1.240   9.108  19.259  0.00  0.00    +0.000 N 
ATOM      4  C   UNL     1       1.803   8.328  20.363  0.00  0.00    +0.000 C 
ATOM      5  C   UNL     1       2.017   6.848  19.966  0.00  0.00    +0.000 C 
ATOM      6  N   UNL     1       2.708   6.723  18.675  0.00  0.00    +0.000 N 
ATOM      7  C   UNL     1       3.935   6.097  18.559  0.00  0.00    +0.000 A 
ATOM      8  C   UNL     1       4.206   4.928  19.274  0.00  0.00    +0.000 A 
ATOM      9  C   UNL     1       5.432   4.279  19.125  0.00  0.00    +0.000 A 
ATOM     10  C   UNL     1       6.377   4.815  18.269  0.00  0.00    +0.000 A 
ATOM     11  C   UNL     1       6.042   5.973  17.591  0.00  0.00    +0.000 A 
ATOM     12  N   UNL     1       4.852   6.606  17.711  0.00  0.00    +0.000 NA
ATOM     13  C   UNL     1       2.216   7.564  17.573  0.00  0.00    +0.000 C 
ATOM     14  C   UNL     1       2.021   9.024  18.015  0.00  0.00    +0.000 C 
ENDROOT
BRANCH   1  15
ATOM     15  C   UNL     1      -0.612  10.446  18.249  0.00  0.00    +0.000 C 
BRANCH  15  16
ATOM     16  O   UNL     1      -1.306  11.663  18.412  0.00  0.00    +0.000 OA
BRANCH  16  20
ATOM     17  C   UNL     1      -5.501  11.980  18.468  0.00  0.00    +0.000 A 
ATOM     18  C   UNL     1      -4.685  12.312  19.545  0.00  0.00    +0.000 A 
ATOM     19  C   UNL     1      -3.295  12.164  19.448  0.00  0.00    +0.000 A 
ATOM     20  C   UNL     1      -2.672  11.686  18.276  0.00  0.00    +0.000 A 
ATOM     21  C   UNL     1      -3.501  11.347  17.194  0.00  0.00    +0.000 A 
ATOM     22 BR   UNL     1      -2.969  10.669  15.495  0.00  0.00    +0.000 Br
ATOM     23  C   UNL     1      -4.897  11.506  17.300  0.00  0.00    +0.000 A 
BRANCH  17  25
ATOM     24  C   UNL     1      -7.578  11.629  19.848  0.00  0.00    +0.000 C 
ATOM     25  C   UNL     1      -7.001  12.128  18.532  0.00  0.00    +0.000 C 
ENDBRANCH  17  25
ENDBRANCH  16  20
ENDBRANCH  15  16
ENDBRANCH   1  15
TORSDOF 4
ENDMDL
MODEL 9
REMARK VINA RESULT:      -6.4      3.910      5.529
REMARK  Name = 
REMARK  5 active torsions:
REMARK  status: ('A' for Active; 'I' for Inactive)
REMARK    1  A    between atoms: C_1  and  C_2
REMARK    2  A    between atoms: C_2  and  C_3
REMARK    3  A    between atoms: C_6  and  O_7
REMARK    4  A    between atoms: O_7  and  C_8
REMARK    5  A    between atoms: C_8  and  C_9
REMARK                            x       y       z     vdW  Elec       q    Type
REMARK                         _______ _______ _______ _____ _____    ______ ____
ROOT
ATOM      1  C   UNL     1       1.150   9.090  19.893  0.00  0.00    +0.000 C 
ATOM      2  O   UNL     1       1.703   8.672  20.913  0.00  0.00    +0.000 OA
ATOM      3  N   UNL     1      -0.021   9.837  19.941  0.00  0.00    +0.000 N 
ATOM      4  C   UNL     1      -0.532  10.320  21.225  0.00  0.00    +0.000 C 
ATOM      5  C   UNL     1      -0.924  11.815  21.158  0.00  0.00    +0.000 C 
ATOM      6  N   UNL     1      -1.758  12.110  19.984  0.00  0.00    +0.000 N 
ATOM      7  C   UNL     1      -3.042  12.605  20.105  0.00  0.00    +0.000 A 
ATOM      8  C   UNL     1      -3.343  13.575  21.064  0.00  0.00    +0.000 A 
ATOM      9  C   UNL     1      -4.632  14.099  21.156  0.00  0.00    +0.000 A 
ATOM     10  C   UNL     1      -5.610  13.637  20.293  0.00  0.00    +0.000 A 
ATOM     11  C   UNL     1      -5.243  12.677  19.368  0.00  0.00    +0.000 A 
ATOM     12  N   UNL     1      -3.994  12.171  19.253  0.00  0.00    +0.000 NA
ATOM     13  C   UNL     1      -1.311  11.559  18.696  0.00  0.00    +0.000 C 
ATOM     14  C   UNL     1      -0.935  10.072  18.812  0.00  0.00    +0.000 C 
ENDROOT
BRANCH   1  15
ATOM     15  C   UNL     1       1.829   8.937  18.524  0.00  0.00    +0.000 C 
BRANCH  15  16
ATOM     16  O   UNL     1       1.897   7.620  18.023  0.00  0.00    +0.000 OA
BRANCH  16  20
ATOM     17  C   UNL     1       5.638   5.702  18.215  0.00  0.00    +0.000 A 
ATOM     18  C   UNL     1       5.324   6.697  17.294  0.00  0.00    +0.000 A 
ATOM     19  C   UNL     1       4.047   7.276  17.289  0.00  0.00    +0.000 A 
ATOM     20  C   UNL     1       3.045   6.887  18.202  0.00  0.00    +0.000 A 
ATOM     21  C   UNL     1       3.366   5.879  19.125  0.00  0.00    +0.000 A 
ATOM     22 BR   UNL     1       2.235   5.133  20.466  0.00  0.00    +0.000 Br
ATOM     23  C   UNL     1       4.654   5.308  19.127  0.00  0.00    +0.000 A 
BRANCH  17  25
ATOM     24  C   UNL     1       7.910   5.683  19.301  0.00  0.00    +0.000 C 
ATOM     25  C   UNL     1       7.001   5.057  18.254  0.00  0.00    +0.000 C 
ENDBRANCH  17  25
ENDBRANCH  16  20
ENDBRANCH  15  16
ENDBRANCH   1  15
TORSDOF 4
ENDMDL
