MODEL 1
REMARK VINA RESULT:      -7.7      0.000      0.000
REMARK  Name = 
REMARK  7 active torsions:
REMARK  status: ('A' for Active; 'I' for Inactive)
REMARK    1  A    between atoms: C_1  and  C_2
REMARK    2  A    between atoms: C_7  and  S_8
REMARK    3  A    between atoms: S_8  and  N_11
REMARK    4  A    between atoms: N_15  and  C_16
REMARK    5  A    between atoms: C_16  and  C_17
REMARK    6  A    between atoms: C_17  and  C_18
REMARK    7  A    between atoms: C_18  and  C_19
REMARK                            x       y       z     vdW  Elec       q    Type
REMARK                         _______ _______ _______ _____ _____    ______ ____
ROOT
ATOM      1  N   UNL     1       7.163   4.718  16.098  0.00  0.00    +0.000 N 
ATOM      2  C   UNL     1       6.963   4.553  14.739  0.00  0.00    +0.000 A 
ATOM      3  C   UNL     1       7.715   5.182  13.733  0.00  0.00    +0.000 A 
ATOM      4  C   UNL     1       7.247   4.648  12.554  0.00  0.00    +0.000 A 
ATOM      5  N   UNL     1       6.268   3.762  12.914  0.00  0.00    +0.000 N 
ATOM      6  N   UNL     1       6.112   3.654  14.252  0.00  0.00    +0.000 NA
ATOM      7  H   UNL     1       7.247   3.869  16.648  0.00  0.00    +0.000 HD
ENDROOT
BRANCH   1   8
ATOM      8  S   UNL     1       6.394   5.949  16.938  0.00  0.00    +0.000 S 
ATOM      9  O   UNL     1       6.012   6.989  16.008  0.00  0.00    +0.000 OA
ATOM     10  O   UNL     1       7.241   6.252  18.082  0.00  0.00    +0.000 OA
BRANCH   8  17
ATOM     11  C   UNL     1       3.337   1.785  18.144  0.00  0.00    +0.000 C 
ATOM     12  C   UNL     1       3.568   3.270  18.178  0.00  0.00    +0.000 A 
ATOM     13  C   UNL     1       2.626   4.117  18.775  0.00  0.00    +0.000 A 
ATOM     14  C   UNL     1       2.832   5.493  18.784  0.00  0.00    +0.000 A 
ATOM     15  F   UNL     1       1.920   6.290  19.357  0.00  0.00    +0.000 F 
ATOM     16  C   UNL     1       3.959   6.060  18.203  0.00  0.00    +0.000 A 
ATOM     17  C   UNL     1       4.897   5.227  17.590  0.00  0.00    +0.000 A 
ATOM     18  C   UNL     1       4.721   3.833  17.602  0.00  0.00    +0.000 A 
ENDBRANCH   8  17
ENDBRANCH   1   8
BRANCH   5  19
ATOM     19  C   UNL     1       5.415   3.019  12.008  0.00  0.00    +0.000 C 
BRANCH  19  20
ATOM     20  C   UNL     1       4.216   3.830  11.495  0.00  0.00    +0.000 C 
BRANCH  20  21
ATOM     21  C   UNL     1       3.402   3.112  10.415  0.00  0.00    +0.000 C 
BRANCH  21  22
ATOM     22  C   UNL     1       2.791   4.133   9.471  0.00  0.00    +0.000 C 
ATOM     23  N   UNL     1       2.282   4.982   8.688  0.00  0.00    +0.000 NA
ENDBRANCH  21  22
ENDBRANCH  20  21
ENDBRANCH  19  20
ENDBRANCH   5  19
TORSDOF 6
ENDMDL
MODEL 2
REMARK VINA RESULT:      -7.5      1.377      1.908
REMARK  Name = 
REMARK  7 active torsions:
REMARK  status: ('A' for Active; 'I' for Inactive)
REMARK    1  A    between atoms: C_1  and  C_2
REMARK    2  A    between atoms: C_7  and  S_8
REMARK    3  A    between atoms: S_8  and  N_11
REMARK    4  A    between atoms: N_15  and  C_16
REMARK    5  A    between atoms: C_16  and  C_17
REMARK    6  A    between atoms: C_17  and  C_18
REMARK    7  A    between atoms: C_18  and  C_19
REMARK                            x       y       z     vdW  Elec       q    Type
REMARK                         _______ _______ _______ _____ _____    ______ ____
ROOT
ATOM      1  N   UNL     1       6.508   4.339  16.504  0.00  0.00    +0.000 N 
ATOM      2  C   UNL     1       6.600   4.327  15.124  0.00  0.00    +0.000 A 
ATOM      3  C   UNL     1       7.565   5.024  14.375  0.00  0.00    +0.000 A 
ATOM      4  C   UNL     1       7.348   4.639  13.072  0.00  0.00    +0.000 A 
ATOM      5  N   UNL     1       6.296   3.766  13.116  0.00  0.00    +0.000 N 
ATOM      6  N   UNL     1       5.854   3.525  14.369  0.00  0.00    +0.000 NA
ATOM      7  H   UNL     1       6.454   3.434  16.959  0.00  0.00    +0.000 HD
ENDROOT
BRANCH   1   8
ATOM      8  S   UNL     1       5.605   5.508  17.296  0.00  0.00    +0.000 S 
ATOM      9  O   UNL     1       5.109   6.461  16.326  0.00  0.00    +0.000 OA
ATOM     10  O   UNL     1       6.411   5.951  18.423  0.00  0.00    +0.000 OA
BRANCH   8  17
ATOM     11  C   UNL     1       1.526   5.140  20.668  0.00  0.00    +0.000 C 
ATOM     12  C   UNL     1       2.302   4.570  19.513  0.00  0.00    +0.000 A 
ATOM     13  C   UNL     1       1.899   3.369  18.915  0.00  0.00    +0.000 A 
ATOM     14  C   UNL     1       2.634   2.834  17.862  0.00  0.00    +0.000 A 
ATOM     15  F   UNL     1       2.235   1.683  17.303  0.00  0.00    +0.000 F 
ATOM     16  C   UNL     1       3.777   3.461  17.384  0.00  0.00    +0.000 A 
ATOM     17  C   UNL     1       4.197   4.650  17.982  0.00  0.00    +0.000 A 
ATOM     18  C   UNL     1       3.449   5.223  19.024  0.00  0.00    +0.000 A 
ENDBRANCH   8  17
ENDBRANCH   1   8
BRANCH   5  19
ATOM     19  C   UNL     1       5.640   3.163  11.973  0.00  0.00    +0.000 C 
BRANCH  19  20
ATOM     20  C   UNL     1       4.184   3.618  11.793  0.00  0.00    +0.000 C 
BRANCH  20  21
ATOM     21  C   UNL     1       3.454   2.912  10.646  0.00  0.00    +0.000 C 
BRANCH  21  22
ATOM     22  C   UNL     1       2.921   3.945   9.668  0.00  0.00    +0.000 C 
ATOM     23  N   UNL     1       2.478   4.802   8.854  0.00  0.00    +0.000 NA
ENDBRANCH  21  22
ENDBRANCH  20  21
ENDBRANCH  19  20
ENDBRANCH   5  19
TORSDOF 6
ENDMDL
MODEL 3
REMARK VINA RESULT:      -7.3      3.467      7.233
REMARK  Name = 
REMARK  7 active torsions:
REMARK  status: ('A' for Active; 'I' for Inactive)
REMARK    1  A    between atoms: C_1  and  C_2
REMARK    2  A    between atoms: C_7  and  S_8
REMARK    3  A    between atoms: S_8  and  N_11
REMARK    4  A    between atoms: N_15  and  C_16
REMARK    5  A    between atoms: C_16  and  C_17
REMARK    6  A    between atoms: C_17  and  C_18
REMARK    7  A    between atoms: C_18  and  C_19
REMARK                            x       y       z     vdW  Elec       q    Type
REMARK                         _______ _______ _______ _____ _____    ______ ____
ROOT
ATOM      1  N   UNL     1       5.733   3.741  17.224  0.00  0.00    +0.000 N 
ATOM      2  C   UNL     1       4.569   4.325  17.694  0.00  0.00    +0.000 A 
ATOM      3  C   UNL     1       3.482   4.710  16.891  0.00  0.00    +0.000 A 
ATOM      4  C   UNL     1       2.518   5.134  17.779  0.00  0.00    +0.000 A 
ATOM      5  N   UNL     1       3.073   4.987  19.021  0.00  0.00    +0.000 N 
ATOM      6  N   UNL     1       4.311   4.447  18.993  0.00  0.00    +0.000 NA
ATOM      7  H   UNL     1       6.029   2.890  17.689  0.00  0.00    +0.000 HD
ENDROOT
BRANCH   1   8
ATOM      8  S   UNL     1       7.029   4.683  16.729  0.00  0.00    +0.000 S 
ATOM      9  O   UNL     1       8.255   4.095  17.223  0.00  0.00    +0.000 OA
ATOM     10  O   UNL     1       6.682   6.057  17.057  0.00  0.00    +0.000 OA
BRANCH   8  17
ATOM     11  C   UNL     1       5.233   2.752  12.126  0.00  0.00    +0.000 C 
ATOM     12  C   UNL     1       6.141   3.698  12.864  0.00  0.00    +0.000 A 
ATOM     13  C   UNL     1       6.992   4.555  12.156  0.00  0.00    +0.000 A 
ATOM     14  C   UNL     1       7.846   5.412  12.844  0.00  0.00    +0.000 A 
ATOM     15  F   UNL     1       8.656   6.225  12.151  0.00  0.00    +0.000 F 
ATOM     16  C   UNL     1       7.885   5.436  14.231  0.00  0.00    +0.000 A 
ATOM     17  C   UNL     1       7.053   4.574  14.947  0.00  0.00    +0.000 A 
ATOM     18  C   UNL     1       6.159   3.727  14.270  0.00  0.00    +0.000 A 
ENDBRANCH   8  17
ENDBRANCH   1   8
BRANCH   5  19
ATOM     19  C   UNL     1       2.472   5.391  20.276  0.00  0.00    +0.000 C 
BRANCH  19  20
ATOM     20  C   UNL     1       1.074   4.796  20.504  0.00  0.00    +0.000 C 
BRANCH  20  21
ATOM     21  C   UNL     1       1.024   3.271  20.371  0.00  0.00    +0.000 C 
BRANCH  21  22
ATOM     22  C   UNL     1       2.081   2.645  21.264  0.00  0.00    +0.000 C 
ATOM     23  N   UNL     1       2.960   2.124  22.005  0.00  0.00    +0.000 NA
ENDBRANCH  21  22
ENDBRANCH  20  21
ENDBRANCH  19  20
ENDBRANCH   5  19
TORSDOF 6
ENDMDL
MODEL 4
REMARK VINA RESULT:      -7.2      4.064      6.646
REMARK  Name = 
REMARK  7 active torsions:
REMARK  status: ('A' for Active; 'I' for Inactive)
REMARK    1  A    between atoms: C_1  and  C_2
REMARK    2  A    between atoms: C_7  and  S_8
REMARK    3  A    between atoms: S_8  and  N_11
REMARK    4  A    between atoms: N_15  and  C_16
REMARK    5  A    between atoms: C_16  and  C_17
REMARK    6  A    between atoms: C_17  and  C_18
REMARK    7  A    between atoms: C_18  and  C_19
REMARK                            x       y       z     vdW  Elec       q    Type
REMARK                         _______ _______ _______ _____ _____    ______ ____
ROOT
ATOM      1  N   UNL     1       7.077   5.575  15.772  0.00  0.00    +0.000 N 
ATOM      2  C   UNL     1       7.444   6.143  16.979  0.00  0.00    +0.000 A 
ATOM      3  C   UNL     1       7.522   5.456  18.202  0.00  0.00    +0.000 A 
ATOM      4  C   UNL     1       8.026   6.375  19.095  0.00  0.00    +0.000 A 
ATOM      5  N   UNL     1       8.208   7.524  18.375  0.00  0.00    +0.000 N 
ATOM      6  N   UNL     1       7.903   7.389  17.066  0.00  0.00    +0.000 NA
ATOM      7  H   UNL     1       7.700   5.740  14.989  0.00  0.00    +0.000 HD
ENDROOT
BRANCH   1   8
ATOM      8  S   UNL     1       5.468   5.508  15.306  0.00  0.00    +0.000 S 
ATOM      9  O   UNL     1       5.320   4.520  14.260  0.00  0.00    +0.000 OA
ATOM     10  O   UNL     1       5.050   6.885  15.090  0.00  0.00    +0.000 OA
BRANCH   8  17
ATOM     11  C   UNL     1       2.425   6.299  19.578  0.00  0.00    +0.000 C 
ATOM     12  C   UNL     1       3.123   5.345  18.649  0.00  0.00    +0.000 A 
ATOM     13  C   UNL     1       3.040   3.964  18.863  0.00  0.00    +0.000 A 
ATOM     14  C   UNL     1       3.707   3.086  18.013  0.00  0.00    +0.000 A 
ATOM     15  F   UNL     1       3.618   1.767  18.233  0.00  0.00    +0.000 F 
ATOM     16  C   UNL     1       4.470   3.547  16.949  0.00  0.00    +0.000 A 
ATOM     17  C   UNL     1       4.574   4.923  16.737  0.00  0.00    +0.000 A 
ATOM     18  C   UNL     1       3.880   5.822  17.563  0.00  0.00    +0.000 A 
ENDBRANCH   8  17
ENDBRANCH   1   8
BRANCH   5  19
ATOM     19  C   UNL     1       8.635   8.804  18.906  0.00  0.00    +0.000 C 
BRANCH  19  20
ATOM     20  C   UNL     1       8.525   9.953  17.893  0.00  0.00    +0.000 C 
BRANCH  20  21
ATOM     21  C   UNL     1       9.570  11.053  18.092  0.00  0.00    +0.000 C 
BRANCH  21  22
ATOM     22  C   UNL     1       8.903  12.415  18.002  0.00  0.00    +0.000 C 
ATOM     23  N   UNL     1       8.350  13.547  17.926  0.00  0.00    +0.000 NA
ENDBRANCH  21  22
ENDBRANCH  20  21
ENDBRANCH  19  20
ENDBRANCH   5  19
TORSDOF 6
ENDMDL
MODEL 5
REMARK VINA RESULT:      -7.1      2.491      3.085
REMARK  Name = 
REMARK  7 active torsions:
REMARK  status: ('A' for Active; 'I' for Inactive)
REMARK    1  A    between atoms: C_1  and  C_2
REMARK    2  A    between atoms: C_7  and  S_8
REMARK    3  A    between atoms: S_8  and  N_11
REMARK    4  A    between atoms: N_15  and  C_16
REMARK    5  A    between atoms: C_16  and  C_17
REMARK    6  A    between atoms: C_17  and  C_18
REMARK    7  A    between atoms: C_18  and  C_19
REMARK                            x       y       z     vdW  Elec       q    Type
REMARK                         _______ _______ _______ _____ _____    ______ ____
ROOT
ATOM      1  N   UNL     1       6.901   4.273  17.644  0.00  0.00    +0.000 N 
ATOM      2  C   UNL     1       6.786   4.446  16.276  0.00  0.00    +0.000 A 
ATOM      3  C   UNL     1       7.576   5.316  15.506  0.00  0.00    +0.000 A 
ATOM      4  C   UNL     1       7.195   5.083  14.204  0.00  0.00    +0.000 A 
ATOM      5  N   UNL     1       6.225   4.120  14.272  0.00  0.00    +0.000 N 
ATOM      6  N   UNL     1       5.994   3.682  15.528  0.00  0.00    +0.000 NA
ATOM      7  H   UNL     1       6.979   3.316  17.972  0.00  0.00    +0.000 HD
ENDROOT
BRANCH   1   8
ATOM      8  S   UNL     1       6.046   5.245  18.709  0.00  0.00    +0.000 S 
ATOM      9  O   UNL     1       5.645   6.456  18.026  0.00  0.00    +0.000 OA
ATOM     10  O   UNL     1       6.838   5.309  19.927  0.00  0.00    +0.000 OA
BRANCH   8  17
ATOM     11  C   UNL     1       1.115   4.933  20.641  0.00  0.00    +0.000 C 
ATOM     12  C   UNL     1       2.278   4.270  19.955  0.00  0.00    +0.000 A 
ATOM     13  C   UNL     1       2.197   2.926  19.571  0.00  0.00    +0.000 A 
ATOM     14  C   UNL     1       3.284   2.311  18.957  0.00  0.00    +0.000 A 
ATOM     15  F   UNL     1       3.191   1.023  18.597  0.00  0.00    +0.000 F 
ATOM     16  C   UNL     1       4.466   2.999  18.719  0.00  0.00    +0.000 A 
ATOM     17  C   UNL     1       4.564   4.334  19.113  0.00  0.00    +0.000 A 
ATOM     18  C   UNL     1       3.465   4.981  19.702  0.00  0.00    +0.000 A 
ENDBRANCH   8  17
ENDBRANCH   1   8
BRANCH   5  19
ATOM     19  C   UNL     1       5.450   3.611  13.157  0.00  0.00    +0.000 C 
BRANCH  19  20
ATOM     20  C   UNL     1       6.290   2.831  12.135  0.00  0.00    +0.000 C 
BRANCH  20  21
ATOM     21  C   UNL     1       5.455   2.026  11.135  0.00  0.00    +0.000 C 
BRANCH  21  22
ATOM     22  C   UNL     1       5.879   0.568  11.172  0.00  0.00    +0.000 C 
ATOM     23  N   UNL     1       6.231  -0.644  11.202  0.00  0.00    +0.000 NA
ENDBRANCH  21  22
ENDBRANCH  20  21
ENDBRANCH  19  20
ENDBRANCH   5  19
TORSDOF 6
ENDMDL
MODEL 6
REMARK VINA RESULT:      -7.1      3.483      7.060
REMARK  Name = 
REMARK  7 active torsions:
REMARK  status: ('A' for Active; 'I' for Inactive)
REMARK    1  A    between atoms: C_1  and  C_2
REMARK    2  A    between atoms: C_7  and  S_8
REMARK    3  A    between atoms: S_8  and  N_11
REMARK    4  A    between atoms: N_15  and  C_16
REMARK    5  A    between atoms: C_16  and  C_17
REMARK    6  A    between atoms: C_17  and  C_18
REMARK    7  A    between atoms: C_18  and  C_19
REMARK                            x       y       z     vdW  Elec       q    Type
REMARK                         _______ _______ _______ _____ _____    ______ ____
ROOT
ATOM      1  N   UNL     1       5.687   3.638  17.511  0.00  0.00    +0.000 N 
ATOM      2  C   UNL     1       4.570   3.160  18.171  0.00  0.00    +0.000 A 
ATOM      3  C   UNL     1       3.567   2.368  17.587  0.00  0.00    +0.000 A 
ATOM      4  C   UNL     1       2.725   2.038  18.625  0.00  0.00    +0.000 A 
ATOM      5  N   UNL     1       3.255   2.639  19.734  0.00  0.00    +0.000 N 
ATOM      6  N   UNL     1       4.412   3.291  19.486  0.00  0.00    +0.000 NA
ATOM      7  H   UNL     1       6.582   3.468  17.957  0.00  0.00    +0.000 HD
ENDROOT
BRANCH   1   8
ATOM      8  S   UNL     1       5.646   5.107  16.703  0.00  0.00    +0.000 S 
ATOM      9  O   UNL     1       6.590   6.013  17.322  0.00  0.00    +0.000 OA
ATOM     10  O   UNL     1       4.242   5.467  16.585  0.00  0.00    +0.000 OA
BRANCH   8  17
ATOM     11  C   UNL     1       5.106   2.903  11.909  0.00  0.00    +0.000 C 
ATOM     12  C   UNL     1       5.888   3.782  12.845  0.00  0.00    +0.000 A 
ATOM     13  C   UNL     1       7.071   4.395  12.414  0.00  0.00    +0.000 A 
ATOM     14  C   UNL     1       7.804   5.189  13.292  0.00  0.00    +0.000 A 
ATOM     15  F   UNL     1       8.934   5.767  12.864  0.00  0.00    +0.000 F 
ATOM     16  C   UNL     1       7.395   5.386  14.604  0.00  0.00    +0.000 A 
ATOM     17  C   UNL     1       6.226   4.766  15.049  0.00  0.00    +0.000 A 
ATOM     18  C   UNL     1       5.455   3.989  14.167  0.00  0.00    +0.000 A 
ENDBRANCH   8  17
ENDBRANCH   1   8
BRANCH   5  19
ATOM     19  C   UNL     1       2.666   2.657  21.058  0.00  0.00    +0.000 C 
BRANCH  19  20
ATOM     20  C   UNL     1       2.254   4.061  21.524  0.00  0.00    +0.000 C 
BRANCH  20  21
ATOM     21  C   UNL     1       1.321   4.785  20.550  0.00  0.00    +0.000 C 
BRANCH  21  22
ATOM     22  C   UNL     1       2.060   5.942  19.898  0.00  0.00    +0.000 C 
ATOM     23  N   UNL     1       2.674   6.902  19.358  0.00  0.00    +0.000 NA
ENDBRANCH  21  22
ENDBRANCH  20  21
ENDBRANCH  19  20
ENDBRANCH   5  19
TORSDOF 6
ENDMDL
MODEL 7
REMARK VINA RESULT:      -7.1      3.844      6.485
REMARK  Name = 
REMARK  7 active torsions:
REMARK  status: ('A' for Active; 'I' for Inactive)
REMARK    1  A    between atoms: C_1  and  C_2
REMARK    2  A    between atoms: C_7  and  S_8
REMARK    3  A    between atoms: S_8  and  N_11
REMARK    4  A    between atoms: N_15  and  C_16
REMARK    5  A    between atoms: C_16  and  C_17
REMARK    6  A    between atoms: C_17  and  C_18
REMARK    7  A    between atoms: C_18  and  C_19
REMARK                            x       y       z     vdW  Elec       q    Type
REMARK                         _______ _______ _______ _____ _____    ______ ____
ROOT
ATOM      1  N   UNL     1       7.055   5.512  15.754  0.00  0.00    +0.000 N 
ATOM      2  C   UNL     1       7.415   6.070  16.967  0.00  0.00    +0.000 A 
ATOM      3  C   UNL     1       7.462   5.378  18.189  0.00  0.00    +0.000 A 
ATOM      4  C   UNL     1       7.971   6.285  19.091  0.00  0.00    +0.000 A 
ATOM      5  N   UNL     1       8.186   7.433  18.378  0.00  0.00    +0.000 N 
ATOM      6  N   UNL     1       7.896   7.306  17.064  0.00  0.00    +0.000 NA
ATOM      7  H   UNL     1       7.692   5.667  14.979  0.00  0.00    +0.000 HD
ENDROOT
BRANCH   1   8
ATOM      8  S   UNL     1       5.451   5.478  15.264  0.00  0.00    +0.000 S 
ATOM      9  O   UNL     1       5.293   4.473  14.235  0.00  0.00    +0.000 OA
ATOM     10  O   UNL     1       5.072   6.860  15.015  0.00  0.00    +0.000 OA
BRANCH   8  17
ATOM     11  C   UNL     1       3.558   1.712  18.485  0.00  0.00    +0.000 C 
ATOM     12  C   UNL     1       3.734   3.172  18.168  0.00  0.00    +0.000 A 
ATOM     13  C   UNL     1       3.212   4.147  19.025  0.00  0.00    +0.000 A 
ATOM     14  C   UNL     1       3.358   5.496  18.716  0.00  0.00    +0.000 A 
ATOM     15  F   UNL     1       2.850   6.418  19.546  0.00  0.00    +0.000 F 
ATOM     16  C   UNL     1       4.010   5.909  17.562  0.00  0.00    +0.000 A 
ATOM     17  C   UNL     1       4.521   4.944  16.692  0.00  0.00    +0.000 A 
ATOM     18  C   UNL     1       4.413   3.579  17.005  0.00  0.00    +0.000 A 
ENDBRANCH   8  17
ENDBRANCH   1   8
BRANCH   5  19
ATOM     19  C   UNL     1       8.630   8.702  18.918  0.00  0.00    +0.000 C 
BRANCH  19  20
ATOM     20  C   UNL     1       8.642   9.836  17.882  0.00  0.00    +0.000 C 
BRANCH  20  21
ATOM     21  C   UNL     1       8.991  11.206  18.471  0.00  0.00    +0.000 C 
BRANCH  21  22
ATOM     22  C   UNL     1      10.361  11.641  17.978  0.00  0.00    +0.000 C 
ATOM     23  N   UNL     1      11.499  12.001  17.570  0.00  0.00    +0.000 NA
ENDBRANCH  21  22
ENDBRANCH  20  21
ENDBRANCH  19  20
ENDBRANCH   5  19
TORSDOF 6
ENDMDL
MODEL 8
REMARK VINA RESULT:      -7.0      3.397      4.902
REMARK  Name = 
REMARK  7 active torsions:
REMARK  status: ('A' for Active; 'I' for Inactive)
REMARK    1  A    between atoms: C_1  and  C_2
REMARK    2  A    between atoms: C_7  and  S_8
REMARK    3  A    between atoms: S_8  and  N_11
REMARK    4  A    between atoms: N_15  and  C_16
REMARK    5  A    between atoms: C_16  and  C_17
REMARK    6  A    between atoms: C_17  and  C_18
REMARK    7  A    between atoms: C_18  and  C_19
REMARK                            x       y       z     vdW  Elec       q    Type
REMARK                         _______ _______ _______ _____ _____    ______ ____
ROOT
ATOM      1  N   UNL     1       4.475   5.681  18.856  0.00  0.00    +0.000 N 
ATOM      2  C   UNL     1       4.892   5.568  17.541  0.00  0.00    +0.000 A 
ATOM      3  C   UNL     1       4.854   6.605  16.594  0.00  0.00    +0.000 A 
ATOM      4  C   UNL     1       5.459   6.084  15.473  0.00  0.00    +0.000 A 
ATOM      5  N   UNL     1       5.807   4.803  15.805  0.00  0.00    +0.000 N 
ATOM      6  N   UNL     1       5.511   4.484  17.084  0.00  0.00    +0.000 NA
ATOM      7  H   UNL     1       5.129   5.365  19.564  0.00  0.00    +0.000 HD
ENDROOT
BRANCH   1   8
ATOM      8  S   UNL     1       2.881   5.385  19.282  0.00  0.00    +0.000 S 
ATOM      9  O   UNL     1       2.849   4.741  20.577  0.00  0.00    +0.000 OA
ATOM     10  O   UNL     1       2.261   4.755  18.126  0.00  0.00    +0.000 OA
BRANCH   8  17
ATOM     11  C   UNL     1       0.424   9.125  22.131  0.00  0.00    +0.000 C 
ATOM     12  C   UNL     1       1.052   8.694  20.834  0.00  0.00    +0.000 A 
ATOM     13  C   UNL     1       1.098   9.573  19.746  0.00  0.00    +0.000 A 
ATOM     14  C   UNL     1       1.659   9.161  18.541  0.00  0.00    +0.000 A 
ATOM     15  F   UNL     1       1.693  10.014  17.508  0.00  0.00    +0.000 F 
ATOM     16  C   UNL     1       2.176   7.882  18.382  0.00  0.00    +0.000 A 
ATOM     17  C   UNL     1       2.121   6.992  19.455  0.00  0.00    +0.000 A 
ATOM     18  C   UNL     1       1.589   7.401  20.690  0.00  0.00    +0.000 A 
ENDBRANCH   8  17
ENDBRANCH   1   8
BRANCH   5  19
ATOM     19  C   UNL     1       6.391   3.820  14.914  0.00  0.00    +0.000 C 
BRANCH  19  20
ATOM     20  C   UNL     1       5.742   3.796  13.522  0.00  0.00    +0.000 C 
BRANCH  20  21
ATOM     21  C   UNL     1       6.739   3.983  12.374  0.00  0.00    +0.000 C 
BRANCH  21  22
ATOM     22  C   UNL     1       7.757   5.047  12.748  0.00  0.00    +0.000 C 
ATOM     23  N   UNL     1       8.603   5.929  13.059  0.00  0.00    +0.000 NA
ENDBRANCH  21  22
ENDBRANCH  20  21
ENDBRANCH  19  20
ENDBRANCH   5  19
TORSDOF 6
ENDMDL
MODEL 9
REMARK VINA RESULT:      -7.0      5.059      8.266
REMARK  Name = 
REMARK  7 active torsions:
REMARK  status: ('A' for Active; 'I' for Inactive)
REMARK    1  A    between atoms: C_1  and  C_2
REMARK    2  A    between atoms: C_7  and  S_8
REMARK    3  A    between atoms: S_8  and  N_11
REMARK    4  A    between atoms: N_15  and  C_16
REMARK    5  A    between atoms: C_16  and  C_17
REMARK    6  A    between atoms: C_17  and  C_18
REMARK    7  A    between atoms: C_18  and  C_19
REMARK                            x       y       z     vdW  Elec       q    Type
REMARK                         _______ _______ _______ _____ _____    ______ ____
ROOT
ATOM      1  N   UNL     1       2.199   4.027  18.550  0.00  0.00    +0.000 N 
ATOM      2  C   UNL     1       2.227   5.349  18.956  0.00  0.00    +0.000 A 
ATOM      3  C   UNL     1       2.560   6.437  18.131  0.00  0.00    +0.000 A 
ATOM      4  C   UNL     1       2.350   7.552  18.911  0.00  0.00    +0.000 A 
ATOM      5  N   UNL     1       1.922   7.078  20.121  0.00  0.00    +0.000 N 
ATOM      6  N   UNL     1       1.794   5.734  20.153  0.00  0.00    +0.000 NA
ATOM      7  H   UNL     1       1.355   3.507  18.765  0.00  0.00    +0.000 HD
ENDROOT
BRANCH   1   8
ATOM      8  S   UNL     1       3.575   3.072  18.635  0.00  0.00    +0.000 S 
ATOM      9  O   UNL     1       3.374   1.881  17.837  0.00  0.00    +0.000 OA
ATOM     10  O   UNL     1       3.914   2.970  20.046  0.00  0.00    +0.000 OA
BRANCH   8  17
ATOM     11  C   UNL     1       7.874   6.171  18.861  0.00  0.00    +0.000 C 
ATOM     12  C   UNL     1       6.884   5.395  18.038  0.00  0.00    +0.000 A 
ATOM     13  C   UNL     1       6.997   5.365  16.643  0.00  0.00    +0.000 A 
ATOM     14  C   UNL     1       6.064   4.664  15.883  0.00  0.00    +0.000 A 
ATOM     15  F   UNL     1       6.185   4.647  14.549  0.00  0.00    +0.000 F 
ATOM     16  C   UNL     1       5.006   3.990  16.478  0.00  0.00    +0.000 A 
ATOM     17  C   UNL     1       4.874   4.027  17.867  0.00  0.00    +0.000 A 
ATOM     18  C   UNL     1       5.826   4.700  18.651  0.00  0.00    +0.000 A 
ENDBRANCH   8  17
ENDBRANCH   1   8
BRANCH   5  19
ATOM     19  C   UNL     1       1.661   7.874  21.304  0.00  0.00    +0.000 C 
BRANCH  19  20
ATOM     20  C   UNL     1       0.575   8.940  21.095  0.00  0.00    +0.000 C 
BRANCH  20  21
ATOM     21  C   UNL     1      -0.462   8.993  22.220  0.00  0.00    +0.000 C 
BRANCH  21  22
ATOM     22  C   UNL     1      -0.606  10.421  22.717  0.00  0.00    +0.000 C 
ATOM     23  N   UNL     1      -0.726  11.607  23.131  0.00  0.00    +0.000 NA
ENDBRANCH  21  22
ENDBRANCH  20  21
ENDBRANCH  19  20
ENDBRANCH   5  19
TORSDOF 6
ENDMDL
