MODEL 1
REMARK VINA RESULT:      -6.6      0.000      0.000
REMARK  Name = 
REMARK  9 active torsions:
REMARK  status: ('A' for Active; 'I' for Inactive)
REMARK    1  A    between atoms: C_1  and  C_2
REMARK    2  A    between atoms: C_2  and  N_3
REMARK    3  A    between atoms: N_3  and  C_4
REMARK    4  A    between atoms: C_4  and  C_5
REMARK    5  A    between atoms: N_9  and  C_10
REMARK    6  A    between atoms: C_11  and  C_13
REMARK    7  A    between atoms: C_13  and  C_14
REMARK    8  A    between atoms: C_13  and  C_15
REMARK    9  A    between atoms: C_15  and  N_16
REMARK                            x       y       z     vdW  Elec       q    Type
REMARK                         _______ _______ _______ _____ _____    ______ ____
ROOT
ATOM      1  N   UNL     1       5.657   4.400  16.461  0.00  0.00    +0.000 N 
ATOM      2  C   UNL     1       4.581   3.983  17.235  0.00  0.00    +0.000 C 
ATOM      3  O   UNL     1       3.442   3.906  16.754  0.00  0.00    +0.000 OA
ENDROOT
BRANCH   1   5
ATOM      4  C   UNL     1       6.250   3.883  14.090  0.00  0.00    +0.000 C 
ATOM      5  C   UNL     1       5.389   4.689  15.052  0.00  0.00    +0.000 C 
ENDBRANCH   1   5
BRANCH   2   6
ATOM      6  C   UNL     1       4.760   3.718  18.727  0.00  0.00    +0.000 C 
ATOM      7  C   UNL     1       4.186   4.901  19.512  0.00  0.00    +0.000 C 
BRANCH   6   8
ATOM      8  C   UNL     1       3.994   2.445  19.112  0.00  0.00    +0.000 C 
BRANCH   8   9
ATOM      9  N   UNL     1       2.914   2.703  20.042  0.00  0.00    +0.000 N 
ATOM     10  C   UNL     1       2.939   2.613  21.400  0.00  0.00    +0.000 A 
ATOM     11  N   UNL     1       1.760   2.932  21.880  0.00  0.00    +0.000 NA
ATOM     12  C   UNL     1       1.040   3.214  20.752  0.00  0.00    +0.000 A 
ATOM     13  N   UNL     1       1.693   3.044  19.601  0.00  0.00    +0.000 NA
ENDBRANCH   8   9
ENDBRANCH   6   8
ENDBRANCH   2   6
BRANCH   1  14
ATOM     14  C   UNL     1       7.029   4.605  16.943  0.00  0.00    +0.000 C 
BRANCH  14  15
ATOM     15  C   UNL     1       7.295   6.009  17.407  0.00  0.00    +0.000 A 
ATOM     16  N   UNL     1       7.194   7.097  16.664  0.00  0.00    +0.000 NA
ATOM     17  C   UNL     1       7.727   8.121  17.405  0.00  0.00    +0.000 A 
ATOM     18  C   UNL     1       8.166   7.660  18.621  0.00  0.00    +0.000 A 
ATOM     19  N   UNL     1       7.830   6.333  18.638  0.00  0.00    +0.000 N 
ATOM     20  C   UNL     1       8.029   5.453  19.762  0.00  0.00    +0.000 C 
ENDBRANCH  14  15
ENDBRANCH   1  14
TORSDOF 6
ENDMDL
MODEL 2
REMARK VINA RESULT:      -6.5      1.901      5.977
REMARK  Name = 
REMARK  9 active torsions:
REMARK  status: ('A' for Active; 'I' for Inactive)
REMARK    1  A    between atoms: C_1  and  C_2
REMARK    2  A    between atoms: C_2  and  N_3
REMARK    3  A    between atoms: N_3  and  C_4
REMARK    4  A    between atoms: C_4  and  C_5
REMARK    5  A    between atoms: N_9  and  C_10
REMARK    6  A    between atoms: C_11  and  C_13
REMARK    7  A    between atoms: C_13  and  C_14
REMARK    8  A    between atoms: C_13  and  C_15
REMARK    9  A    between atoms: C_15  and  N_16
REMARK                            x       y       z     vdW  Elec       q    Type
REMARK                         _______ _______ _______ _____ _____    ______ ____
ROOT
ATOM      1  N   UNL     1       4.661   5.751  18.364  0.00  0.00    +0.000 N 
ATOM      2  C   UNL     1       5.726   6.371  17.721  0.00  0.00    +0.000 C 
ATOM      3  O   UNL     1       5.534   7.258  16.879  0.00  0.00    +0.000 OA
ENDROOT
BRANCH   1   5
ATOM      4  C   UNL     1       2.714   7.129  19.104  0.00  0.00    +0.000 C 
ATOM      5  C   UNL     1       3.319   6.230  18.035  0.00  0.00    +0.000 C 
ENDBRANCH   1   5
BRANCH   2   6
ATOM      6  C   UNL     1       7.156   5.894  17.960  0.00  0.00    +0.000 C 
ATOM      7  C   UNL     1       7.403   5.808  19.470  0.00  0.00    +0.000 C 
BRANCH   6   8
ATOM      8  C   UNL     1       7.335   4.500  17.345  0.00  0.00    +0.000 C 
BRANCH   8   9
ATOM      9  N   UNL     1       7.001   4.464  15.936  0.00  0.00    +0.000 N 
ATOM     10  C   UNL     1       6.071   3.688  15.316  0.00  0.00    +0.000 A 
ATOM     11  N   UNL     1       6.066   3.955  14.030  0.00  0.00    +0.000 NA
ATOM     12  C   UNL     1       7.030   4.920  13.918  0.00  0.00    +0.000 A 
ATOM     13  N   UNL     1       7.661   5.231  15.053  0.00  0.00    +0.000 NA
ENDBRANCH   8   9
ENDBRANCH   6   8
ENDBRANCH   2   6
BRANCH   1  14
ATOM     14  C   UNL     1       4.767   4.637  19.315  0.00  0.00    +0.000 C 
BRANCH  14  15
ATOM     15  C   UNL     1       3.822   3.508  19.020  0.00  0.00    +0.000 A 
ATOM     16  N   UNL     1       3.857   2.736  17.949  0.00  0.00    +0.000 NA
ATOM     17  C   UNL     1       2.706   1.991  17.972  0.00  0.00    +0.000 A 
ATOM     18  C   UNL     1       1.947   2.309  19.071  0.00  0.00    +0.000 A 
ATOM     19  N   UNL     1       2.692   3.225  19.761  0.00  0.00    +0.000 N 
ATOM     20  C   UNL     1       2.322   3.787  21.037  0.00  0.00    +0.000 C 
ENDBRANCH  14  15
ENDBRANCH   1  14
TORSDOF 6
ENDMDL
MODEL 3
REMARK VINA RESULT:      -6.5      2.322      4.313
REMARK  Name = 
REMARK  9 active torsions:
REMARK  status: ('A' for Active; 'I' for Inactive)
REMARK    1  A    between atoms: C_1  and  C_2
REMARK    2  A    between atoms: C_2  and  N_3
REMARK    3  A    between atoms: N_3  and  C_4
REMARK    4  A    between atoms: C_4  and  C_5
REMARK    5  A    between atoms: N_9  and  C_10
REMARK    6  A    between atoms: C_11  and  C_13
REMARK    7  A    between atoms: C_13  and  C_14
REMARK    8  A    between atoms: C_13  and  C_15
REMARK    9  A    between atoms: C_15  and  N_16
REMARK                            x       y       z     vdW  Elec       q    Type
REMARK                         _______ _______ _______ _____ _____    ______ ____
ROOT
ATOM      1  N   UNL     1       6.401   6.152  17.318  0.00  0.00    +0.000 N 
ATOM      2  C   UNL     1       6.687   4.955  16.672  0.00  0.00    +0.000 C 
ATOM      3  O   UNL     1       7.834   4.490  16.667  0.00  0.00    +0.000 OA
ENDROOT
BRANCH   1   5
ATOM      4  C   UNL     1       7.792   8.214  17.544  0.00  0.00    +0.000 C 
ATOM      5  C   UNL     1       7.503   6.801  18.028  0.00  0.00    +0.000 C 
ENDBRANCH   1   5
BRANCH   2   6
ATOM      6  C   UNL     1       5.610   4.241  15.858  0.00  0.00    +0.000 C 
ATOM      7  C   UNL     1       6.158   3.955  14.456  0.00  0.00    +0.000 C 
BRANCH   6   8
ATOM      8  C   UNL     1       5.257   2.911  16.537  0.00  0.00    +0.000 C 
BRANCH   8   9
ATOM      9  N   UNL     1       3.906   2.893  17.060  0.00  0.00    +0.000 N 
ATOM     10  C   UNL     1       2.875   3.721  16.743  0.00  0.00    +0.000 A 
ATOM     11  N   UNL     1       1.811   3.376  17.430  0.00  0.00    +0.000 NA
ATOM     12  C   UNL     1       2.257   2.312  18.164  0.00  0.00    +0.000 A 
ATOM     13  N   UNL     1       3.547   2.009  18.005  0.00  0.00    +0.000 NA
ENDBRANCH   8   9
ENDBRANCH   6   8
ENDBRANCH   2   6
BRANCH   1  14
ATOM     14  C   UNL     1       5.101   6.834  17.320  0.00  0.00    +0.000 C 
BRANCH  14  15
ATOM     15  C   UNL     1       4.221   6.439  18.470  0.00  0.00    +0.000 A 
ATOM     16  N   UNL     1       4.468   5.466  19.330  0.00  0.00    +0.000 NA
ATOM     17  C   UNL     1       3.326   5.306  20.071  0.00  0.00    +0.000 A 
ATOM     18  C   UNL     1       2.357   6.188  19.662  0.00  0.00    +0.000 A 
ATOM     19  N   UNL     1       2.955   6.944  18.691  0.00  0.00    +0.000 N 
ATOM     20  C   UNL     1       2.333   8.061  18.024  0.00  0.00    +0.000 C 
ENDBRANCH  14  15
ENDBRANCH   1  14
TORSDOF 6
ENDMDL
MODEL 4
REMARK VINA RESULT:      -6.4      1.699      3.598
REMARK  Name = 
REMARK  9 active torsions:
REMARK  status: ('A' for Active; 'I' for Inactive)
REMARK    1  A    between atoms: C_1  and  C_2
REMARK    2  A    between atoms: C_2  and  N_3
REMARK    3  A    between atoms: N_3  and  C_4
REMARK    4  A    between atoms: C_4  and  C_5
REMARK    5  A    between atoms: N_9  and  C_10
REMARK    6  A    between atoms: C_11  and  C_13
REMARK    7  A    between atoms: C_13  and  C_14
REMARK    8  A    between atoms: C_13  and  C_15
REMARK    9  A    between atoms: C_15  and  N_16
REMARK                            x       y       z     vdW  Elec       q    Type
REMARK                         _______ _______ _______ _____ _____    ______ ____
ROOT
ATOM      1  N   UNL     1       6.570   6.206  18.063  0.00  0.00    +0.000 N 
ATOM      2  C   UNL     1       6.126   5.385  19.092  0.00  0.00    +0.000 C 
ATOM      3  O   UNL     1       6.819   5.194  20.100  0.00  0.00    +0.000 OA
ENDROOT
BRANCH   1   5
ATOM      4  C   UNL     1       7.911   8.282  17.694  0.00  0.00    +0.000 C 
ATOM      5  C   UNL     1       7.862   6.867  18.253  0.00  0.00    +0.000 C 
ENDBRANCH   1   5
BRANCH   2   6
ATOM      6  C   UNL     1       4.818   4.611  18.952  0.00  0.00    +0.000 C 
ATOM      7  C   UNL     1       5.009   3.207  19.533  0.00  0.00    +0.000 C 
BRANCH   6   8
ATOM      8  C   UNL     1       3.715   5.331  19.739  0.00  0.00    +0.000 C 
BRANCH   8   9
ATOM      9  N   UNL     1       2.568   4.484  19.996  0.00  0.00    +0.000 N 
ATOM     10  C   UNL     1       1.651   4.023  19.102  0.00  0.00    +0.000 A 
ATOM     11  N   UNL     1       0.768   3.280  19.727  0.00  0.00    +0.000 NA
ATOM     12  C   UNL     1       1.201   3.321  21.024  0.00  0.00    +0.000 A 
ATOM     13  N   UNL     1       2.274   4.083  21.243  0.00  0.00    +0.000 NA
ENDBRANCH   8   9
ENDBRANCH   6   8
ENDBRANCH   2   6
BRANCH   1  14
ATOM     14  C   UNL     1       5.872   6.440  16.793  0.00  0.00    +0.000 C 
BRANCH  14  15
ATOM     15  C   UNL     1       6.267   5.479  15.709  0.00  0.00    +0.000 A 
ATOM     16  N   UNL     1       7.319   5.600  14.918  0.00  0.00    +0.000 NA
ATOM     17  C   UNL     1       7.186   4.640  13.948  0.00  0.00    +0.000 A 
ATOM     18  C   UNL     1       6.035   3.918  14.138  0.00  0.00    +0.000 A 
ATOM     19  N   UNL     1       5.492   4.415  15.292  0.00  0.00    +0.000 N 
ATOM     20  C   UNL     1       4.304   3.899  15.927  0.00  0.00    +0.000 C 
ENDBRANCH  14  15
ENDBRANCH   1  14
TORSDOF 6
ENDMDL
MODEL 5
REMARK VINA RESULT:      -6.4      1.554      5.954
REMARK  Name = 
REMARK  9 active torsions:
REMARK  status: ('A' for Active; 'I' for Inactive)
REMARK    1  A    between atoms: C_1  and  C_2
REMARK    2  A    between atoms: C_2  and  N_3
REMARK    3  A    between atoms: N_3  and  C_4
REMARK    4  A    between atoms: C_4  and  C_5
REMARK    5  A    between atoms: N_9  and  C_10
REMARK    6  A    between atoms: C_11  and  C_13
REMARK    7  A    between atoms: C_13  and  C_14
REMARK    8  A    between atoms: C_13  and  C_15
REMARK    9  A    between atoms: C_15  and  N_16
REMARK                            x       y       z     vdW  Elec       q    Type
REMARK                         _______ _______ _______ _____ _____    ______ ____
ROOT
ATOM      1  N   UNL     1       3.761   4.600  17.190  0.00  0.00    +0.000 N 
ATOM      2  C   UNL     1       4.728   5.232  16.415  0.00  0.00    +0.000 C 
ATOM      3  O   UNL     1       4.703   6.456  16.237  0.00  0.00    +0.000 OA
ENDROOT
BRANCH   1   5
ATOM      4  C   UNL     1       3.226   6.099  19.115  0.00  0.00    +0.000 C 
ATOM      5  C   UNL     1       2.755   5.455  17.819  0.00  0.00    +0.000 C 
ENDBRANCH   1   5
BRANCH   2   6
ATOM      6  C   UNL     1       5.780   4.411  15.674  0.00  0.00    +0.000 C 
ATOM      7  C   UNL     1       5.372   4.296  14.202  0.00  0.00    +0.000 C 
BRANCH   6   8
ATOM      8  C   UNL     1       7.136   5.124  15.762  0.00  0.00    +0.000 C 
BRANCH   8   9
ATOM      9  N   UNL     1       7.495   5.474  17.122  0.00  0.00    +0.000 N 
ATOM     10  C   UNL     1       7.615   4.646  18.195  0.00  0.00    +0.000 A 
ATOM     11  N   UNL     1       7.962   5.347  19.249  0.00  0.00    +0.000 NA
ATOM     12  C   UNL     1       8.043   6.619  18.754  0.00  0.00    +0.000 A 
ATOM     13  N   UNL     1       7.721   6.752  17.466  0.00  0.00    +0.000 NA
ENDBRANCH   8   9
ENDBRANCH   6   8
ENDBRANCH   2   6
BRANCH   1  14
ATOM     14  C   UNL     1       3.646   3.152  17.401  0.00  0.00    +0.000 C 
BRANCH  14  15
ATOM     15  C   UNL     1       2.580   2.776  18.390  0.00  0.00    +0.000 A 
ATOM     16  N   UNL     1       1.282   2.748  18.148  0.00  0.00    +0.000 NA
ATOM     17  C   UNL     1       0.667   2.568  19.360  0.00  0.00    +0.000 A 
ATOM     18  C   UNL     1       1.597   2.487  20.367  0.00  0.00    +0.000 A 
ATOM     19  N   UNL     1       2.808   2.557  19.734  0.00  0.00    +0.000 N 
ATOM     20  C   UNL     1       4.084   2.433  20.394  0.00  0.00    +0.000 C 
ENDBRANCH  14  15
ENDBRANCH   1  14
TORSDOF 6
ENDMDL
MODEL 6
REMARK VINA RESULT:      -6.4      2.379      6.634
REMARK  Name = 
REMARK  9 active torsions:
REMARK  status: ('A' for Active; 'I' for Inactive)
REMARK    1  A    between atoms: C_1  and  C_2
REMARK    2  A    between atoms: C_2  and  N_3
REMARK    3  A    between atoms: N_3  and  C_4
REMARK    4  A    between atoms: C_4  and  C_5
REMARK    5  A    between atoms: N_9  and  C_10
REMARK    6  A    between atoms: C_11  and  C_13
REMARK    7  A    between atoms: C_13  and  C_14
REMARK    8  A    between atoms: C_13  and  C_15
REMARK    9  A    between atoms: C_15  and  N_16
REMARK                            x       y       z     vdW  Elec       q    Type
REMARK                         _______ _______ _______ _____ _____    ______ ____
ROOT
ATOM      1  N   UNL     1       4.677   3.996  18.236  0.00  0.00    +0.000 N 
ATOM      2  C   UNL     1       5.809   4.465  17.581  0.00  0.00    +0.000 C 
ATOM      3  O   UNL     1       6.931   4.361  18.093  0.00  0.00    +0.000 OA
ENDROOT
BRANCH   1   5
ATOM      4  C   UNL     1       4.451   1.875  19.537  0.00  0.00    +0.000 C 
ATOM      5  C   UNL     1       4.883   3.334  19.524  0.00  0.00    +0.000 C 
ENDBRANCH   1   5
BRANCH   2   6
ATOM      6  C   UNL     1       5.680   5.220  16.261  0.00  0.00    +0.000 C 
ATOM      7  C   UNL     1       5.240   6.657  16.554  0.00  0.00    +0.000 C 
BRANCH   6   8
ATOM      8  C   UNL     1       7.042   5.248  15.556  0.00  0.00    +0.000 C 
BRANCH   8   9
ATOM      9  N   UNL     1       6.972   4.783  14.185  0.00  0.00    +0.000 N 
ATOM     10  C   UNL     1       6.201   3.781  13.680  0.00  0.00    +0.000 A 
ATOM     11  N   UNL     1       6.421   3.669  12.391  0.00  0.00    +0.000 NA
ATOM     12  C   UNL     1       7.350   4.645  12.157  0.00  0.00    +0.000 A 
ATOM     13  N   UNL     1       7.751   5.322  13.235  0.00  0.00    +0.000 NA
ENDBRANCH   8   9
ENDBRANCH   6   8
ENDBRANCH   2   6
BRANCH   1  14
ATOM     14  C   UNL     1       3.294   4.137  17.763  0.00  0.00    +0.000 C 
BRANCH  14  15
ATOM     15  C   UNL     1       2.333   4.545  18.842  0.00  0.00    +0.000 A 
ATOM     16  N   UNL     1       2.406   5.652  19.560  0.00  0.00    +0.000 NA
ATOM     17  C   UNL     1       1.475   5.527  20.559  0.00  0.00    +0.000 A 
ATOM     18  C   UNL     1       0.819   4.325  20.460  0.00  0.00    +0.000 A 
ATOM     19  N   UNL     1       1.325   3.738  19.332  0.00  0.00    +0.000 N 
ATOM     20  C   UNL     1       0.869   2.484  18.787  0.00  0.00    +0.000 C 
ENDBRANCH  14  15
ENDBRANCH   1  14
TORSDOF 6
ENDMDL
MODEL 7
REMARK VINA RESULT:      -6.2      2.879      5.947
REMARK  Name = 
REMARK  9 active torsions:
REMARK  status: ('A' for Active; 'I' for Inactive)
REMARK    1  A    between atoms: C_1  and  C_2
REMARK    2  A    between atoms: C_2  and  N_3
REMARK    3  A    between atoms: N_3  and  C_4
REMARK    4  A    between atoms: C_4  and  C_5
REMARK    5  A    between atoms: N_9  and  C_10
REMARK    6  A    between atoms: C_11  and  C_13
REMARK    7  A    between atoms: C_13  and  C_14
REMARK    8  A    between atoms: C_13  and  C_15
REMARK    9  A    between atoms: C_15  and  N_16
REMARK                            x       y       z     vdW  Elec       q    Type
REMARK                         _______ _______ _______ _____ _____    ______ ____
ROOT
ATOM      1  N   UNL     1       2.487   4.828  19.139  0.00  0.00    +0.000 N 
ATOM      2  C   UNL     1       3.175   4.059  18.208  0.00  0.00    +0.000 C 
ATOM      3  O   UNL     1       2.723   2.974  17.819  0.00  0.00    +0.000 OA
ENDROOT
BRANCH   1   5
ATOM      4  C   UNL     1       1.268   3.524  20.886  0.00  0.00    +0.000 C 
ATOM      5  C   UNL     1       1.192   4.321  19.591  0.00  0.00    +0.000 C 
ENDBRANCH   1   5
BRANCH   2   6
ATOM      6  C   UNL     1       4.559   4.484  17.726  0.00  0.00    +0.000 C 
ATOM      7  C   UNL     1       5.542   4.383  18.897  0.00  0.00    +0.000 C 
BRANCH   6   8
ATOM      8  C   UNL     1       5.019   3.542  16.606  0.00  0.00    +0.000 C 
BRANCH   8   9
ATOM      9  N   UNL     1       5.937   4.179  15.683  0.00  0.00    +0.000 N 
ATOM     10  C   UNL     1       7.041   4.917  15.977  0.00  0.00    +0.000 A 
ATOM     11  N   UNL     1       7.609   5.316  14.863  0.00  0.00    +0.000 NA
ATOM     12  C   UNL     1       6.796   4.782  13.901  0.00  0.00    +0.000 A 
ATOM     13  N   UNL     1       5.734   4.115  14.357  0.00  0.00    +0.000 NA
ENDBRANCH   8   9
ENDBRANCH   6   8
ENDBRANCH   2   6
BRANCH   1  14
ATOM     14  C   UNL     1       2.964   6.085  19.729  0.00  0.00    +0.000 C 
BRANCH  14  15
ATOM     15  C   UNL     1       2.328   7.306  19.130  0.00  0.00    +0.000 A 
ATOM     16  N   UNL     1       2.489   7.727  17.888  0.00  0.00    +0.000 NA
ATOM     17  C   UNL     1       1.916   8.971  17.825  0.00  0.00    +0.000 A 
ATOM     18  C   UNL     1       1.396   9.327  19.045  0.00  0.00    +0.000 A 
ATOM     19  N   UNL     1       1.606   8.239  19.848  0.00  0.00    +0.000 N 
ATOM     20  C   UNL     1       1.149   8.128  21.211  0.00  0.00    +0.000 C 
ENDBRANCH  14  15
ENDBRANCH   1  14
TORSDOF 6
ENDMDL
MODEL 8
REMARK VINA RESULT:      -6.2      2.223      5.609
REMARK  Name = 
REMARK  9 active torsions:
REMARK  status: ('A' for Active; 'I' for Inactive)
REMARK    1  A    between atoms: C_1  and  C_2
REMARK    2  A    between atoms: C_2  and  N_3
REMARK    3  A    between atoms: N_3  and  C_4
REMARK    4  A    between atoms: C_4  and  C_5
REMARK    5  A    between atoms: N_9  and  C_10
REMARK    6  A    between atoms: C_11  and  C_13
REMARK    7  A    between atoms: C_13  and  C_14
REMARK    8  A    between atoms: C_13  and  C_15
REMARK    9  A    between atoms: C_15  and  N_16
REMARK                            x       y       z     vdW  Elec       q    Type
REMARK                         _______ _______ _______ _____ _____    ______ ____
ROOT
ATOM      1  N   UNL     1       3.183   6.266  17.801  0.00  0.00    +0.000 N 
ATOM      2  C   UNL     1       4.370   6.206  17.080  0.00  0.00    +0.000 C 
ATOM      3  O   UNL     1       5.133   7.179  17.024  0.00  0.00    +0.000 OA
ENDROOT
BRANCH   1   5
ATOM      4  C   UNL     1       1.903   8.411  17.829  0.00  0.00    +0.000 C 
ATOM      5  C   UNL     1       2.911   7.508  18.525  0.00  0.00    +0.000 C 
ENDBRANCH   1   5
BRANCH   2   6
ATOM      6  C   UNL     1       4.705   4.971  16.248  0.00  0.00    +0.000 C 
ATOM      7  C   UNL     1       5.610   5.388  15.085  0.00  0.00    +0.000 C 
BRANCH   6   8
ATOM      8  C   UNL     1       5.452   3.956  17.123  0.00  0.00    +0.000 C 
BRANCH   8   9
ATOM      9  N   UNL     1       6.342   4.588  18.076  0.00  0.00    +0.000 N 
ATOM     10  C   UNL     1       6.075   4.944  19.362  0.00  0.00    +0.000 A 
ATOM     11  N   UNL     1       7.144   5.487  19.895  0.00  0.00    +0.000 NA
ATOM     12  C   UNL     1       8.052   5.436  18.873  0.00  0.00    +0.000 A 
ATOM     13  N   UNL     1       7.590   4.935  17.725  0.00  0.00    +0.000 NA
ENDBRANCH   8   9
ENDBRANCH   6   8
ENDBRANCH   2   6
BRANCH   1  14
ATOM     14  C   UNL     1       2.169   5.207  17.871  0.00  0.00    +0.000 C 
BRANCH  14  15
ATOM     15  C   UNL     1       2.158   4.476  19.182  0.00  0.00    +0.000 A 
ATOM     16  N   UNL     1       2.039   5.035  20.374  0.00  0.00    +0.000 NA
ATOM     17  C   UNL     1       2.292   4.047  21.291  0.00  0.00    +0.000 A 
ATOM     18  C   UNL     1       2.574   2.862  20.658  0.00  0.00    +0.000 A 
ATOM     19  N   UNL     1       2.425   3.129  19.325  0.00  0.00    +0.000 N 
ATOM     20  C   UNL     1       2.546   2.148  18.275  0.00  0.00    +0.000 C 
ENDBRANCH  14  15
ENDBRANCH   1  14
TORSDOF 6
ENDMDL
MODEL 9
REMARK VINA RESULT:      -6.2      1.837      6.133
REMARK  Name = 
REMARK  9 active torsions:
REMARK  status: ('A' for Active; 'I' for Inactive)
REMARK    1  A    between atoms: C_1  and  C_2
REMARK    2  A    between atoms: C_2  and  N_3
REMARK    3  A    between atoms: N_3  and  C_4
REMARK    4  A    between atoms: C_4  and  C_5
REMARK    5  A    between atoms: N_9  and  C_10
REMARK    6  A    between atoms: C_11  and  C_13
REMARK    7  A    between atoms: C_13  and  C_14
REMARK    8  A    between atoms: C_13  and  C_15
REMARK    9  A    between atoms: C_15  and  N_16
REMARK                            x       y       z     vdW  Elec       q    Type
REMARK                         _______ _______ _______ _____ _____    ______ ____
ROOT
ATOM      1  N   UNL     1       4.420   5.627  18.322  0.00  0.00    +0.000 N 
ATOM      2  C   UNL     1       5.442   6.242  17.608  0.00  0.00    +0.000 C 
ATOM      3  O   UNL     1       5.191   7.059  16.712  0.00  0.00    +0.000 OA
ENDROOT
BRANCH   1   5
ATOM      4  C   UNL     1       2.591   7.275  18.742  0.00  0.00    +0.000 C 
ATOM      5  C   UNL     1       3.051   6.029  17.999  0.00  0.00    +0.000 C 
ENDBRANCH   1   5
BRANCH   2   6
ATOM      6  C   UNL     1       6.896   5.839  17.838  0.00  0.00    +0.000 C 
ATOM      7  C   UNL     1       7.154   5.762  19.346  0.00  0.00    +0.000 C 
BRANCH   6   8
ATOM      8  C   UNL     1       7.145   4.459  17.217  0.00  0.00    +0.000 C 
BRANCH   8   9
ATOM      9  N   UNL     1       6.929   4.444  15.784  0.00  0.00    +0.000 N 
ATOM     10  C   UNL     1       6.067   3.666  15.076  0.00  0.00    +0.000 A 
ATOM     11  N   UNL     1       6.165   3.956  13.799  0.00  0.00    +0.000 NA
ATOM     12  C   UNL     1       7.119   4.936  13.785  0.00  0.00    +0.000 A 
ATOM     13  N   UNL     1       7.648   5.236  14.973  0.00  0.00    +0.000 NA
ENDBRANCH   8   9
ENDBRANCH   6   8
ENDBRANCH   2   6
BRANCH   1  14
ATOM     14  C   UNL     1       4.596   4.588  19.344  0.00  0.00    +0.000 C 
BRANCH  14  15
ATOM     15  C   UNL     1       3.309   3.944  19.769  0.00  0.00    +0.000 A 
ATOM     16  N   UNL     1       2.586   4.286  20.821  0.00  0.00    +0.000 NA
ATOM     17  C   UNL     1       1.625   3.319  20.962  0.00  0.00    +0.000 A 
ATOM     18  C   UNL     1       1.756   2.362  19.986  0.00  0.00    +0.000 A 
ATOM     19  N   UNL     1       2.785   2.801  19.198  0.00  0.00    +0.000 N 
ATOM     20  C   UNL     1       3.228   2.146  17.992  0.00  0.00    +0.000 C 
ENDBRANCH  14  15
ENDBRANCH   1  14
TORSDOF 6
ENDMDL
