MODEL 1
REMARK VINA RESULT:      -8.7      0.000      0.000
REMARK  Name = 
REMARK  4 active torsions:
REMARK  status: ('A' for Active; 'I' for Inactive)
REMARK    1  A    between atoms: C_2  and  C_4
REMARK    2  A    between atoms: C_12  and  C_13
REMARK    3  A    between atoms: C_22  and  C_23
REMARK    4  A    between atoms: C_23  and  O_25
REMARK                            x       y       z     vdW  Elec       q    Type
REMARK                         _______ _______ _______ _____ _____    ______ ____
ROOT
ATOM      1  C   UNL     1       2.442   3.944  20.744  0.00  0.00    +0.000 A 
ATOM      2  C   UNL     1       1.658   5.044  21.102  0.00  0.00    +0.000 A 
ATOM      3  C   UNL     1       1.720   6.259  20.422  0.00  0.00    +0.000 A 
ATOM      4  C   UNL     1       0.888   7.305  20.889  0.00  0.00    +0.000 A 
ATOM      5  C   UNL     1       0.875   8.559  20.289  0.00  0.00    +0.000 A 
ATOM      6  C   UNL     1       1.706   8.742  19.220  0.00  0.00    +0.000 A 
ATOM      7  C   UNL     1       2.551   7.741  18.764  0.00  0.00    +0.000 A 
ATOM      8  C   UNL     1       2.606   6.431  19.321  0.00  0.00    +0.000 A 
ATOM      9  C   UNL     1       3.447   5.298  18.927  0.00  0.00    +0.000 A 
ATOM     10  C   UNL     1       3.335   4.066  19.663  0.00  0.00    +0.000 A 
ATOM     11  O   UNL     1       3.304   8.226  17.731  0.00  0.00    +0.000 OA
ATOM     12  C   UNL     1       2.732   9.520  17.494  0.00  0.00    +0.000 C 
ATOM     13  O   UNL     1       1.801   9.902  18.514  0.00  0.00    +0.000 OA
ENDROOT
BRANCH   9  14
ATOM     14  C   UNL     1       4.468   5.434  17.824  0.00  0.00    +0.000 A 
ATOM     15  C   UNL     1       5.684   6.143  18.009  0.00  0.00    +0.000 A 
ATOM     16  C   UNL     1       6.746   6.063  17.092  0.00  0.00    +0.000 A 
ATOM     17  C   UNL     1       6.520   5.400  15.912  0.00  0.00    +0.000 A 
ATOM     18  C   UNL     1       5.306   4.825  15.643  0.00  0.00    +0.000 A 
ATOM     19  C   UNL     1       4.288   4.796  16.579  0.00  0.00    +0.000 A 
ATOM     20  O   UNL     1       5.255   4.278  14.399  0.00  0.00    +0.000 OA
ATOM     21  C   UNL     1       6.572   4.604  13.909  0.00  0.00    +0.000 C 
ATOM     22  O   UNL     1       7.410   5.235  14.899  0.00  0.00    +0.000 OA
ENDBRANCH   9  14
BRANCH   1  24
ATOM     23  N   UNL     1       1.064   2.371  22.066  0.00  0.00    +0.000 N 
ATOM     24  C   UNL     1       2.293   2.761  21.630  0.00  0.00    +0.000 C 
ATOM     25  O   UNL     1       3.284   2.109  21.952  0.00  0.00    +0.000 OA
ATOM     26  H   UNL     1       1.019   1.524  22.627  0.00  0.00    +0.000 HD
ATOM     27  H   UNL     1       0.178   2.810  21.846  0.00  0.00    +0.000 HD
ENDBRANCH   1  24
BRANCH  10  28
ATOM     28  C   UNL     1       4.152   2.896  19.287  0.00  0.00    +0.000 C 
ATOM     29  O   UNL     1       3.747   2.013  18.555  0.00  0.00    +0.000 OA
BRANCH  28  30
ATOM     30  O   UNL     1       5.381   2.877  19.853  0.00  0.00    +0.000 OA
ATOM     31  H   UNL     1       6.127   3.194  19.305  0.00  0.00    +0.000 HD
ENDBRANCH  28  30
ENDBRANCH  10  28
TORSDOF 4
ENDMDL
MODEL 2
REMARK VINA RESULT:      -7.6      2.667      6.379
REMARK  Name = 
REMARK  4 active torsions:
REMARK  status: ('A' for Active; 'I' for Inactive)
REMARK    1  A    between atoms: C_2  and  C_4
REMARK    2  A    between atoms: C_12  and  C_13
REMARK    3  A    between atoms: C_22  and  C_23
REMARK    4  A    between atoms: C_23  and  O_25
REMARK                            x       y       z     vdW  Elec       q    Type
REMARK                         _______ _______ _______ _____ _____    ______ ____
ROOT
ATOM      1  C   UNL     1       5.506   4.468  16.296  0.00  0.00    +0.000 A 
ATOM      2  C   UNL     1       5.102   3.211  16.754  0.00  0.00    +0.000 A 
ATOM      3  C   UNL     1       4.032   3.043  17.630  0.00  0.00    +0.000 A 
ATOM      4  C   UNL     1       3.728   1.721  18.036  0.00  0.00    +0.000 A 
ATOM      5  C   UNL     1       2.687   1.440  18.912  0.00  0.00    +0.000 A 
ATOM      6  C   UNL     1       1.961   2.503  19.370  0.00  0.00    +0.000 A 
ATOM      7  C   UNL     1       2.259   3.809  19.010  0.00  0.00    +0.000 A 
ATOM      8  C   UNL     1       3.301   4.168  18.108  0.00  0.00    +0.000 A 
ATOM      9  C   UNL     1       3.706   5.500  17.652  0.00  0.00    +0.000 A 
ATOM     10  C   UNL     1       4.816   5.610  16.741  0.00  0.00    +0.000 A 
ATOM     11  O   UNL     1       1.412   4.658  19.665  0.00  0.00    +0.000 OA
ATOM     12  C   UNL     1       0.486   3.767  20.301  0.00  0.00    +0.000 C 
ATOM     13  O   UNL     1       0.901   2.397  20.219  0.00  0.00    +0.000 OA
ENDROOT
BRANCH   9  14
ATOM     14  C   UNL     1       3.030   6.741  18.181  0.00  0.00    +0.000 A 
ATOM     15  C   UNL     1       2.577   7.774  17.319  0.00  0.00    +0.000 A 
ATOM     16  C   UNL     1       1.728   8.802  17.763  0.00  0.00    +0.000 A 
ATOM     17  C   UNL     1       1.470   8.878  19.108  0.00  0.00    +0.000 A 
ATOM     18  C   UNL     1       2.010   7.976  19.986  0.00  0.00    +0.000 A 
ATOM     19  C   UNL     1       2.754   6.893  19.556  0.00  0.00    +0.000 A 
ATOM     20  O   UNL     1       1.696   8.259  21.279  0.00  0.00    +0.000 OA
ATOM     21  C   UNL     1       0.919   9.462  21.110  0.00  0.00    +0.000 C 
ATOM     22  O   UNL     1       0.694   9.807  19.727  0.00  0.00    +0.000 OA
ENDBRANCH   9  14
BRANCH   1  24
ATOM     23  N   UNL     1       6.592   4.330  14.077  0.00  0.00    +0.000 N 
ATOM     24  C   UNL     1       6.712   4.454  15.428  0.00  0.00    +0.000 C 
ATOM     25  O   UNL     1       7.827   4.583  15.926  0.00  0.00    +0.000 OA
ATOM     26  H   UNL     1       7.448   4.379  13.530  0.00  0.00    +0.000 HD
ATOM     27  H   UNL     1       5.730   4.244  13.552  0.00  0.00    +0.000 HD
ENDBRANCH   1  24
BRANCH  10  28
ATOM     28  C   UNL     1       5.244   6.932  16.245  0.00  0.00    +0.000 C 
ATOM     29  O   UNL     1       4.844   7.409  15.201  0.00  0.00    +0.000 OA
BRANCH  28  30
ATOM     30  O   UNL     1       6.146   7.553  17.040  0.00  0.00    +0.000 OA
ATOM     31  H   UNL     1       6.441   8.444  16.764  0.00  0.00    +0.000 HD
ENDBRANCH  28  30
ENDBRANCH  10  28
TORSDOF 4
ENDMDL
MODEL 3
REMARK VINA RESULT:      -7.4      7.247      9.876
REMARK  Name = 
REMARK  4 active torsions:
REMARK  status: ('A' for Active; 'I' for Inactive)
REMARK    1  A    between atoms: C_2  and  C_4
REMARK    2  A    between atoms: C_12  and  C_13
REMARK    3  A    between atoms: C_22  and  C_23
REMARK    4  A    between atoms: C_23  and  O_25
REMARK                            x       y       z     vdW  Elec       q    Type
REMARK                         _______ _______ _______ _____ _____    ______ ____
ROOT
ATOM      1  C   UNL     1      -4.047  12.797  22.433  0.00  0.00    +0.000 A 
ATOM      2  C   UNL     1      -5.118  12.661  21.545  0.00  0.00    +0.000 A 
ATOM      3  C   UNL     1      -4.939  12.328  20.203  0.00  0.00    +0.000 A 
ATOM      4  C   UNL     1      -6.100  12.235  19.399  0.00  0.00    +0.000 A 
ATOM      5  C   UNL     1      -6.036  11.917  18.047  0.00  0.00    +0.000 A 
ATOM      6  C   UNL     1      -4.794  11.696  17.523  0.00  0.00    +0.000 A 
ATOM      7  C   UNL     1      -3.641  11.811  18.284  0.00  0.00    +0.000 A 
ATOM      8  C   UNL     1      -3.633  12.119  19.675  0.00  0.00    +0.000 A 
ATOM      9  C   UNL     1      -2.490  12.263  20.580  0.00  0.00    +0.000 A 
ATOM     10  C   UNL     1      -2.738  12.602  21.957  0.00  0.00    +0.000 A 
ATOM     11  O   UNL     1      -2.552  11.596  17.486  0.00  0.00    +0.000 OA
ATOM     12  C   UNL     1      -3.138  11.181  16.245  0.00  0.00    +0.000 C 
ATOM     13  O   UNL     1      -4.561  11.360  16.224  0.00  0.00    +0.000 OA
ENDROOT
BRANCH   9  14
ATOM     14  C   UNL     1      -1.074  12.137  20.071  0.00  0.00    +0.000 A 
ATOM     15  C   UNL     1      -0.418  10.882  19.980  0.00  0.00    +0.000 A 
ATOM     16  C   UNL     1       0.787  10.715  19.277  0.00  0.00    +0.000 A 
ATOM     17  C   UNL     1       1.412  11.844  18.808  0.00  0.00    +0.000 A 
ATOM     18  C   UNL     1       0.872  13.087  19.006  0.00  0.00    +0.000 A 
ATOM     19  C   UNL     1      -0.368  13.261  19.594  0.00  0.00    +0.000 A 
ATOM     20  O   UNL     1       1.671  14.081  18.531  0.00  0.00    +0.000 OA
ATOM     21  C   UNL     1       2.789  13.314  18.038  0.00  0.00    +0.000 C 
ATOM     22  O   UNL     1       2.587  11.888  18.127  0.00  0.00    +0.000 OA
ENDBRANCH   9  14
BRANCH   1  24
ATOM     23  N   UNL     1      -4.708  12.308  24.767  0.00  0.00    +0.000 N 
ATOM     24  C   UNL     1      -4.428  13.228  23.803  0.00  0.00    +0.000 C 
ATOM     25  O   UNL     1      -4.466  14.425  24.080  0.00  0.00    +0.000 OA
ATOM     26  H   UNL     1      -4.912  12.661  25.699  0.00  0.00    +0.000 HD
ATOM     27  H   UNL     1      -4.684  11.301  24.665  0.00  0.00    +0.000 HD
ENDBRANCH   1  24
BRANCH  10  28
ATOM     28  C   UNL     1      -1.614  12.739  22.905  0.00  0.00    +0.000 C 
ATOM     29  O   UNL     1      -1.109  13.810  23.182  0.00  0.00    +0.000 OA
BRANCH  28  30
ATOM     30  O   UNL     1      -1.176  11.564  23.413  0.00  0.00    +0.000 OA
ATOM     31  H   UNL     1      -1.424  10.751  22.929  0.00  0.00    +0.000 HD
ENDBRANCH  28  30
ENDBRANCH  10  28
TORSDOF 4
ENDMDL
MODEL 4
REMARK VINA RESULT:      -7.4      6.370      9.860
REMARK  Name = 
REMARK  4 active torsions:
REMARK  status: ('A' for Active; 'I' for Inactive)
REMARK    1  A    between atoms: C_2  and  C_4
REMARK    2  A    between atoms: C_12  and  C_13
REMARK    3  A    between atoms: C_22  and  C_23
REMARK    4  A    between atoms: C_23  and  O_25
REMARK                            x       y       z     vdW  Elec       q    Type
REMARK                         _______ _______ _______ _____ _____    ______ ____
ROOT
ATOM      1  C   UNL     1      -3.733  12.950  22.948  0.00  0.00    +0.000 A 
ATOM      2  C   UNL     1      -4.992  12.939  22.340  0.00  0.00    +0.000 A 
ATOM      3  C   UNL     1      -5.166  12.647  20.989  0.00  0.00    +0.000 A 
ATOM      4  C   UNL     1      -6.488  12.683  20.484  0.00  0.00    +0.000 A 
ATOM      5  C   UNL     1      -6.776  12.415  19.151  0.00  0.00    +0.000 A 
ATOM      6  C   UNL     1      -5.719  12.112  18.340  0.00  0.00    +0.000 A 
ATOM      7  C   UNL     1      -4.412  12.100  18.805  0.00  0.00    +0.000 A 
ATOM      8  C   UNL     1      -4.047  12.351  20.159  0.00  0.00    +0.000 A 
ATOM      9  C   UNL     1      -2.714  12.362  20.766  0.00  0.00    +0.000 A 
ATOM     10  C   UNL     1      -2.597  12.666  22.169  0.00  0.00    +0.000 A 
ATOM     11  O   UNL     1      -3.568  11.827  17.765  0.00  0.00    +0.000 OA
ATOM     12  C   UNL     1      -4.467  11.512  16.694  0.00  0.00    +0.000 C 
ATOM     13  O   UNL     1      -5.831  11.810  17.017  0.00  0.00    +0.000 OA
ENDROOT
BRANCH   9  14
ATOM     14  C   UNL     1      -1.477  12.139  19.931  0.00  0.00    +0.000 A 
ATOM     15  C   UNL     1      -0.721  13.220  19.406  0.00  0.00    +0.000 A 
ATOM     16  C   UNL     1       0.558  13.040  18.852  0.00  0.00    +0.000 A 
ATOM     17  C   UNL     1       1.003  11.753  18.681  0.00  0.00    +0.000 A 
ATOM     18  C   UNL     1       0.233  10.682  19.049  0.00  0.00    +0.000 A 
ATOM     19  C   UNL     1      -0.978  10.841  19.698  0.00  0.00    +0.000 A 
ATOM     20  O   UNL     1       0.815   9.493  18.736  0.00  0.00    +0.000 OA
ATOM     21  C   UNL     1       2.028   9.947  18.102  0.00  0.00    +0.000 C 
ATOM     22  O   UNL     1       2.196  11.379  18.148  0.00  0.00    +0.000 OA
ENDBRANCH   9  14
BRANCH   1  24
ATOM     23  N   UNL     1      -4.406  12.618  25.306  0.00  0.00    +0.000 N 
ATOM     24  C   UNL     1      -3.738  13.356  24.377  0.00  0.00    +0.000 C 
ATOM     25  O   UNL     1      -3.112  14.353  24.733  0.00  0.00    +0.000 OA
ATOM     26  H   UNL     1      -4.330  12.916  26.276  0.00  0.00    +0.000 HD
ATOM     27  H   UNL     1      -4.930  11.768  25.139  0.00  0.00    +0.000 HD
ENDBRANCH   1  24
BRANCH  10  28
ATOM     28  C   UNL     1      -1.273  12.671  22.822  0.00  0.00    +0.000 C 
ATOM     29  O   UNL     1      -0.738  11.663  23.242  0.00  0.00    +0.000 OA
BRANCH  28  30
ATOM     30  O   UNL     1      -0.723  13.901  22.942  0.00  0.00    +0.000 OA
ATOM     31  H   UNL     1      -0.116  14.044  23.696  0.00  0.00    +0.000 HD
ENDBRANCH  28  30
ENDBRANCH  10  28
TORSDOF 4
ENDMDL
MODEL 5
REMARK VINA RESULT:      -7.4      5.784     10.284
REMARK  Name = 
REMARK  4 active torsions:
REMARK  status: ('A' for Active; 'I' for Inactive)
REMARK    1  A    between atoms: C_2  and  C_4
REMARK    2  A    between atoms: C_12  and  C_13
REMARK    3  A    between atoms: C_22  and  C_23
REMARK    4  A    between atoms: C_23  and  O_25
REMARK                            x       y       z     vdW  Elec       q    Type
REMARK                         _______ _______ _______ _____ _____    ______ ____
ROOT
ATOM      1  C   UNL     1       0.160  10.154  18.611  0.00  0.00    +0.000 A 
ATOM      2  C   UNL     1      -0.811   9.813  17.666  0.00  0.00    +0.000 A 
ATOM      3  C   UNL     1      -2.090  10.369  17.674  0.00  0.00    +0.000 A 
ATOM      4  C   UNL     1      -2.992   9.932  16.675  0.00  0.00    +0.000 A 
ATOM      5  C   UNL     1      -4.292  10.415  16.594  0.00  0.00    +0.000 A 
ATOM      6  C   UNL     1      -4.667  11.338  17.529  0.00  0.00    +0.000 A 
ATOM      7  C   UNL     1      -3.810  11.758  18.536  0.00  0.00    +0.000 A 
ATOM      8  C   UNL     1      -2.463  11.317  18.670  0.00  0.00    +0.000 A 
ATOM      9  C   UNL     1      -1.468  11.688  19.679  0.00  0.00    +0.000 A 
ATOM     10  C   UNL     1      -0.162  11.085  19.616  0.00  0.00    +0.000 A 
ATOM     11  O   UNL     1      -4.473  12.630  19.354  0.00  0.00    +0.000 OA
ATOM     12  C   UNL     1      -5.719  12.830  18.673  0.00  0.00    +0.000 C 
ATOM     13  O   UNL     1      -5.898  11.920  17.580  0.00  0.00    +0.000 OA
ENDROOT
BRANCH   9  14
ATOM     14  C   UNL     1      -1.820  12.622  20.811  0.00  0.00    +0.000 A 
ATOM     15  C   UNL     1      -1.664  14.028  20.699  0.00  0.00    +0.000 A 
ATOM     16  C   UNL     1      -2.220  14.921  21.632  0.00  0.00    +0.000 A 
ATOM     17  C   UNL     1      -2.791  14.388  22.760  0.00  0.00    +0.000 A 
ATOM     18  C   UNL     1      -2.829  13.034  22.964  0.00  0.00    +0.000 A 
ATOM     19  C   UNL     1      -2.390  12.138  22.007  0.00  0.00    +0.000 A 
ATOM     20  O   UNL     1      -3.369  12.706  24.169  0.00  0.00    +0.000 OA
ATOM     21  C   UNL     1      -3.638  14.016  24.708  0.00  0.00    +0.000 C 
ATOM     22  O   UNL     1      -3.359  15.085  23.780  0.00  0.00    +0.000 OA
ENDBRANCH   9  14
BRANCH   1  24
ATOM     23  N   UNL     1       1.781   8.462  19.408  0.00  0.00    +0.000 N 
ATOM     24  C   UNL     1       1.437   9.404  18.487  0.00  0.00    +0.000 C 
ATOM     25  O   UNL     1       2.179   9.614  17.530  0.00  0.00    +0.000 OA
ATOM     26  H   UNL     1       2.642   7.945  19.243  0.00  0.00    +0.000 HD
ATOM     27  H   UNL     1       1.241   8.185  20.219  0.00  0.00    +0.000 HD
ENDBRANCH   1  24
BRANCH  10  28
ATOM     28  C   UNL     1       0.874  11.445  20.603  0.00  0.00    +0.000 C 
ATOM     29  O   UNL     1       1.631  12.384  20.456  0.00  0.00    +0.000 OA
BRANCH  28  30
ATOM     30  O   UNL     1       0.926  10.618  21.673  0.00  0.00    +0.000 OA
ATOM     31  H   UNL     1       1.804  10.259  21.914  0.00  0.00    +0.000 HD
ENDBRANCH  28  30
ENDBRANCH  10  28
TORSDOF 4
ENDMDL
MODEL 6
REMARK VINA RESULT:      -7.4      0.737      1.331
REMARK  Name = 
REMARK  4 active torsions:
REMARK  status: ('A' for Active; 'I' for Inactive)
REMARK    1  A    between atoms: C_2  and  C_4
REMARK    2  A    between atoms: C_12  and  C_13
REMARK    3  A    between atoms: C_22  and  C_23
REMARK    4  A    between atoms: C_23  and  O_25
REMARK                            x       y       z     vdW  Elec       q    Type
REMARK                         _______ _______ _______ _____ _____    ______ ____
ROOT
ATOM      1  C   UNL     1       2.510   3.628  20.837  0.00  0.00    +0.000 A 
ATOM      2  C   UNL     1       1.869   4.818  21.193  0.00  0.00    +0.000 A 
ATOM      3  C   UNL     1       1.959   5.975  20.421  0.00  0.00    +0.000 A 
ATOM      4  C   UNL     1       1.279   7.123  20.894  0.00  0.00    +0.000 A 
ATOM      5  C   UNL     1       1.308   8.331  20.207  0.00  0.00    +0.000 A 
ATOM      6  C   UNL     1       2.027   8.365  19.046  0.00  0.00    +0.000 A 
ATOM      7  C   UNL     1       2.726   7.261  18.579  0.00  0.00    +0.000 A 
ATOM      8  C   UNL     1       2.729   5.991  19.223  0.00  0.00    +0.000 A 
ATOM      9  C   UNL     1       3.419   4.760  18.828  0.00  0.00    +0.000 A 
ATOM     10  C   UNL     1       3.283   3.594  19.662  0.00  0.00    +0.000 A 
ATOM     11  O   UNL     1       3.397   7.605  17.439  0.00  0.00    +0.000 OA
ATOM     12  C   UNL     1       2.918   8.929  17.168  0.00  0.00    +0.000 C 
ATOM     13  O   UNL     1       2.142   9.463  18.249  0.00  0.00    +0.000 OA
ENDROOT
BRANCH   9  14
ATOM     14  C   UNL     1       4.318   4.728  17.616  0.00  0.00    +0.000 A 
ATOM     15  C   UNL     1       3.899   4.158  16.386  0.00  0.00    +0.000 A 
ATOM     16  C   UNL     1       4.614   4.346  15.191  0.00  0.00    +0.000 A 
ATOM     17  C   UNL     1       5.834   4.970  15.270  0.00  0.00    +0.000 A 
ATOM     18  C   UNL     1       6.331   5.405  16.470  0.00  0.00    +0.000 A 
ATOM     19  C   UNL     1       5.593   5.331  17.637  0.00  0.00    +0.000 A 
ATOM     20  O   UNL     1       7.580   5.932  16.353  0.00  0.00    +0.000 OA
ATOM     21  C   UNL     1       7.818   5.748  14.942  0.00  0.00    +0.000 C 
ATOM     22  O   UNL     1       6.676   5.223  14.234  0.00  0.00    +0.000 OA
ENDBRANCH   9  14
BRANCH   1  24
ATOM     23  N   UNL     1       1.140   2.229  22.350  0.00  0.00    +0.000 N 
ATOM     24  C   UNL     1       2.359   2.524  21.820  0.00  0.00    +0.000 C 
ATOM     25  O   UNL     1       3.336   1.851  22.139  0.00  0.00    +0.000 OA
ATOM     26  H   UNL     1       1.089   1.430  22.978  0.00  0.00    +0.000 HD
ATOM     27  H   UNL     1       0.263   2.692  22.144  0.00  0.00    +0.000 HD
ENDBRANCH   1  24
BRANCH  10  28
ATOM     28  C   UNL     1       3.949   2.331  19.290  0.00  0.00    +0.000 C 
ATOM     29  O   UNL     1       3.420   1.484  18.596  0.00  0.00    +0.000 OA
BRANCH  28  30
ATOM     30  O   UNL     1       5.187   2.184  19.816  0.00  0.00    +0.000 OA
ATOM     31  H   UNL     1       5.274   2.298  20.784  0.00  0.00    +0.000 HD
ENDBRANCH  28  30
ENDBRANCH  10  28
TORSDOF 4
ENDMDL
MODEL 7
REMARK VINA RESULT:      -7.3      5.756     10.241
REMARK  Name = 
REMARK  4 active torsions:
REMARK  status: ('A' for Active; 'I' for Inactive)
REMARK    1  A    between atoms: C_2  and  C_4
REMARK    2  A    between atoms: C_12  and  C_13
REMARK    3  A    between atoms: C_22  and  C_23
REMARK    4  A    between atoms: C_23  and  O_25
REMARK                            x       y       z     vdW  Elec       q    Type
REMARK                         _______ _______ _______ _____ _____    ______ ____
ROOT
ATOM      1  C   UNL     1       0.181  10.246  18.722  0.00  0.00    +0.000 A 
ATOM      2  C   UNL     1      -0.793  10.015  17.746  0.00  0.00    +0.000 A 
ATOM      3  C   UNL     1      -2.063  10.586  17.808  0.00  0.00    +0.000 A 
ATOM      4  C   UNL     1      -2.968  10.264  16.768  0.00  0.00    +0.000 A 
ATOM      5  C   UNL     1      -4.261  10.771  16.734  0.00  0.00    +0.000 A 
ATOM      6  C   UNL     1      -4.627  11.601  17.756  0.00  0.00    +0.000 A 
ATOM      7  C   UNL     1      -3.767  11.906  18.801  0.00  0.00    +0.000 A 
ATOM      8  C   UNL     1      -2.426  11.434  18.892  0.00  0.00    +0.000 A 
ATOM      9  C   UNL     1      -1.430  11.688  19.935  0.00  0.00    +0.000 A 
ATOM     10  C   UNL     1      -0.132  11.076  19.814  0.00  0.00    +0.000 A 
ATOM     11  O   UNL     1      -4.420  12.701  19.701  0.00  0.00    +0.000 OA
ATOM     12  C   UNL     1      -5.660  12.986  19.041  0.00  0.00    +0.000 C 
ATOM     13  O   UNL     1      -5.849  12.192  17.862  0.00  0.00    +0.000 OA
ENDROOT
BRANCH   9  14
ATOM     14  C   UNL     1      -1.772  12.510  21.154  0.00  0.00    +0.000 A 
ATOM     15  C   UNL     1      -2.267  11.916  22.345  0.00  0.00    +0.000 A 
ATOM     16  C   UNL     1      -2.345  12.621  23.558  0.00  0.00    +0.000 A 
ATOM     17  C   UNL     1      -2.078  13.967  23.530  0.00  0.00    +0.000 A 
ATOM     18  C   UNL     1      -1.736  14.598  22.363  0.00  0.00    +0.000 A 
ATOM     19  C   UNL     1      -1.543  13.901  21.185  0.00  0.00    +0.000 A 
ATOM     20  O   UNL     1      -1.580  15.940  22.526  0.00  0.00    +0.000 OA
ATOM     21  C   UNL     1      -1.895  16.079  23.927  0.00  0.00    +0.000 C 
ATOM     22  O   UNL     1      -2.121  14.817  24.589  0.00  0.00    +0.000 OA
ENDBRANCH   9  14
BRANCH   1  24
ATOM     23  N   UNL     1       1.759   8.439  19.328  0.00  0.00    +0.000 N 
ATOM     24  C   UNL     1       1.447   9.494  18.525  0.00  0.00    +0.000 C 
ATOM     25  O   UNL     1       2.210   9.808  17.614  0.00  0.00    +0.000 OA
ATOM     26  H   UNL     1       2.614   7.931  19.112  0.00  0.00    +0.000 HD
ATOM     27  H   UNL     1       1.200   8.073  20.088  0.00  0.00    +0.000 HD
ENDBRANCH   1  24
BRANCH  10  28
ATOM     28  C   UNL     1       0.906  11.321  20.835  0.00  0.00    +0.000 C 
ATOM     29  O   UNL     1       1.643  12.288  20.811  0.00  0.00    +0.000 OA
BRANCH  28  30
ATOM     30  O   UNL     1       0.985  10.358  21.782  0.00  0.00    +0.000 OA
ATOM     31  H   UNL     1       0.440  10.480  22.585  0.00  0.00    +0.000 HD
ENDBRANCH  28  30
ENDBRANCH  10  28
TORSDOF 4
ENDMDL
MODEL 8
REMARK VINA RESULT:      -7.3      8.699     11.390
REMARK  Name = 
REMARK  4 active torsions:
REMARK  status: ('A' for Active; 'I' for Inactive)
REMARK    1  A    between atoms: C_2  and  C_4
REMARK    2  A    between atoms: C_12  and  C_13
REMARK    3  A    between atoms: C_22  and  C_23
REMARK    4  A    between atoms: C_23  and  O_25
REMARK                            x       y       z     vdW  Elec       q    Type
REMARK                         _______ _______ _______ _____ _____    ______ ____
ROOT
ATOM      1  C   UNL     1      -3.337  11.182  17.673  0.00  0.00    +0.000 A 
ATOM      2  C   UNL     1      -4.707  10.951  17.821  0.00  0.00    +0.000 A 
ATOM      3  C   UNL     1      -5.429  11.416  18.919  0.00  0.00    +0.000 A 
ATOM      4  C   UNL     1      -6.809  11.105  18.965  0.00  0.00    +0.000 A 
ATOM      5  C   UNL     1      -7.622  11.512  20.016  0.00  0.00    +0.000 A 
ATOM      6  C   UNL     1      -7.028  12.233  21.012  0.00  0.00    +0.000 A 
ATOM      7  C   UNL     1      -5.671  12.524  21.004  0.00  0.00    +0.000 A 
ATOM      8  C   UNL     1      -4.784  12.151  19.954  0.00  0.00    +0.000 A 
ATOM      9  C   UNL     1      -3.346  12.402  19.831  0.00  0.00    +0.000 A 
ATOM     10  C   UNL     1      -2.655  11.902  18.671  0.00  0.00    +0.000 A 
ATOM     11  O   UNL     1      -5.350  13.198  22.149  0.00  0.00    +0.000 OA
ATOM     12  C   UNL     1      -6.628  13.435  22.754  0.00  0.00    +0.000 C 
ATOM     13  O   UNL     1      -7.685  12.719  22.102  0.00  0.00    +0.000 OA
ENDROOT
BRANCH   9  14
ATOM     14  C   UNL     1      -2.582  13.101  20.928  0.00  0.00    +0.000 A 
ATOM     15  C   UNL     1      -2.011  12.390  22.016  0.00  0.00    +0.000 A 
ATOM     16  C   UNL     1      -1.090  12.982  22.897  0.00  0.00    +0.000 A 
ATOM     17  C   UNL     1      -0.871  14.332  22.779  0.00  0.00    +0.000 A 
ATOM     18  C   UNL     1      -1.519  15.074  21.826  0.00  0.00    +0.000 A 
ATOM     19  C   UNL     1      -2.341  14.491  20.879  0.00  0.00    +0.000 A 
ATOM     20  O   UNL     1      -1.226  16.399  21.914  0.00  0.00    +0.000 OA
ATOM     21  C   UNL     1      -0.340  16.403  23.052  0.00  0.00    +0.000 C 
ATOM     22  O   UNL     1      -0.039  15.082  23.547  0.00  0.00    +0.000 OA
ENDBRANCH   9  14
BRANCH   1  24
ATOM     23  N   UNL     1      -2.920  11.072  15.236  0.00  0.00    +0.000 N 
ATOM     24  C   UNL     1      -2.726  10.547  16.477  0.00  0.00    +0.000 C 
ATOM     25  O   UNL     1      -2.015   9.552  16.608  0.00  0.00    +0.000 OA
ATOM     26  H   UNL     1      -2.435  10.625  14.462  0.00  0.00    +0.000 HD
ATOM     27  H   UNL     1      -3.459  11.899  15.008  0.00  0.00    +0.000 HD
ENDBRANCH   1  24
BRANCH  10  28
ATOM     28  C   UNL     1      -1.209  12.149  18.501  0.00  0.00    +0.000 C 
ATOM     29  O   UNL     1      -0.354  11.440  18.995  0.00  0.00    +0.000 OA
BRANCH  28  30
ATOM     30  O   UNL     1      -0.921  13.252  17.773  0.00  0.00    +0.000 OA
ATOM     31  H   UNL     1      -1.410  14.070  17.995  0.00  0.00    +0.000 HD
ENDBRANCH  28  30
ENDBRANCH  10  28
TORSDOF 4
ENDMDL
MODEL 9
REMARK VINA RESULT:      -7.2      7.282     10.183
REMARK  Name = 
REMARK  4 active torsions:
REMARK  status: ('A' for Active; 'I' for Inactive)
REMARK    1  A    between atoms: C_2  and  C_4
REMARK    2  A    between atoms: C_12  and  C_13
REMARK    3  A    between atoms: C_22  and  C_23
REMARK    4  A    between atoms: C_23  and  O_25
REMARK                            x       y       z     vdW  Elec       q    Type
REMARK                         _______ _______ _______ _____ _____    ______ ____
ROOT
ATOM      1  C   UNL     1      -5.526  11.860  19.383  0.00  0.00    +0.000 A 
ATOM      2  C   UNL     1      -5.930  12.434  20.591  0.00  0.00    +0.000 A 
ATOM      3  C   UNL     1      -5.020  12.928  21.525  0.00  0.00    +0.000 A 
ATOM      4  C   UNL     1      -5.550  13.472  22.720  0.00  0.00    +0.000 A 
ATOM      5  C   UNL     1      -4.734  13.985  23.721  0.00  0.00    +0.000 A 
ATOM      6  C   UNL     1      -3.387  13.942  23.502  0.00  0.00    +0.000 A 
ATOM      7  C   UNL     1      -2.843  13.386  22.353  0.00  0.00    +0.000 A 
ATOM      8  C   UNL     1      -3.619  12.856  21.282  0.00  0.00    +0.000 A 
ATOM      9  C   UNL     1      -3.164  12.251  20.028  0.00  0.00    +0.000 A 
ATOM     10  C   UNL     1      -4.151  11.765  19.098  0.00  0.00    +0.000 A 
ATOM     11  O   UNL     1      -1.480  13.425  22.438  0.00  0.00    +0.000 OA
ATOM     12  C   UNL     1      -1.251  14.191  23.628  0.00  0.00    +0.000 C 
ATOM     13  O   UNL     1      -2.454  14.416  24.374  0.00  0.00    +0.000 OA
ENDROOT
BRANCH   9  14
ATOM     14  C   UNL     1      -1.694  12.067  19.741  0.00  0.00    +0.000 A 
ATOM     15  C   UNL     1      -1.036  10.829  19.960  0.00  0.00    +0.000 A 
ATOM     16  C   UNL     1       0.253  10.567  19.464  0.00  0.00    +0.000 A 
ATOM     17  C   UNL     1       0.938  11.608  18.890  0.00  0.00    +0.000 A 
ATOM     18  C   UNL     1       0.380  12.856  18.792  0.00  0.00    +0.000 A 
ATOM     19  C   UNL     1      -0.926  13.104  19.171  0.00  0.00    +0.000 A 
ATOM     20  O   UNL     1       1.238  13.767  18.259  0.00  0.00    +0.000 OA
ATOM     21  C   UNL     1       2.410  12.949  18.062  0.00  0.00    +0.000 C 
ATOM     22  O   UNL     1       2.194  11.557  18.374  0.00  0.00    +0.000 OA
ENDBRANCH   9  14
BRANCH   1  24
ATOM     23  N   UNL     1      -7.144  10.084  18.788  0.00  0.00    +0.000 N 
ATOM     24  C   UNL     1      -6.633  11.324  18.550  0.00  0.00    +0.000 C 
ATOM     25  O   UNL     1      -7.113  12.014  17.652  0.00  0.00    +0.000 OA
ATOM     26  H   UNL     1      -7.935   9.793  18.219  0.00  0.00    +0.000 HD
ATOM     27  H   UNL     1      -6.851   9.440  19.512  0.00  0.00    +0.000 HD
ENDBRANCH   1  24
BRANCH  10  28
ATOM     28  C   UNL     1      -3.735  11.165  17.816  0.00  0.00    +0.000 C 
ATOM     29  O   UNL     1      -3.484   9.982  17.689  0.00  0.00    +0.000 OA
BRANCH  28  30
ATOM     30  O   UNL     1      -3.625  12.054  16.802  0.00  0.00    +0.000 OA
ATOM     31  H   UNL     1      -2.749  12.469  16.669  0.00  0.00    +0.000 HD
ENDBRANCH  28  30
ENDBRANCH  10  28
TORSDOF 4
ENDMDL
