MODEL 1
REMARK VINA RESULT:      -8.0      0.000      0.000
REMARK  Name = 
REMARK  5 active torsions:
REMARK  status: ('A' for Active; 'I' for Inactive)
REMARK    1  A    between atoms: C_2  and  C_3
REMARK    2  A    between atoms: C_3  and  N_4
REMARK    3  A    between atoms: C_7  and  C_8
REMARK    4  A    between atoms: C_11  and  N_12
REMARK    5  A    between atoms: N_24  and  C_25
REMARK                            x       y       z     vdW  Elec       q    Type
REMARK                         _______ _______ _______ _____ _____    ______ ____
ROOT
ATOM      1  N   UNL     1       3.351   4.986  19.964  0.00  0.00    +0.000 N 
ATOM      2  N   UNL     1       2.273   4.748  20.732  0.00  0.00    +0.000 NA
ATOM      3  N   UNL     1       1.537   5.845  20.634  0.00  0.00    +0.000 NA
ATOM      4  C   UNL     1       2.235   6.733  19.847  0.00  0.00    +0.000 A 
ATOM      5  N   UNL     1       3.420   6.234  19.445  0.00  0.00    +0.000 NA
ENDROOT
BRANCH   4   6
ATOM      6  C   UNL     1       1.774   8.093  19.581  0.00  0.00    +0.000 A 
ATOM      7  C   UNL     1       1.129   8.848  20.567  0.00  0.00    +0.000 A 
ATOM      8  C   UNL     1       0.792  10.193  20.334  0.00  0.00    +0.000 A 
ATOM      9  C   UNL     1       1.097  10.836  19.125  0.00  0.00    +0.000 A 
ATOM     10  C   UNL     1       1.681  10.047  18.126  0.00  0.00    +0.000 A 
ATOM     11  C   UNL     1       2.011   8.701  18.345  0.00  0.00    +0.000 A 
BRANCH   9  12
ATOM     12  N   UNL     1       0.921  12.206  18.998  0.00  0.00    +0.000 N 
ATOM     13  C   UNL     1       1.961  13.042  18.373  0.00  0.00    +0.000 C 
ATOM     14  C   UNL     1       1.828  14.485  18.892  0.00  0.00    +0.000 C 
ATOM     15  O   UNL     1       0.510  15.015  18.667  0.00  0.00    +0.000 OA
ATOM     16  C   UNL     1      -0.474  14.194  19.321  0.00  0.00    +0.000 C 
ATOM     17  C   UNL     1      -0.437  12.746  18.799  0.00  0.00    +0.000 C 
ENDBRANCH   9  12
ENDBRANCH   4   6
BRANCH   1  18
ATOM     18  C   UNL     1       4.523   4.133  20.036  0.00  0.00    +0.000 C 
BRANCH  18  20
ATOM     19  O   UNL     1       6.602   5.336  19.880  0.00  0.00    +0.000 OA
ATOM     20  C   UNL     1       5.710   4.714  19.298  0.00  0.00    +0.000 C 
ATOM     21  N   UNL     1       5.752   4.523  17.918  0.00  0.00    +0.000 N 
ATOM     22  C   UNL     1       4.767   3.763  17.129  0.00  0.00    +0.000 C 
ATOM     23  C   UNL     1       4.481   4.424  15.763  0.00  0.00    +0.000 C 
ATOM     24  N   UNL     1       5.744   4.660  15.048  0.00  0.00    +0.000 N 
ATOM     25  C   UNL     1       6.727   5.462  15.798  0.00  0.00    +0.000 C 
ATOM     26  C   UNL     1       6.992   4.844  17.185  0.00  0.00    +0.000 C 
BRANCH  24  27
ATOM     27  C   UNL     1       5.971   4.166  13.778  0.00  0.00    +0.000 A 
ATOM     28  C   UNL     1       4.981   3.465  13.069  0.00  0.00    +0.000 A 
ATOM     29  C   UNL     1       5.215   2.917  11.800  0.00  0.00    +0.000 A 
ATOM     30  C   UNL     1       6.456   3.067  11.198  0.00  0.00    +0.000 A 
ATOM     31  C   UNL     1       7.451   3.773  11.861  0.00  0.00    +0.000 A 
ATOM     32  C   UNL     1       7.207   4.317  13.130  0.00  0.00    +0.000 A 
ENDBRANCH  24  27
ENDBRANCH  18  20
ENDBRANCH   1  18
TORSDOF 5
ENDMDL
MODEL 2
REMARK VINA RESULT:      -8.0      0.915      1.525
REMARK  Name = 
REMARK  5 active torsions:
REMARK  status: ('A' for Active; 'I' for Inactive)
REMARK    1  A    between atoms: C_2  and  C_3
REMARK    2  A    between atoms: C_3  and  N_4
REMARK    3  A    between atoms: C_7  and  C_8
REMARK    4  A    between atoms: C_11  and  N_12
REMARK    5  A    between atoms: N_24  and  C_25
REMARK                            x       y       z     vdW  Elec       q    Type
REMARK                         _______ _______ _______ _____ _____    ______ ____
ROOT
ATOM      1  N   UNL     1       3.173   4.461  20.008  0.00  0.00    +0.000 N 
ATOM      2  N   UNL     1       2.154   4.198  20.846  0.00  0.00    +0.000 NA
ATOM      3  N   UNL     1       1.482   5.336  20.934  0.00  0.00    +0.000 NA
ATOM      4  C   UNL     1       2.162   6.267  20.181  0.00  0.00    +0.000 A 
ATOM      5  N   UNL     1       3.273   5.753  19.619  0.00  0.00    +0.000 NA
ENDROOT
BRANCH   4   6
ATOM      6  C   UNL     1       1.766   7.671  20.103  0.00  0.00    +0.000 A 
ATOM      7  C   UNL     1       1.879   8.394  18.911  0.00  0.00    +0.000 A 
ATOM      8  C   UNL     1       1.390   9.709  18.820  0.00  0.00    +0.000 A 
ATOM      9  C   UNL     1       0.759  10.342  19.903  0.00  0.00    +0.000 A 
ATOM     10  C   UNL     1       0.715   9.629  21.107  0.00  0.00    +0.000 A 
ATOM     11  C   UNL     1       1.212   8.320  21.210  0.00  0.00    +0.000 A 
BRANCH   9  12
ATOM     12  N   UNL     1       0.125  11.562  19.725  0.00  0.00    +0.000 N 
ATOM     13  C   UNL     1      -0.804  12.081  20.745  0.00  0.00    +0.000 C 
ATOM     14  C   UNL     1      -1.792  13.055  20.079  0.00  0.00    +0.000 C 
ATOM     15  O   UNL     1      -1.113  14.116  19.386  0.00  0.00    +0.000 OA
ATOM     16  C   UNL     1      -0.244  13.573  18.375  0.00  0.00    +0.000 C 
ATOM     17  C   UNL     1       0.814  12.636  18.985  0.00  0.00    +0.000 C 
ENDBRANCH   9  12
ENDBRANCH   4   6
BRANCH   1  18
ATOM     18  C   UNL     1       4.291   3.545  19.880  0.00  0.00    +0.000 C 
BRANCH  18  20
ATOM     19  O   UNL     1       6.364   4.743  20.123  0.00  0.00    +0.000 OA
ATOM     20  C   UNL     1       5.542   4.224  19.365  0.00  0.00    +0.000 C 
ATOM     21  N   UNL     1       5.725   4.248  17.983  0.00  0.00    +0.000 N 
ATOM     22  C   UNL     1       4.832   3.626  16.991  0.00  0.00    +0.000 C 
ATOM     23  C   UNL     1       4.681   4.491  15.721  0.00  0.00    +0.000 C 
ATOM     24  N   UNL     1       6.008   4.826  15.183  0.00  0.00    +0.000 N 
ATOM     25  C   UNL     1       6.903   5.496  16.144  0.00  0.00    +0.000 C 
ATOM     26  C   UNL     1       7.031   4.669  17.439  0.00  0.00    +0.000 C 
BRANCH  24  27
ATOM     27  C   UNL     1       6.367   4.531  13.882  0.00  0.00    +0.000 A 
ATOM     28  C   UNL     1       5.729   3.516  13.149  0.00  0.00    +0.000 A 
ATOM     29  C   UNL     1       6.117   3.176  11.846  0.00  0.00    +0.000 A 
ATOM     30  C   UNL     1       7.159   3.857  11.232  0.00  0.00    +0.000 A 
ATOM     31  C   UNL     1       7.797   4.882  11.918  0.00  0.00    +0.000 A 
ATOM     32  C   UNL     1       7.401   5.213  13.223  0.00  0.00    +0.000 A 
ENDBRANCH  24  27
ENDBRANCH  18  20
ENDBRANCH   1  18
TORSDOF 5
ENDMDL
MODEL 3
REMARK VINA RESULT:      -7.8      3.031     10.490
REMARK  Name = 
REMARK  5 active torsions:
REMARK  status: ('A' for Active; 'I' for Inactive)
REMARK    1  A    between atoms: C_2  and  C_3
REMARK    2  A    between atoms: C_3  and  N_4
REMARK    3  A    between atoms: C_7  and  C_8
REMARK    4  A    between atoms: C_11  and  N_12
REMARK    5  A    between atoms: N_24  and  C_25
REMARK                            x       y       z     vdW  Elec       q    Type
REMARK                         _______ _______ _______ _____ _____    ______ ____
ROOT
ATOM      1  N   UNL     1      -0.314  10.757  22.191  0.00  0.00    +0.000 N 
ATOM      2  N   UNL     1       0.369  10.217  23.217  0.00  0.00    +0.000 NA
ATOM      3  N   UNL     1       1.124   9.279  22.667  0.00  0.00    +0.000 NA
ATOM      4  C   UNL     1       0.824   9.251  21.324  0.00  0.00    +0.000 A 
ATOM      5  N   UNL     1      -0.127  10.148  20.997  0.00  0.00    +0.000 NA
ENDROOT
BRANCH   4   6
ATOM      6  C   UNL     1       1.402   8.280  20.399  0.00  0.00    +0.000 A 
ATOM      7  C   UNL     1       1.838   8.659  19.125  0.00  0.00    +0.000 A 
ATOM      8  C   UNL     1       2.495   7.739  18.288  0.00  0.00    +0.000 A 
ATOM      9  C   UNL     1       2.753   6.421  18.694  0.00  0.00    +0.000 A 
ATOM     10  C   UNL     1       2.250   6.040  19.944  0.00  0.00    +0.000 A 
ATOM     11  C   UNL     1       1.584   6.948  20.781  0.00  0.00    +0.000 A 
BRANCH   9  12
ATOM     12  N   UNL     1       3.563   5.600  17.924  0.00  0.00    +0.000 N 
ATOM     13  C   UNL     1       3.099   4.264  17.509  0.00  0.00    +0.000 C 
ATOM     14  C   UNL     1       4.320   3.367  17.239  0.00  0.00    +0.000 C 
ATOM     15  O   UNL     1       5.209   3.949  16.269  0.00  0.00    +0.000 OA
ATOM     16  C   UNL     1       5.669   5.234  16.726  0.00  0.00    +0.000 C 
ATOM     17  C   UNL     1       4.496   6.204  16.955  0.00  0.00    +0.000 C 
ENDBRANCH   9  12
ENDBRANCH   4   6
BRANCH   1  18
ATOM     18  C   UNL     1      -1.451  11.627  22.425  0.00  0.00    +0.000 C 
BRANCH  18  20
ATOM     19  O   UNL     1      -1.136  13.495  23.909  0.00  0.00    +0.000 OA
ATOM     20  C   UNL     1      -1.038  13.043  22.766  0.00  0.00    +0.000 C 
ATOM     21  N   UNL     1      -0.545  13.827  21.723  0.00  0.00    +0.000 N 
ATOM     22  C   UNL     1      -0.347  13.377  20.335  0.00  0.00    +0.000 C 
ATOM     23  C   UNL     1      -0.712  14.473  19.311  0.00  0.00    +0.000 C 
ATOM     24  N   UNL     1       0.009  15.715  19.631  0.00  0.00    +0.000 N 
ATOM     25  C   UNL     1      -0.214  16.213  21.000  0.00  0.00    +0.000 C 
ATOM     26  C   UNL     1       0.100  15.116  22.037  0.00  0.00    +0.000 C 
BRANCH  24  27
ATOM     27  C   UNL     1       0.820  16.349  18.710  0.00  0.00    +0.000 A 
ATOM     28  C   UNL     1       0.376  17.462  17.974  0.00  0.00    +0.000 A 
ATOM     29  C   UNL     1       1.173  18.084  17.003  0.00  0.00    +0.000 A 
ATOM     30  C   UNL     1       2.452  17.610  16.748  0.00  0.00    +0.000 A 
ATOM     31  C   UNL     1       2.932  16.527  17.472  0.00  0.00    +0.000 A 
ATOM     32  C   UNL     1       2.126  15.911  18.441  0.00  0.00    +0.000 A 
ENDBRANCH  24  27
ENDBRANCH  18  20
ENDBRANCH   1  18
TORSDOF 5
ENDMDL
MODEL 4
REMARK VINA RESULT:      -7.8      0.698      1.029
REMARK  Name = 
REMARK  5 active torsions:
REMARK  status: ('A' for Active; 'I' for Inactive)
REMARK    1  A    between atoms: C_2  and  C_3
REMARK    2  A    between atoms: C_3  and  N_4
REMARK    3  A    between atoms: C_7  and  C_8
REMARK    4  A    between atoms: C_11  and  N_12
REMARK    5  A    between atoms: N_24  and  C_25
REMARK                            x       y       z     vdW  Elec       q    Type
REMARK                         _______ _______ _______ _____ _____    ______ ____
ROOT
ATOM      1  N   UNL     1       3.192   4.597  20.034  0.00  0.00    +0.000 N 
ATOM      2  N   UNL     1       2.193   4.356  20.904  0.00  0.00    +0.000 NA
ATOM      3  N   UNL     1       1.490   5.478  20.932  0.00  0.00    +0.000 NA
ATOM      4  C   UNL     1       2.130   6.380  20.112  0.00  0.00    +0.000 A 
ATOM      5  N   UNL     1       3.247   5.864  19.564  0.00  0.00    +0.000 NA
ENDROOT
BRANCH   4   6
ATOM      6  C   UNL     1       1.690   7.764  19.955  0.00  0.00    +0.000 A 
ATOM      7  C   UNL     1       1.075   8.455  21.004  0.00  0.00    +0.000 A 
ATOM      8  C   UNL     1       0.760   9.819  20.877  0.00  0.00    +0.000 A 
ATOM      9  C   UNL     1       1.057  10.544  19.713  0.00  0.00    +0.000 A 
ATOM     10  C   UNL     1       1.609   9.821  18.648  0.00  0.00    +0.000 A 
ATOM     11  C   UNL     1       1.917   8.456  18.762  0.00  0.00    +0.000 A 
BRANCH   9  12
ATOM     12  N   UNL     1       0.904  11.922  19.689  0.00  0.00    +0.000 N 
ATOM     13  C   UNL     1       0.272  12.626  20.819  0.00  0.00    +0.000 C 
ATOM     14  C   UNL     1      -0.321  13.955  20.317  0.00  0.00    +0.000 C 
ATOM     15  O   UNL     1       0.669  14.771  19.666  0.00  0.00    +0.000 OA
ATOM     16  C   UNL     1       1.237  14.064  18.548  0.00  0.00    +0.000 C 
ATOM     17  C   UNL     1       1.905  12.750  18.992  0.00  0.00    +0.000 C 
ENDBRANCH   9  12
ENDBRANCH   4   6
BRANCH   1  18
ATOM     18  C   UNL     1       4.335   3.707  19.943  0.00  0.00    +0.000 C 
BRANCH  18  20
ATOM     19  O   UNL     1       6.380   4.967  20.086  0.00  0.00    +0.000 OA
ATOM     20  C   UNL     1       5.558   4.391  19.371  0.00  0.00    +0.000 C 
ATOM     21  N   UNL     1       5.716   4.349  17.986  0.00  0.00    +0.000 N 
ATOM     22  C   UNL     1       4.821   3.655  17.043  0.00  0.00    +0.000 C 
ATOM     23  C   UNL     1       4.624   4.451  15.735  0.00  0.00    +0.000 C 
ATOM     24  N   UNL     1       5.932   4.791  15.156  0.00  0.00    +0.000 N 
ATOM     25  C   UNL     1       6.827   5.531  16.064  0.00  0.00    +0.000 C 
ATOM     26  C   UNL     1       7.000   4.774  17.396  0.00  0.00    +0.000 C 
BRANCH  24  27
ATOM     27  C   UNL     1       6.275   4.441  13.864  0.00  0.00    +0.000 A 
ATOM     28  C   UNL     1       5.610   3.413  13.175  0.00  0.00    +0.000 A 
ATOM     29  C   UNL     1       5.981   3.016  11.883  0.00  0.00    +0.000 A 
ATOM     30  C   UNL     1       7.032   3.651  11.236  0.00  0.00    +0.000 A 
ATOM     31  C   UNL     1       7.698   4.686  11.879  0.00  0.00    +0.000 A 
ATOM     32  C   UNL     1       7.319   5.075  13.173  0.00  0.00    +0.000 A 
ENDBRANCH  24  27
ENDBRANCH  18  20
ENDBRANCH   1  18
TORSDOF 5
ENDMDL
MODEL 5
REMARK VINA RESULT:      -7.8      4.143     12.450
REMARK  Name = 
REMARK  5 active torsions:
REMARK  status: ('A' for Active; 'I' for Inactive)
REMARK    1  A    between atoms: C_2  and  C_3
REMARK    2  A    between atoms: C_3  and  N_4
REMARK    3  A    between atoms: C_7  and  C_8
REMARK    4  A    between atoms: C_11  and  N_12
REMARK    5  A    between atoms: N_24  and  C_25
REMARK                            x       y       z     vdW  Elec       q    Type
REMARK                         _______ _______ _______ _____ _____    ______ ____
ROOT
ATOM      1  N   UNL     1       0.086   9.943  20.726  0.00  0.00    +0.000 N 
ATOM      2  N   UNL     1      -0.128   8.934  21.591  0.00  0.00    +0.000 NA
ATOM      3  N   UNL     1       0.691   7.970  21.199  0.00  0.00    +0.000 NA
ATOM      4  C   UNL     1       1.335   8.419  20.068  0.00  0.00    +0.000 A 
ATOM      5  N   UNL     1       0.933   9.654  19.711  0.00  0.00    +0.000 NA
ENDROOT
BRANCH   4   6
ATOM      6  C   UNL     1       2.261   7.592  19.298  0.00  0.00    +0.000 A 
ATOM      7  C   UNL     1       2.786   8.030  18.078  0.00  0.00    +0.000 A 
ATOM      8  C   UNL     1       3.762   7.276  17.404  0.00  0.00    +0.000 A 
ATOM      9  C   UNL     1       4.259   6.071  17.926  0.00  0.00    +0.000 A 
ATOM     10  C   UNL     1       3.674   5.613  19.113  0.00  0.00    +0.000 A 
ATOM     11  C   UNL     1       2.691   6.355  19.787  0.00  0.00    +0.000 A 
BRANCH   9  12
ATOM     12  N   UNL     1       5.348   5.450  17.333  0.00  0.00    +0.000 N 
ATOM     13  C   UNL     1       6.229   4.569  18.120  0.00  0.00    +0.000 C 
ATOM     14  C   UNL     1       7.618   4.522  17.457  0.00  0.00    +0.000 C 
ATOM     15  O   UNL     1       7.541   4.110  16.082  0.00  0.00    +0.000 OA
ATOM     16  C   UNL     1       6.703   5.014  15.339  0.00  0.00    +0.000 C 
ATOM     17  C   UNL     1       5.275   5.060  15.913  0.00  0.00    +0.000 C 
ENDBRANCH   9  12
ENDBRANCH   4   6
BRANCH   1  18
ATOM     18  C   UNL     1      -0.823  11.071  20.653  0.00  0.00    +0.000 C 
BRANCH  18  20
ATOM     19  O   UNL     1       0.801  12.441  21.785  0.00  0.00    +0.000 OA
ATOM     20  C   UNL     1      -0.386  12.225  21.530  0.00  0.00    +0.000 C 
ATOM     21  N   UNL     1      -1.392  13.039  22.051  0.00  0.00    +0.000 N 
ATOM     22  C   UNL     1      -2.832  12.899  21.780  0.00  0.00    +0.000 C 
ATOM     23  C   UNL     1      -3.691  13.184  23.031  0.00  0.00    +0.000 C 
ATOM     24  N   UNL     1      -3.328  14.492  23.598  0.00  0.00    +0.000 N 
ATOM     25  C   UNL     1      -1.898  14.638  23.926  0.00  0.00    +0.000 C 
ATOM     26  C   UNL     1      -1.021  14.311  22.700  0.00  0.00    +0.000 C 
BRANCH  24  27
ATOM     27  C   UNL     1      -4.264  15.487  23.802  0.00  0.00    +0.000 A 
ATOM     28  C   UNL     1      -4.086  16.482  24.779  0.00  0.00    +0.000 A 
ATOM     29  C   UNL     1      -5.050  17.468  25.028  0.00  0.00    +0.000 A 
ATOM     30  C   UNL     1      -6.226  17.491  24.291  0.00  0.00    +0.000 A 
ATOM     31  C   UNL     1      -6.426  16.537  23.303  0.00  0.00    +0.000 A 
ATOM     32  C   UNL     1      -5.454  15.554  23.062  0.00  0.00    +0.000 A 
ENDBRANCH  24  27
ENDBRANCH  18  20
ENDBRANCH   1  18
TORSDOF 5
ENDMDL
MODEL 6
REMARK VINA RESULT:      -7.7      1.029      1.615
REMARK  Name = 
REMARK  5 active torsions:
REMARK  status: ('A' for Active; 'I' for Inactive)
REMARK    1  A    between atoms: C_2  and  C_3
REMARK    2  A    between atoms: C_3  and  N_4
REMARK    3  A    between atoms: C_7  and  C_8
REMARK    4  A    between atoms: C_11  and  N_12
REMARK    5  A    between atoms: N_24  and  C_25
REMARK                            x       y       z     vdW  Elec       q    Type
REMARK                         _______ _______ _______ _____ _____    ______ ____
ROOT
ATOM      1  N   UNL     1       3.164   4.526  20.014  0.00  0.00    +0.000 N 
ATOM      2  N   UNL     1       2.080   4.208  20.745  0.00  0.00    +0.000 NA
ATOM      3  N   UNL     1       1.402   5.340  20.858  0.00  0.00    +0.000 NA
ATOM      4  C   UNL     1       2.140   6.319  20.232  0.00  0.00    +0.000 A 
ATOM      5  N   UNL     1       3.294   5.842  19.727  0.00  0.00    +0.000 NA
ENDROOT
BRANCH   4   6
ATOM      6  C   UNL     1       1.749   7.727  20.223  0.00  0.00    +0.000 A 
ATOM      7  C   UNL     1       1.719   8.466  19.035  0.00  0.00    +0.000 A 
ATOM      8  C   UNL     1       1.233   9.785  19.023  0.00  0.00    +0.000 A 
ATOM      9  C   UNL     1       0.748  10.407  20.184  0.00  0.00    +0.000 A 
ATOM     10  C   UNL     1       0.849   9.678  21.375  0.00  0.00    +0.000 A 
ATOM     11  C   UNL     1       1.343   8.364  21.398  0.00  0.00    +0.000 A 
BRANCH   9  12
ATOM     12  N   UNL     1       0.107  11.634  20.102  0.00  0.00    +0.000 N 
ATOM     13  C   UNL     1       0.820  12.878  20.445  0.00  0.00    +0.000 C 
ATOM     14  C   UNL     1      -0.204  13.947  20.867  0.00  0.00    +0.000 C 
ATOM     15  O   UNL     1      -1.200  14.164  19.851  0.00  0.00    +0.000 OA
ATOM     16  C   UNL     1      -1.898  12.938  19.571  0.00  0.00    +0.000 C 
ATOM     17  C   UNL     1      -0.936  11.840  19.080  0.00  0.00    +0.000 C 
ENDBRANCH   9  12
ENDBRANCH   4   6
BRANCH   1  18
ATOM     18  C   UNL     1       4.290   3.616  19.913  0.00  0.00    +0.000 C 
BRANCH  18  20
ATOM     19  O   UNL     1       6.350   4.835  20.160  0.00  0.00    +0.000 OA
ATOM     20  C   UNL     1       5.542   4.297  19.401  0.00  0.00    +0.000 C 
ATOM     21  N   UNL     1       5.741   4.297  18.021  0.00  0.00    +0.000 N 
ATOM     22  C   UNL     1       4.866   3.651  17.029  0.00  0.00    +0.000 C 
ATOM     23  C   UNL     1       4.723   4.492  15.743  0.00  0.00    +0.000 C 
ATOM     24  N   UNL     1       6.053   4.828  15.215  0.00  0.00    +0.000 N 
ATOM     25  C   UNL     1       6.931   5.523  16.174  0.00  0.00    +0.000 C 
ATOM     26  C   UNL     1       7.050   4.720  17.485  0.00  0.00    +0.000 C 
BRANCH  24  27
ATOM     27  C   UNL     1       6.431   4.514  13.924  0.00  0.00    +0.000 A 
ATOM     28  C   UNL     1       7.442   5.225  13.254  0.00  0.00    +0.000 A 
ATOM     29  C   UNL     1       7.799   4.948  11.928  0.00  0.00    +0.000 A 
ATOM     30  C   UNL     1       7.155   3.934  11.233  0.00  0.00    +0.000 A 
ATOM     31  C   UNL     1       6.167   3.196  11.871  0.00  0.00    +0.000 A 
ATOM     32  C   UNL     1       5.816   3.483  13.198  0.00  0.00    +0.000 A 
ENDBRANCH  24  27
ENDBRANCH  18  20
ENDBRANCH   1  18
TORSDOF 5
ENDMDL
MODEL 7
REMARK VINA RESULT:      -7.7      4.137     12.268
REMARK  Name = 
REMARK  5 active torsions:
REMARK  status: ('A' for Active; 'I' for Inactive)
REMARK    1  A    between atoms: C_2  and  C_3
REMARK    2  A    between atoms: C_3  and  N_4
REMARK    3  A    between atoms: C_7  and  C_8
REMARK    4  A    between atoms: C_11  and  N_12
REMARK    5  A    between atoms: N_24  and  C_25
REMARK                            x       y       z     vdW  Elec       q    Type
REMARK                         _______ _______ _______ _____ _____    ______ ____
ROOT
ATOM      1  N   UNL     1       0.054   9.832  21.133  0.00  0.00    +0.000 N 
ATOM      2  N   UNL     1      -0.442  10.213  19.941  0.00  0.00    +0.000 NA
ATOM      3  N   UNL     1       0.230   9.500  19.050  0.00  0.00    +0.000 NA
ATOM      4  C   UNL     1       1.153   8.749  19.743  0.00  0.00    +0.000 A 
ATOM      5  N   UNL     1       1.100   8.977  21.069  0.00  0.00    +0.000 NA
ENDROOT
BRANCH   4   6
ATOM      6  C   UNL     1       2.138   7.894  19.085  0.00  0.00    +0.000 A 
ATOM      7  C   UNL     1       2.762   8.285  17.896  0.00  0.00    +0.000 A 
ATOM      8  C   UNL     1       3.789   7.506  17.335  0.00  0.00    +0.000 A 
ATOM      9  C   UNL     1       4.239   6.324  17.942  0.00  0.00    +0.000 A 
ATOM     10  C   UNL     1       3.557   5.912  19.094  0.00  0.00    +0.000 A 
ATOM     11  C   UNL     1       2.524   6.678  19.655  0.00  0.00    +0.000 A 
BRANCH   9  12
ATOM     12  N   UNL     1       5.372   5.682  17.466  0.00  0.00    +0.000 N 
ATOM     13  C   UNL     1       5.503   5.352  16.036  0.00  0.00    +0.000 C 
ATOM     14  C   UNL     1       6.471   4.165  15.878  0.00  0.00    +0.000 C 
ATOM     15  O   UNL     1       7.748   4.432  16.484  0.00  0.00    +0.000 OA
ATOM     16  C   UNL     1       7.583   4.713  17.885  0.00  0.00    +0.000 C 
ATOM     17  C   UNL     1       6.673   5.934  18.113  0.00  0.00    +0.000 C 
ENDBRANCH   9  12
ENDBRANCH   4   6
BRANCH   1  18
ATOM     18  C   UNL     1      -0.230  10.591  22.337  0.00  0.00    +0.000 C 
BRANCH  18  20
ATOM     19  O   UNL     1       0.749  12.682  21.661  0.00  0.00    +0.000 OA
ATOM     20  C   UNL     1      -0.238  12.085  22.094  0.00  0.00    +0.000 C 
ATOM     21  N   UNL     1      -1.418  12.767  22.390  0.00  0.00    +0.000 N 
ATOM     22  C   UNL     1      -2.666  12.149  22.870  0.00  0.00    +0.000 C 
ATOM     23  C   UNL     1      -3.377  13.022  23.927  0.00  0.00    +0.000 C 
ATOM     24  N   UNL     1      -3.563  14.385  23.407  0.00  0.00    +0.000 N 
ATOM     25  C   UNL     1      -2.319  15.043  22.967  0.00  0.00    +0.000 C 
ATOM     26  C   UNL     1      -1.570  14.165  21.944  0.00  0.00    +0.000 C 
BRANCH  24  27
ATOM     27  C   UNL     1      -4.806  14.983  23.346  0.00  0.00    +0.000 A 
ATOM     28  C   UNL     1      -5.875  14.401  22.644  0.00  0.00    +0.000 A 
ATOM     29  C   UNL     1      -7.126  15.022  22.534  0.00  0.00    +0.000 A 
ATOM     30  C   UNL     1      -7.347  16.251  23.140  0.00  0.00    +0.000 A 
ATOM     31  C   UNL     1      -6.320  16.845  23.862  0.00  0.00    +0.000 A 
ATOM     32  C   UNL     1      -5.071  16.215  23.964  0.00  0.00    +0.000 A 
ENDBRANCH  24  27
ENDBRANCH  18  20
ENDBRANCH   1  18
TORSDOF 5
ENDMDL
MODEL 8
REMARK VINA RESULT:      -7.7      4.183     11.786
REMARK  Name = 
REMARK  5 active torsions:
REMARK  status: ('A' for Active; 'I' for Inactive)
REMARK    1  A    between atoms: C_2  and  C_3
REMARK    2  A    between atoms: C_3  and  N_4
REMARK    3  A    between atoms: C_7  and  C_8
REMARK    4  A    between atoms: C_11  and  N_12
REMARK    5  A    between atoms: N_24  and  C_25
REMARK                            x       y       z     vdW  Elec       q    Type
REMARK                         _______ _______ _______ _____ _____    ______ ____
ROOT
ATOM      1  N   UNL     1      -0.709  11.400  22.003  0.00  0.00    +0.000 N 
ATOM      2  N   UNL     1       0.365  12.188  21.810  0.00  0.00    +0.000 NA
ATOM      3  N   UNL     1       1.154  11.495  21.002  0.00  0.00    +0.000 NA
ATOM      4  C   UNL     1       0.544  10.281  20.782  0.00  0.00    +0.000 A 
ATOM      5  N   UNL     1      -0.622  10.170  21.447  0.00  0.00    +0.000 NA
ENDROOT
BRANCH   4   6
ATOM      6  C   UNL     1       1.160   9.211  20.001  0.00  0.00    +0.000 A 
ATOM      7  C   UNL     1       1.433   9.370  18.638  0.00  0.00    +0.000 A 
ATOM      8  C   UNL     1       2.128   8.377  17.925  0.00  0.00    +0.000 A 
ATOM      9  C   UNL     1       2.586   7.204  18.544  0.00  0.00    +0.000 A 
ATOM     10  C   UNL     1       2.245   7.031  19.891  0.00  0.00    +0.000 A 
ATOM     11  C   UNL     1       1.542   8.011  20.607  0.00  0.00    +0.000 A 
BRANCH   9  12
ATOM     12  N   UNL     1       3.426   6.336  17.861  0.00  0.00    +0.000 N 
ATOM     13  C   UNL     1       4.686   6.820  17.271  0.00  0.00    +0.000 C 
ATOM     14  C   UNL     1       5.088   5.894  16.109  0.00  0.00    +0.000 C 
ATOM     15  O   UNL     1       5.186   4.522  16.527  0.00  0.00    +0.000 OA
ATOM     16  C   UNL     1       3.927   4.075  17.062  0.00  0.00    +0.000 C 
ATOM     17  C   UNL     1       3.497   4.922  18.274  0.00  0.00    +0.000 C 
ENDBRANCH   9  12
ENDBRANCH   4   6
BRANCH   1  18
ATOM     18  C   UNL     1      -1.669  11.689  23.052  0.00  0.00    +0.000 C 
BRANCH  18  20
ATOM     19  O   UNL     1      -1.744  13.978  23.790  0.00  0.00    +0.000 OA
ATOM     20  C   UNL     1      -2.161  13.120  23.010  0.00  0.00    +0.000 C 
ATOM     21  N   UNL     1      -3.123  13.429  22.049  0.00  0.00    +0.000 N 
ATOM     22  C   UNL     1      -3.659  12.496  21.044  0.00  0.00    +0.000 C 
ATOM     23  C   UNL     1      -5.170  12.705  20.804  0.00  0.00    +0.000 C 
ATOM     24  N   UNL     1      -5.437  14.117  20.491  0.00  0.00    +0.000 N 
ATOM     25  C   UNL     1      -4.953  15.068  21.508  0.00  0.00    +0.000 C 
ATOM     26  C   UNL     1      -3.455  14.845  21.796  0.00  0.00    +0.000 C 
BRANCH  24  27
ATOM     27  C   UNL     1      -6.089  14.501  19.336  0.00  0.00    +0.000 A 
ATOM     28  C   UNL     1      -6.455  15.838  19.101  0.00  0.00    +0.000 A 
ATOM     29  C   UNL     1      -7.160  16.231  17.956  0.00  0.00    +0.000 A 
ATOM     30  C   UNL     1      -7.513  15.289  17.000  0.00  0.00    +0.000 A 
ATOM     31  C   UNL     1      -7.149  13.962  17.188  0.00  0.00    +0.000 A 
ATOM     32  C   UNL     1      -6.444  13.579  18.339  0.00  0.00    +0.000 A 
ENDBRANCH  24  27
ENDBRANCH  18  20
ENDBRANCH   1  18
TORSDOF 5
ENDMDL
MODEL 9
REMARK VINA RESULT:      -7.6      6.373      8.116
REMARK  Name = 
REMARK  5 active torsions:
REMARK  status: ('A' for Active; 'I' for Inactive)
REMARK    1  A    between atoms: C_2  and  C_3
REMARK    2  A    between atoms: C_3  and  N_4
REMARK    3  A    between atoms: C_7  and  C_8
REMARK    4  A    between atoms: C_11  and  N_12
REMARK    5  A    between atoms: N_24  and  C_25
REMARK                            x       y       z     vdW  Elec       q    Type
REMARK                         _______ _______ _______ _____ _____    ______ ____
ROOT
ATOM      1  N   UNL     1       8.366   8.247  18.240  0.00  0.00    +0.000 N 
ATOM      2  N   UNL     1       7.473   8.968  17.538  0.00  0.00    +0.000 NA
ATOM      3  N   UNL     1       7.836  10.229  17.718  0.00  0.00    +0.000 NA
ATOM      4  C   UNL     1       8.912  10.222  18.577  0.00  0.00    +0.000 A 
ATOM      5  N   UNL     1       9.243   8.977  18.968  0.00  0.00    +0.000 NA
ENDROOT
BRANCH   4   6
ATOM      6  C   UNL     1       9.538  11.444  19.077  0.00  0.00    +0.000 A 
ATOM      7  C   UNL     1       9.852  12.504  18.220  0.00  0.00    +0.000 A 
ATOM      8  C   UNL     1      10.349  13.716  18.731  0.00  0.00    +0.000 A 
ATOM      9  C   UNL     1      10.536  13.920  20.107  0.00  0.00    +0.000 A 
ATOM     10  C   UNL     1      10.281  12.826  20.943  0.00  0.00    +0.000 A 
ATOM     11  C   UNL     1       9.796  11.609  20.441  0.00  0.00    +0.000 A 
BRANCH   9  12
ATOM     12  N   UNL     1      10.848  15.182  20.589  0.00  0.00    +0.000 N 
ATOM     13  C   UNL     1      11.059  16.309  19.664  0.00  0.00    +0.000 C 
ATOM     14  C   UNL     1      11.955  17.360  20.343  0.00  0.00    +0.000 C 
ATOM     15  O   UNL     1      11.410  17.796  21.600  0.00  0.00    +0.000 OA
ATOM     16  C   UNL     1      11.253  16.675  22.489  0.00  0.00    +0.000 C 
ATOM     17  C   UNL     1      10.312  15.612  21.895  0.00  0.00    +0.000 C 
ENDBRANCH   9  12
ENDBRANCH   4   6
BRANCH   1  18
ATOM     18  C   UNL     1       8.139   6.841  18.519  0.00  0.00    +0.000 C 
BRANCH  18  20
ATOM     19  O   UNL     1       7.587   6.135  16.286  0.00  0.00    +0.000 OA
ATOM     20  C   UNL     1       7.267   6.176  17.475  0.00  0.00    +0.000 C 
ATOM     21  N   UNL     1       6.070   5.613  17.917  0.00  0.00    +0.000 N 
ATOM     22  C   UNL     1       5.611   5.568  19.315  0.00  0.00    +0.000 C 
ATOM     23  C   UNL     1       4.088   5.795  19.435  0.00  0.00    +0.000 C 
ATOM     24  N   UNL     1       3.373   4.858  18.555  0.00  0.00    +0.000 N 
ATOM     25  C   UNL     1       3.781   4.921  17.140  0.00  0.00    +0.000 C 
ATOM     26  C   UNL     1       5.306   4.743  17.003  0.00  0.00    +0.000 C 
BRANCH  24  27
ATOM     27  C   UNL     1       2.401   4.001  19.032  0.00  0.00    +0.000 A 
ATOM     28  C   UNL     1       2.210   3.790  20.409  0.00  0.00    +0.000 A 
ATOM     29  C   UNL     1       1.261   2.886  20.904  0.00  0.00    +0.000 A 
ATOM     30  C   UNL     1       0.461   2.169  20.025  0.00  0.00    +0.000 A 
ATOM     31  C   UNL     1       0.606   2.369  18.658  0.00  0.00    +0.000 A 
ATOM     32  C   UNL     1       1.561   3.275  18.174  0.00  0.00    +0.000 A 
ENDBRANCH  24  27
ENDBRANCH  18  20
ENDBRANCH   1  18
TORSDOF 5
ENDMDL
