MODEL 1
REMARK VINA RESULT:      -7.0      0.000      0.000
REMARK  Name = 
REMARK  3 active torsions:
REMARK  status: ('A' for Active; 'I' for Inactive)
REMARK    1  A    between atoms: C_2  and  C_16
REMARK    2  A    between atoms: N_3  and  C_4
REMARK    3  A    between atoms: C_9  and  N_10
REMARK                            x       y       z     vdW  Elec       q    Type
REMARK                         _______ _______ _______ _____ _____    ______ ____
ROOT
ATOM      1  C   UNL     1       6.368   4.373  17.155  0.00  0.00    +0.000 A 
ATOM      2  C   UNL     1       7.551   5.092  17.362  0.00  0.00    +0.000 A 
ATOM      3  C   UNL     1       7.808   5.706  18.586  0.00  0.00    +0.000 A 
ATOM      4  C   UNL     1       6.862   5.604  19.584  0.00  0.00    +0.000 A 
ATOM      5  N   UNL     1       5.700   4.936  19.440  0.00  0.00    +0.000 NA
ATOM      6  C   UNL     1       5.464   4.324  18.237  0.00  0.00    +0.000 A 
ENDROOT
BRANCH   6   7
ATOM      7  N   UNL     1       4.244   3.574  18.156  0.00  0.00    +0.000 N 
ATOM      8  C   UNL     1       3.022   3.965  18.670  0.00  0.00    +0.000 A 
ATOM      9  C   UNL     1       2.152   2.927  18.470  0.00  0.00    +0.000 A 
ATOM     10 CL   UNL     1       0.532   2.812  18.935  0.00  0.00    +0.000 Cl
ATOM     11  C   UNL     1       2.899   1.954  17.794  0.00  0.00    +0.000 A 
ATOM     12  N   UNL     1       4.160   2.336  17.569  0.00  0.00    +0.000 NA
ENDBRANCH   6   7
BRANCH   1  15
ATOM     13  O   UNL     1       6.961   5.219  14.362  0.00  0.00    +0.000 OA
ATOM     14  C   UNL     1       6.375   4.183  14.649  0.00  0.00    +0.000 C 
ATOM     15  N   UNL     1       6.092   3.732  15.919  0.00  0.00    +0.000 N 
ATOM     16  H   UNL     1       5.731   2.781  16.006  0.00  0.00    +0.000 HD
BRANCH  14  17
ATOM     17  C   UNL     1       5.948   3.300  13.520  0.00  0.00    +0.000 C 
ATOM     18  C   UNL     1       4.984   3.788  12.465  0.00  0.00    +0.000 C 
ATOM     19  C   UNL     1       6.399   3.450  12.089  0.00  0.00    +0.000 C 
ENDBRANCH  14  17
ENDBRANCH   1  15
TORSDOF 3
ENDMDL
MODEL 2
REMARK VINA RESULT:      -7.0      3.174      5.832
REMARK  Name = 
REMARK  3 active torsions:
REMARK  status: ('A' for Active; 'I' for Inactive)
REMARK    1  A    between atoms: C_2  and  C_16
REMARK    2  A    between atoms: N_3  and  C_4
REMARK    3  A    between atoms: C_9  and  N_10
REMARK                            x       y       z     vdW  Elec       q    Type
REMARK                         _______ _______ _______ _____ _____    ______ ____
ROOT
ATOM      1  C   UNL     1       5.963   4.209  16.233  0.00  0.00    +0.000 A 
ATOM      2  C   UNL     1       5.605   3.450  15.114  0.00  0.00    +0.000 A 
ATOM      3  C   UNL     1       6.142   3.731  13.859  0.00  0.00    +0.000 A 
ATOM      4  C   UNL     1       7.022   4.787  13.742  0.00  0.00    +0.000 A 
ATOM      5  N   UNL     1       7.395   5.560  14.782  0.00  0.00    +0.000 NA
ATOM      6  C   UNL     1       6.871   5.266  16.013  0.00  0.00    +0.000 A 
ENDROOT
BRANCH   6   7
ATOM      7  N   UNL     1       7.348   6.078  17.096  0.00  0.00    +0.000 N 
ATOM      8  C   UNL     1       7.562   7.442  17.046  0.00  0.00    +0.000 A 
ATOM      9  C   UNL     1       8.111   7.805  18.246  0.00  0.00    +0.000 A 
ATOM     10 CL   UNL     1       8.629   9.335  18.742  0.00  0.00    +0.000 Cl
ATOM     11  C   UNL     1       8.165   6.622  18.993  0.00  0.00    +0.000 A 
ATOM     12  N   UNL     1       7.682   5.569  18.326  0.00  0.00    +0.000 NA
ENDBRANCH   6   7
BRANCH   1  15
ATOM     13  O   UNL     1       3.347   4.946  17.450  0.00  0.00    +0.000 OA
ATOM     14  C   UNL     1       4.217   4.318  18.039  0.00  0.00    +0.000 C 
ATOM     15  N   UNL     1       5.435   3.933  17.522  0.00  0.00    +0.000 N 
ATOM     16  H   UNL     1       5.995   3.288  18.080  0.00  0.00    +0.000 HD
BRANCH  14  17
ATOM     17  C   UNL     1       3.930   3.898  19.444  0.00  0.00    +0.000 C 
ATOM     18  C   UNL     1       2.780   2.974  19.767  0.00  0.00    +0.000 C 
ATOM     19  C   UNL     1       4.193   2.523  20.006  0.00  0.00    +0.000 C 
ENDBRANCH  14  17
ENDBRANCH   1  15
TORSDOF 3
ENDMDL
MODEL 3
REMARK VINA RESULT:      -6.9      3.510      5.689
REMARK  Name = 
REMARK  3 active torsions:
REMARK  status: ('A' for Active; 'I' for Inactive)
REMARK    1  A    between atoms: C_2  and  C_16
REMARK    2  A    between atoms: N_3  and  C_4
REMARK    3  A    between atoms: C_9  and  N_10
REMARK                            x       y       z     vdW  Elec       q    Type
REMARK                         _______ _______ _______ _____ _____    ______ ____
ROOT
ATOM      1  C   UNL     1       3.852   4.563  17.524  0.00  0.00    +0.000 A 
ATOM      2  C   UNL     1       4.751   3.858  16.717  0.00  0.00    +0.000 A 
ATOM      3  C   UNL     1       5.649   4.532  15.892  0.00  0.00    +0.000 A 
ATOM      4  C   UNL     1       5.619   5.910  15.876  0.00  0.00    +0.000 A 
ATOM      5  N   UNL     1       4.769   6.643  16.622  0.00  0.00    +0.000 NA
ATOM      6  C   UNL     1       3.900   5.970  17.440  0.00  0.00    +0.000 A 
ENDROOT
BRANCH   6   7
ATOM      7  N   UNL     1       3.060   6.796  18.259  0.00  0.00    +0.000 N 
ATOM      8  C   UNL     1       2.439   7.963  17.857  0.00  0.00    +0.000 A 
ATOM      9  C   UNL     1       1.823   8.490  18.960  0.00  0.00    +0.000 A 
ATOM     10 CL   UNL     1       0.953   9.933  19.087  0.00  0.00    +0.000 Cl
ATOM     11  C   UNL     1       2.075   7.573  19.988  0.00  0.00    +0.000 A 
ATOM     12  N   UNL     1       2.798   6.525  19.579  0.00  0.00    +0.000 NA
ENDBRANCH   6   7
BRANCH   1  15
ATOM     13  O   UNL     1       4.334   2.703  19.800  0.00  0.00    +0.000 OA
ATOM     14  C   UNL     1       3.219   3.026  19.411  0.00  0.00    +0.000 C 
ATOM     15  N   UNL     1       2.936   3.895  18.380  0.00  0.00    +0.000 N 
ATOM     16  H   UNL     1       1.963   4.182  18.266  0.00  0.00    +0.000 HD
BRANCH  14  17
ATOM     17  C   UNL     1       2.045   2.452  20.136  0.00  0.00    +0.000 C 
ATOM     18  C   UNL     1       1.740   2.838  21.563  0.00  0.00    +0.000 C 
ATOM     19  C   UNL     1       0.781   3.205  20.467  0.00  0.00    +0.000 C 
ENDBRANCH  14  17
ENDBRANCH   1  15
TORSDOF 3
ENDMDL
MODEL 4
REMARK VINA RESULT:      -6.9      2.611      4.202
REMARK  Name = 
REMARK  3 active torsions:
REMARK  status: ('A' for Active; 'I' for Inactive)
REMARK    1  A    between atoms: C_2  and  C_16
REMARK    2  A    between atoms: N_3  and  C_4
REMARK    3  A    between atoms: C_9  and  N_10
REMARK                            x       y       z     vdW  Elec       q    Type
REMARK                         _______ _______ _______ _____ _____    ______ ____
ROOT
ATOM      1  C   UNL     1       4.044   3.951  17.151  0.00  0.00    +0.000 A 
ATOM      2  C   UNL     1       2.745   3.432  17.119  0.00  0.00    +0.000 A 
ATOM      3  C   UNL     1       1.827   3.743  18.120  0.00  0.00    +0.000 A 
ATOM      4  C   UNL     1       2.234   4.560  19.154  0.00  0.00    +0.000 A 
ATOM      5  N   UNL     1       3.474   5.080  19.246  0.00  0.00    +0.000 NA
ATOM      6  C   UNL     1       4.364   4.778  18.248  0.00  0.00    +0.000 A 
ENDROOT
BRANCH   6   7
ATOM      7  N   UNL     1       5.650   5.406  18.359  0.00  0.00    +0.000 N 
ATOM      8  C   UNL     1       5.947   6.703  17.987  0.00  0.00    +0.000 A 
ATOM      9  C   UNL     1       7.295   6.870  18.158  0.00  0.00    +0.000 A 
ATOM     10 CL   UNL     1       8.235   8.233  17.820  0.00  0.00    +0.000 Cl
ATOM     11  C   UNL     1       7.749   5.650  18.675  0.00  0.00    +0.000 A 
ATOM     12  N   UNL     1       6.764   4.759  18.831  0.00  0.00    +0.000 NA
ENDBRANCH   6   7
BRANCH   1  15
ATOM     13  O   UNL     1       5.126   5.652  14.960  0.00  0.00    +0.000 OA
ATOM     14  C   UNL     1       5.442   4.482  15.131  0.00  0.00    +0.000 C 
ATOM     15  N   UNL     1       4.991   3.655  16.136  0.00  0.00    +0.000 N 
ATOM     16  H   UNL     1       5.455   2.751  16.239  0.00  0.00    +0.000 HD
BRANCH  14  17
ATOM     17  C   UNL     1       6.435   3.893  14.182  0.00  0.00    +0.000 C 
ATOM     18  C   UNL     1       6.044   3.512  12.774  0.00  0.00    +0.000 C 
ATOM     19  C   UNL     1       7.036   4.615  13.002  0.00  0.00    +0.000 C 
ENDBRANCH  14  17
ENDBRANCH   1  15
TORSDOF 3
ENDMDL
MODEL 5
REMARK VINA RESULT:      -6.9      3.897      6.052
REMARK  Name = 
REMARK  3 active torsions:
REMARK  status: ('A' for Active; 'I' for Inactive)
REMARK    1  A    between atoms: C_2  and  C_16
REMARK    2  A    between atoms: N_3  and  C_4
REMARK    3  A    between atoms: C_9  and  N_10
REMARK                            x       y       z     vdW  Elec       q    Type
REMARK                         _______ _______ _______ _____ _____    ______ ____
ROOT
ATOM      1  C   UNL     1       2.282   4.808  19.370  0.00  0.00    +0.000 A 
ATOM      2  C   UNL     1       1.179   4.340  20.092  0.00  0.00    +0.000 A 
ATOM      3  C   UNL     1       1.282   3.209  20.899  0.00  0.00    +0.000 A 
ATOM      4  C   UNL     1       2.491   2.549  20.956  0.00  0.00    +0.000 A 
ATOM      5  N   UNL     1       3.585   2.945  20.274  0.00  0.00    +0.000 NA
ATOM      6  C   UNL     1       3.476   4.067  19.495  0.00  0.00    +0.000 A 
ENDROOT
BRANCH   6   7
ATOM      7  N   UNL     1       4.684   4.482  18.840  0.00  0.00    +0.000 N 
ATOM      8  C   UNL     1       5.665   5.283  19.392  0.00  0.00    +0.000 A 
ATOM      9  C   UNL     1       6.587   5.522  18.409  0.00  0.00    +0.000 A 
ATOM     10 CL   UNL     1       7.978   6.478  18.486  0.00  0.00    +0.000 Cl
ATOM     11  C   UNL     1       6.127   4.804  17.298  0.00  0.00    +0.000 A 
ATOM     12  N   UNL     1       4.991   4.144  17.545  0.00  0.00    +0.000 NA
ENDBRANCH   6   7
BRANCH   1  15
ATOM     13  O   UNL     1       2.239   7.695  20.098  0.00  0.00    +0.000 OA
ATOM     14  C   UNL     1       2.166   7.283  18.947  0.00  0.00    +0.000 C 
ATOM     15  N   UNL     1       2.201   5.964  18.550  0.00  0.00    +0.000 N 
ATOM     16  H   UNL     1       2.279   5.781  17.549  0.00  0.00    +0.000 HD
BRANCH  14  17
ATOM     17  C   UNL     1       2.059   8.301  17.858  0.00  0.00    +0.000 C 
ATOM     18  C   UNL     1       0.843   9.187  17.730  0.00  0.00    +0.000 C 
ATOM     19  C   UNL     1       2.179   9.792  18.054  0.00  0.00    +0.000 C 
ENDBRANCH  14  17
ENDBRANCH   1  15
TORSDOF 3
ENDMDL
MODEL 6
REMARK VINA RESULT:      -6.9      3.217      5.874
REMARK  Name = 
REMARK  3 active torsions:
REMARK  status: ('A' for Active; 'I' for Inactive)
REMARK    1  A    between atoms: C_2  and  C_16
REMARK    2  A    between atoms: N_3  and  C_4
REMARK    3  A    between atoms: C_9  and  N_10
REMARK                            x       y       z     vdW  Elec       q    Type
REMARK                         _______ _______ _______ _____ _____    ______ ____
ROOT
ATOM      1  C   UNL     1       5.558   4.729  16.146  0.00  0.00    +0.000 A 
ATOM      2  C   UNL     1       5.157   3.988  15.028  0.00  0.00    +0.000 A 
ATOM      3  C   UNL     1       5.935   3.963  13.872  0.00  0.00    +0.000 A 
ATOM      4  C   UNL     1       7.100   4.700  13.847  0.00  0.00    +0.000 A 
ATOM      5  N   UNL     1       7.531   5.442  14.888  0.00  0.00    +0.000 NA
ATOM      6  C   UNL     1       6.766   5.447  16.024  0.00  0.00    +0.000 A 
ENDROOT
BRANCH   6   7
ATOM      7  N   UNL     1       7.300   6.200  17.123  0.00  0.00    +0.000 N 
ATOM      8  C   UNL     1       7.590   7.551  17.108  0.00  0.00    +0.000 A 
ATOM      9  C   UNL     1       8.172   7.849  18.311  0.00  0.00    +0.000 A 
ATOM     10 CL   UNL     1       8.781   9.333  18.842  0.00  0.00    +0.000 Cl
ATOM     11  C   UNL     1       8.168   6.644  19.024  0.00  0.00    +0.000 A 
ATOM     12  N   UNL     1       7.619   5.639  18.334  0.00  0.00    +0.000 NA
ENDBRANCH   6   7
BRANCH   1  15
ATOM     13  O   UNL     1       3.872   6.894  17.304  0.00  0.00    +0.000 OA
ATOM     14  C   UNL     1       4.036   5.802  17.834  0.00  0.00    +0.000 C 
ATOM     15  N   UNL     1       4.786   4.759  17.336  0.00  0.00    +0.000 N 
ATOM     16  H   UNL     1       4.709   3.861  17.816  0.00  0.00    +0.000 HD
BRANCH  14  17
ATOM     17  C   UNL     1       3.336   5.557  19.131  0.00  0.00    +0.000 C 
ATOM     18  C   UNL     1       2.015   4.827  19.184  0.00  0.00    +0.000 C 
ATOM     19  C   UNL     1       3.233   4.218  19.818  0.00  0.00    +0.000 C 
ENDBRANCH  14  17
ENDBRANCH   1  15
TORSDOF 3
ENDMDL
MODEL 7
REMARK VINA RESULT:      -6.8      3.125      5.765
REMARK  Name = 
REMARK  3 active torsions:
REMARK  status: ('A' for Active; 'I' for Inactive)
REMARK    1  A    between atoms: C_2  and  C_16
REMARK    2  A    between atoms: N_3  and  C_4
REMARK    3  A    between atoms: C_9  and  N_10
REMARK                            x       y       z     vdW  Elec       q    Type
REMARK                         _______ _______ _______ _____ _____    ______ ____
ROOT
ATOM      1  C   UNL     1       5.431   4.801  15.680  0.00  0.00    +0.000 A 
ATOM      2  C   UNL     1       5.092   4.110  14.512  0.00  0.00    +0.000 A 
ATOM      3  C   UNL     1       6.005   3.987  13.466  0.00  0.00    +0.000 A 
ATOM      4  C   UNL     1       7.245   4.576  13.602  0.00  0.00    +0.000 A 
ATOM      5  N   UNL     1       7.624   5.263  14.698  0.00  0.00    +0.000 NA
ATOM      6  C   UNL     1       6.723   5.366  15.725  0.00  0.00    +0.000 A 
ENDROOT
BRANCH   6   7
ATOM      7  N   UNL     1       7.196   6.053  16.893  0.00  0.00    +0.000 N 
ATOM      8  C   UNL     1       7.559   7.385  16.953  0.00  0.00    +0.000 A 
ATOM      9  C   UNL     1       8.047   7.611  18.212  0.00  0.00    +0.000 A 
ATOM     10 CL   UNL     1       8.685   9.040  18.849  0.00  0.00    +0.000 Cl
ATOM     11  C   UNL     1       7.915   6.385  18.877  0.00  0.00    +0.000 A 
ATOM     12  N   UNL     1       7.376   5.436  18.106  0.00  0.00    +0.000 NA
ENDBRANCH   6   7
BRANCH   1  15
ATOM     13  O   UNL     1       4.230   2.733  17.455  0.00  0.00    +0.000 OA
ATOM     14  C   UNL     1       3.981   3.929  17.539  0.00  0.00    +0.000 C 
ATOM     15  N   UNL     1       4.520   4.930  16.761  0.00  0.00    +0.000 N 
ATOM     16  H   UNL     1       4.330   5.892  17.044  0.00  0.00    +0.000 HD
BRANCH  14  17
ATOM     17  C   UNL     1       3.024   4.358  18.604  0.00  0.00    +0.000 C 
ATOM     18  C   UNL     1       1.541   4.451  18.334  0.00  0.00    +0.000 C 
ATOM     19  C   UNL     1       2.061   3.443  19.319  0.00  0.00    +0.000 C 
ENDBRANCH  14  17
ENDBRANCH   1  15
TORSDOF 3
ENDMDL
MODEL 8
REMARK VINA RESULT:      -6.8      3.723      6.063
REMARK  Name = 
REMARK  3 active torsions:
REMARK  status: ('A' for Active; 'I' for Inactive)
REMARK    1  A    between atoms: C_2  and  C_16
REMARK    2  A    between atoms: N_3  and  C_4
REMARK    3  A    between atoms: C_9  and  N_10
REMARK                            x       y       z     vdW  Elec       q    Type
REMARK                         _______ _______ _______ _____ _____    ______ ____
ROOT
ATOM      1  C   UNL     1       2.540   4.714  17.967  0.00  0.00    +0.000 A 
ATOM      2  C   UNL     1       1.413   3.930  18.236  0.00  0.00    +0.000 A 
ATOM      3  C   UNL     1       1.535   2.563  18.477  0.00  0.00    +0.000 A 
ATOM      4  C   UNL     1       2.792   1.997  18.428  0.00  0.00    +0.000 A 
ATOM      5  N   UNL     1       3.912   2.699  18.163  0.00  0.00    +0.000 NA
ATOM      6  C   UNL     1       3.781   4.044  17.940  0.00  0.00    +0.000 A 
ENDROOT
BRANCH   6   7
ATOM      7  N   UNL     1       5.008   4.756  17.725  0.00  0.00    +0.000 N 
ATOM      8  C   UNL     1       5.870   5.192  18.713  0.00  0.00    +0.000 A 
ATOM      9  C   UNL     1       6.858   5.910  18.095  0.00  0.00    +0.000 A 
ATOM     10 CL   UNL     1       8.159   6.726  18.799  0.00  0.00    +0.000 Cl
ATOM     11  C   UNL     1       6.558   5.837  16.728  0.00  0.00    +0.000 A 
ATOM     12  N   UNL     1       5.458   5.119  16.480  0.00  0.00    +0.000 NA
ENDBRANCH   6   7
BRANCH   1  15
ATOM     13  O   UNL     1       2.466   7.002  19.872  0.00  0.00    +0.000 OA
ATOM     14  C   UNL     1       2.389   7.127  18.656  0.00  0.00    +0.000 C 
ATOM     15  N   UNL     1       2.438   6.110  17.728  0.00  0.00    +0.000 N 
ATOM     16  H   UNL     1       2.510   6.379  16.746  0.00  0.00    +0.000 HD
BRANCH  14  17
ATOM     17  C   UNL     1       2.260   8.514  18.115  0.00  0.00    +0.000 C 
ATOM     18  C   UNL     1       0.927   9.055  17.655  0.00  0.00    +0.000 C 
ATOM     19  C   UNL     1       1.614   9.668  18.841  0.00  0.00    +0.000 C 
ENDBRANCH  14  17
ENDBRANCH   1  15
TORSDOF 3
ENDMDL
MODEL 9
REMARK VINA RESULT:      -6.8      3.642      5.758
REMARK  Name = 
REMARK  3 active torsions:
REMARK  status: ('A' for Active; 'I' for Inactive)
REMARK    1  A    between atoms: C_2  and  C_16
REMARK    2  A    between atoms: N_3  and  C_4
REMARK    3  A    between atoms: C_9  and  N_10
REMARK                            x       y       z     vdW  Elec       q    Type
REMARK                         _______ _______ _______ _____ _____    ______ ____
ROOT
ATOM      1  C   UNL     1       3.858   4.826  17.652  0.00  0.00    +0.000 A 
ATOM      2  C   UNL     1       4.777   4.078  16.909  0.00  0.00    +0.000 A 
ATOM      3  C   UNL     1       5.656   4.700  16.026  0.00  0.00    +0.000 A 
ATOM      4  C   UNL     1       5.589   6.071  15.887  0.00  0.00    +0.000 A 
ATOM      5  N   UNL     1       4.718   6.843  16.566  0.00  0.00    +0.000 NA
ATOM      6  C   UNL     1       3.867   6.221  17.442  0.00  0.00    +0.000 A 
ENDROOT
BRANCH   6   7
ATOM      7  N   UNL     1       3.003   7.093  18.186  0.00  0.00    +0.000 N 
ATOM      8  C   UNL     1       2.388   8.229  17.695  0.00  0.00    +0.000 A 
ATOM      9  C   UNL     1       1.743   8.822  18.747  0.00  0.00    +0.000 A 
ATOM     10 CL   UNL     1       0.864  10.265  18.760  0.00  0.00    +0.000 Cl
ATOM     11  C   UNL     1       1.973   7.974  19.838  0.00  0.00    +0.000 A 
ATOM     12  N   UNL     1       2.710   6.907  19.514  0.00  0.00    +0.000 NA
ENDBRANCH   6   7
BRANCH   1  15
ATOM     13  O   UNL     1       1.068   3.857  17.266  0.00  0.00    +0.000 OA
ATOM     14  C   UNL     1       1.667   3.800  18.333  0.00  0.00    +0.000 C 
ATOM     15  N   UNL     1       2.960   4.213  18.565  0.00  0.00    +0.000 N 
ATOM     16  H   UNL     1       3.373   3.966  19.465  0.00  0.00    +0.000 HD
BRANCH  14  17
ATOM     17  C   UNL     1       0.943   3.198  19.494  0.00  0.00    +0.000 C 
ATOM     18  C   UNL     1       1.631   2.235  20.432  0.00  0.00    +0.000 C 
ATOM     19  C   UNL     1       1.166   3.571  20.938  0.00  0.00    +0.000 C 
ENDBRANCH  14  17
ENDBRANCH   1  15
TORSDOF 3
ENDMDL
