MODEL 1
REMARK VINA RESULT:      -7.0      0.000      0.000
REMARK  Name = 
REMARK  8 active torsions:
REMARK  status: ('A' for Active; 'I' for Inactive)
REMARK    1  A    between atoms: C_1  and  C_2
REMARK    2  A    between atoms: C_2  and  C_3
REMARK    3  A    between atoms: C_5  and  C_6
REMARK    4  A    between atoms: C_6  and  C_7
REMARK    5  A    between atoms: C_7  and  C_8
REMARK    6  A    between atoms: N_14  and  O_15
REMARK    7  A    between atoms: C_16  and  O_17
REMARK    8  A    between atoms: C_19  and  O_20
REMARK                            x       y       z     vdW  Elec       q    Type
REMARK                         _______ _______ _______ _____ _____    ______ ____
ROOT
ATOM      1  C   UNL     1       6.216   5.037  16.163  0.00  0.00    +0.000 A 
ATOM      2  C   UNL     1       4.900   5.499  16.369  0.00  0.00    +0.000 A 
ATOM      3  C   UNL     1       4.305   5.555  17.647  0.00  0.00    +0.000 A 
ATOM      4  C   UNL     1       5.129   5.237  18.739  0.00  0.00    +0.000 A 
ATOM      5  C   UNL     1       6.478   4.892  18.556  0.00  0.00    +0.000 A 
ATOM      6  C   UNL     1       7.009   4.762  17.280  0.00  0.00    +0.000 A 
ENDROOT
BRANCH   1   8
ATOM      7  C   UNL     1       5.600   3.943  14.011  0.00  0.00    +0.000 C 
ATOM      8  C   UNL     1       6.685   4.713  14.762  0.00  0.00    +0.000 C 
ENDBRANCH   1   8
BRANCH   3   9
ATOM      9  C   UNL     1       2.846   5.959  17.763  0.00  0.00    +0.000 C 
ATOM     10  N   UNL     1       2.377   7.169  17.923  0.00  0.00    +0.000 NA
BRANCH  10  11
ATOM     11  O   UNL     1       3.329   8.182  17.844  0.00  0.00    +0.000 OA
ATOM     12  H   UNL     1       3.311   8.419  16.897  0.00  0.00    +0.000 HD
ENDBRANCH  10  11
BRANCH   9  13
ATOM     13  C   UNL     1       1.777   4.869  17.802  0.00  0.00    +0.000 C 
BRANCH  13  14
ATOM     14  C   UNL     1       1.847   3.971  19.022  0.00  0.00    +0.000 A 
ATOM     15  C   UNL     1       1.234   4.356  20.222  0.00  0.00    +0.000 A 
ATOM     16  C   UNL     1       1.491   3.630  21.383  0.00  0.00    +0.000 A 
ATOM     17  C   UNL     1       2.328   2.527  21.320  0.00  0.00    +0.000 A 
ATOM     18  C   UNL     1       2.850   2.174  20.085  0.00  0.00    +0.000 A 
ATOM     19  N   UNL     1       2.625   2.859  18.936  0.00  0.00    +0.000 NA
ENDBRANCH  13  14
ENDBRANCH   9  13
ENDBRANCH   3   9
BRANCH   4  20
ATOM     20  O   UNL     1       4.736   5.207  20.052  0.00  0.00    +0.000 OA
ATOM     21  H   UNL     1       4.647   4.286  20.385  0.00  0.00    +0.000 HD
ENDBRANCH   4  20
BRANCH   6  22
ATOM     22  O   UNL     1       8.293   4.354  17.089  0.00  0.00    +0.000 OA
ATOM     23  H   UNL     1       8.546   4.530  16.167  0.00  0.00    +0.000 HD
ENDBRANCH   6  22
TORSDOF 7
ENDMDL
MODEL 2
REMARK VINA RESULT:      -7.0      2.090      3.078
REMARK  Name = 
REMARK  8 active torsions:
REMARK  status: ('A' for Active; 'I' for Inactive)
REMARK    1  A    between atoms: C_1  and  C_2
REMARK    2  A    between atoms: C_2  and  C_3
REMARK    3  A    between atoms: C_5  and  C_6
REMARK    4  A    between atoms: C_6  and  C_7
REMARK    5  A    between atoms: C_7  and  C_8
REMARK    6  A    between atoms: N_14  and  O_15
REMARK    7  A    between atoms: C_16  and  O_17
REMARK    8  A    between atoms: C_19  and  O_20
REMARK                            x       y       z     vdW  Elec       q    Type
REMARK                         _______ _______ _______ _____ _____    ______ ____
ROOT
ATOM      1  C   UNL     1       5.577   4.773  15.657  0.00  0.00    +0.000 A 
ATOM      2  C   UNL     1       4.428   4.122  16.153  0.00  0.00    +0.000 A 
ATOM      3  C   UNL     1       4.341   3.634  17.474  0.00  0.00    +0.000 A 
ATOM      4  C   UNL     1       5.417   3.931  18.326  0.00  0.00    +0.000 A 
ATOM      5  C   UNL     1       6.514   4.685  17.877  0.00  0.00    +0.000 A 
ATOM      6  C   UNL     1       6.609   5.074  16.548  0.00  0.00    +0.000 A 
ENDROOT
BRANCH   1   8
ATOM      7  C   UNL     1       5.940   3.658  13.458  0.00  0.00    +0.000 C 
ATOM      8  C   UNL     1       5.728   4.993  14.168  0.00  0.00    +0.000 C 
ENDBRANCH   1   8
BRANCH   3   9
ATOM      9  C   UNL     1       3.111   2.847  17.889  0.00  0.00    +0.000 C 
ATOM     10  N   UNL     1       3.051   1.568  18.156  0.00  0.00    +0.000 NA
BRANCH  10  11
ATOM     11  O   UNL     1       4.281   0.916  18.180  0.00  0.00    +0.000 OA
ATOM     12  H   UNL     1       4.860   1.534  17.696  0.00  0.00    +0.000 HD
ENDBRANCH  10  11
BRANCH   9  13
ATOM     13  C   UNL     1       1.757   3.551  17.918  0.00  0.00    +0.000 C 
BRANCH  13  14
ATOM     14  C   UNL     1       1.749   4.856  18.691  0.00  0.00    +0.000 A 
ATOM     15  C   UNL     1       2.130   6.051  18.067  0.00  0.00    +0.000 A 
ATOM     16  C   UNL     1       2.326   7.193  18.841  0.00  0.00    +0.000 A 
ATOM     17  C   UNL     1       2.115   7.127  20.209  0.00  0.00    +0.000 A 
ATOM     18  C   UNL     1       1.682   5.923  20.745  0.00  0.00    +0.000 A 
ATOM     19  N   UNL     1       1.485   4.792  20.023  0.00  0.00    +0.000 NA
ENDBRANCH  13  14
ENDBRANCH   9  13
ENDBRANCH   3   9
BRANCH   4  20
ATOM     20  O   UNL     1       5.534   3.529  19.632  0.00  0.00    +0.000 OA
ATOM     21  H   UNL     1       5.240   2.598  19.753  0.00  0.00    +0.000 HD
ENDBRANCH   4  20
BRANCH   6  22
ATOM     22  O   UNL     1       7.703   5.738  16.085  0.00  0.00    +0.000 OA
ATOM     23  H   UNL     1       8.471   5.502  16.632  0.00  0.00    +0.000 HD
ENDBRANCH   6  22
TORSDOF 7
ENDMDL
MODEL 3
REMARK VINA RESULT:      -7.0      0.809      1.112
REMARK  Name = 
REMARK  8 active torsions:
REMARK  status: ('A' for Active; 'I' for Inactive)
REMARK    1  A    between atoms: C_1  and  C_2
REMARK    2  A    between atoms: C_2  and  C_3
REMARK    3  A    between atoms: C_5  and  C_6
REMARK    4  A    between atoms: C_6  and  C_7
REMARK    5  A    between atoms: C_7  and  C_8
REMARK    6  A    between atoms: N_14  and  O_15
REMARK    7  A    between atoms: C_16  and  O_17
REMARK    8  A    between atoms: C_19  and  O_20
REMARK                            x       y       z     vdW  Elec       q    Type
REMARK                         _______ _______ _______ _____ _____    ______ ____
ROOT
ATOM      1  C   UNL     1       5.994   4.605  16.181  0.00  0.00    +0.000 A 
ATOM      2  C   UNL     1       4.708   5.147  16.382  0.00  0.00    +0.000 A 
ATOM      3  C   UNL     1       4.232   5.525  17.655  0.00  0.00    +0.000 A 
ATOM      4  C   UNL     1       5.148   5.448  18.717  0.00  0.00    +0.000 A 
ATOM      5  C   UNL     1       6.471   5.025  18.507  0.00  0.00    +0.000 A 
ATOM      6  C   UNL     1       6.881   4.577  17.259  0.00  0.00    +0.000 A 
ENDROOT
BRANCH   1   8
ATOM      7  C   UNL     1       6.989   4.947  13.922  0.00  0.00    +0.000 C 
ATOM      8  C   UNL     1       6.328   3.942  14.863  0.00  0.00    +0.000 C 
ENDBRANCH   1   8
BRANCH   3   9
ATOM      9  C   UNL     1       2.795   5.994  17.796  0.00  0.00    +0.000 C 
ATOM     10  N   UNL     1       2.378   7.230  17.885  0.00  0.00    +0.000 NA
BRANCH  10  11
ATOM     11  O   UNL     1       3.363   8.196  17.698  0.00  0.00    +0.000 OA
ATOM     12  H   UNL     1       4.170   7.659  17.588  0.00  0.00    +0.000 HD
ENDBRANCH  10  11
BRANCH   9  13
ATOM     13  C   UNL     1       1.689   4.953  17.954  0.00  0.00    +0.000 C 
BRANCH  13  14
ATOM     14  C   UNL     1       1.823   4.083  19.189  0.00  0.00    +0.000 A 
ATOM     15  C   UNL     1       1.549   2.711  19.122  0.00  0.00    +0.000 A 
ATOM     16  C   UNL     1       1.466   1.973  20.301  0.00  0.00    +0.000 A 
ATOM     17  C   UNL     1       1.681   2.609  21.513  0.00  0.00    +0.000 A 
ATOM     18  C   UNL     1       2.006   3.957  21.494  0.00  0.00    +0.000 A 
ATOM     19  N   UNL     1       2.091   4.707  20.366  0.00  0.00    +0.000 NA
ENDBRANCH  13  14
ENDBRANCH   9  13
ENDBRANCH   3   9
BRANCH   4  20
ATOM     20  O   UNL     1       4.877   5.746  20.028  0.00  0.00    +0.000 OA
ATOM     21  H   UNL     1       5.028   4.971  20.615  0.00  0.00    +0.000 HD
ENDBRANCH   4  20
BRANCH   6  22
ATOM     22  O   UNL     1       8.138   4.092  17.062  0.00  0.00    +0.000 OA
ATOM     23  H   UNL     1       8.644   4.733  16.534  0.00  0.00    +0.000 HD
ENDBRANCH   6  22
TORSDOF 7
ENDMDL
MODEL 4
REMARK VINA RESULT:      -7.0      1.908      3.211
REMARK  Name = 
REMARK  8 active torsions:
REMARK  status: ('A' for Active; 'I' for Inactive)
REMARK    1  A    between atoms: C_1  and  C_2
REMARK    2  A    between atoms: C_2  and  C_3
REMARK    3  A    between atoms: C_5  and  C_6
REMARK    4  A    between atoms: C_6  and  C_7
REMARK    5  A    between atoms: C_7  and  C_8
REMARK    6  A    between atoms: N_14  and  O_15
REMARK    7  A    between atoms: C_16  and  O_17
REMARK    8  A    between atoms: C_19  and  O_20
REMARK                            x       y       z     vdW  Elec       q    Type
REMARK                         _______ _______ _______ _____ _____    ______ ____
ROOT
ATOM      1  C   UNL     1       5.600   4.945  15.774  0.00  0.00    +0.000 A 
ATOM      2  C   UNL     1       4.613   4.483  16.668  0.00  0.00    +0.000 A 
ATOM      3  C   UNL     1       4.833   4.379  18.057  0.00  0.00    +0.000 A 
ATOM      4  C   UNL     1       6.056   4.873  18.539  0.00  0.00    +0.000 A 
ATOM      5  C   UNL     1       6.999   5.449  17.672  0.00  0.00    +0.000 A 
ATOM      6  C   UNL     1       6.789   5.456  16.300  0.00  0.00    +0.000 A 
ENDROOT
BRANCH   1   8
ATOM      7  C   UNL     1       6.203   3.521  13.820  0.00  0.00    +0.000 C 
ATOM      8  C   UNL     1       5.416   4.745  14.286  0.00  0.00    +0.000 C 
ENDBRANCH   1   8
BRANCH   3   9
ATOM      9  C   UNL     1       3.753   3.765  18.931  0.00  0.00    +0.000 C 
ATOM     10  N   UNL     1       3.870   2.713  19.699  0.00  0.00    +0.000 NA
BRANCH  10  11
ATOM     11  O   UNL     1       5.161   2.205  19.806  0.00  0.00    +0.000 OA
ATOM     12  H   UNL     1       5.617   2.619  19.049  0.00  0.00    +0.000 HD
ENDBRANCH  10  11
BRANCH   9  13
ATOM     13  C   UNL     1       2.338   4.336  18.869  0.00  0.00    +0.000 C 
BRANCH  13  14
ATOM     14  C   UNL     1       2.231   5.785  19.301  0.00  0.00    +0.000 A 
ATOM     15  C   UNL     1       1.796   6.108  20.593  0.00  0.00    +0.000 A 
ATOM     16  C   UNL     1       1.497   7.433  20.901  0.00  0.00    +0.000 A 
ATOM     17  C   UNL     1       1.661   8.408  19.929  0.00  0.00    +0.000 A 
ATOM     18  C   UNL     1       2.152   8.018  18.692  0.00  0.00    +0.000 A 
ATOM     19  N   UNL     1       2.450   6.737  18.357  0.00  0.00    +0.000 NA
ENDBRANCH  13  14
ENDBRANCH   9  13
ENDBRANCH   3   9
BRANCH   4  20
ATOM     20  O   UNL     1       6.469   4.843  19.846  0.00  0.00    +0.000 OA
ATOM     21  H   UNL     1       6.197   4.011  20.294  0.00  0.00    +0.000 HD
ENDBRANCH   4  20
BRANCH   6  22
ATOM     22  O   UNL     1       7.730   5.941  15.445  0.00  0.00    +0.000 OA
ATOM     23  H   UNL     1       7.568   5.578  14.558  0.00  0.00    +0.000 HD
ENDBRANCH   6  22
TORSDOF 7
ENDMDL
MODEL 5
REMARK VINA RESULT:      -6.9      2.593      5.389
REMARK  Name = 
REMARK  8 active torsions:
REMARK  status: ('A' for Active; 'I' for Inactive)
REMARK    1  A    between atoms: C_1  and  C_2
REMARK    2  A    between atoms: C_2  and  C_3
REMARK    3  A    between atoms: C_5  and  C_6
REMARK    4  A    between atoms: C_6  and  C_7
REMARK    5  A    between atoms: C_7  and  C_8
REMARK    6  A    between atoms: N_14  and  O_15
REMARK    7  A    between atoms: C_16  and  O_17
REMARK    8  A    between atoms: C_19  and  O_20
REMARK                            x       y       z     vdW  Elec       q    Type
REMARK                         _______ _______ _______ _____ _____    ______ ____
ROOT
ATOM      1  C   UNL     1       2.235   6.543  19.068  0.00  0.00    +0.000 A 
ATOM      2  C   UNL     1       2.749   5.566  18.190  0.00  0.00    +0.000 A 
ATOM      3  C   UNL     1       3.197   4.305  18.635  0.00  0.00    +0.000 A 
ATOM      4  C   UNL     1       2.999   4.009  19.994  0.00  0.00    +0.000 A 
ATOM      5  C   UNL     1       2.375   4.929  20.854  0.00  0.00    +0.000 A 
ATOM      6  C   UNL     1       2.026   6.195  20.404  0.00  0.00    +0.000 A 
ENDROOT
BRANCH   1   8
ATOM      7  C   UNL     1       3.113   8.292  17.526  0.00  0.00    +0.000 C 
ATOM      8  C   UNL     1       2.062   7.966  18.585  0.00  0.00    +0.000 C 
ENDBRANCH   1   8
BRANCH   3   9
ATOM      9  C   UNL     1       3.841   3.358  17.638  0.00  0.00    +0.000 C 
ATOM     10  N   UNL     1       3.583   2.085  17.486  0.00  0.00    +0.000 NA
BRANCH  10  11
ATOM     11  O   UNL     1       2.515   1.608  18.241  0.00  0.00    +0.000 OA
ATOM     12  H   UNL     1       2.923   0.886  18.756  0.00  0.00    +0.000 HD
ENDBRANCH  10  11
BRANCH   9  13
ATOM     13  C   UNL     1       4.983   3.869  16.762  0.00  0.00    +0.000 C 
BRANCH  13  14
ATOM     14  C   UNL     1       5.868   4.902  17.433  0.00  0.00    +0.000 A 
ATOM     15  C   UNL     1       6.036   6.169  16.860  0.00  0.00    +0.000 A 
ATOM     16  C   UNL     1       7.014   7.022  17.367  0.00  0.00    +0.000 A 
ATOM     17  C   UNL     1       7.783   6.607  18.443  0.00  0.00    +0.000 A 
ATOM     18  C   UNL     1       7.516   5.362  18.993  0.00  0.00    +0.000 A 
ATOM     19  N   UNL     1       6.575   4.505  18.524  0.00  0.00    +0.000 NA
ENDBRANCH  13  14
ENDBRANCH   9  13
ENDBRANCH   3   9
BRANCH   4  20
ATOM     20  O   UNL     1       3.383   2.854  20.623  0.00  0.00    +0.000 OA
ATOM     21  H   UNL     1       4.318   2.624  20.421  0.00  0.00    +0.000 HD
ENDBRANCH   4  20
BRANCH   6  22
ATOM     22  O   UNL     1       1.492   7.120  21.248  0.00  0.00    +0.000 OA
ATOM     23  H   UNL     1       2.069   7.902  21.264  0.00  0.00    +0.000 HD
ENDBRANCH   6  22
TORSDOF 7
ENDMDL
MODEL 6
REMARK VINA RESULT:      -6.8      1.576      2.002
REMARK  Name = 
REMARK  8 active torsions:
REMARK  status: ('A' for Active; 'I' for Inactive)
REMARK    1  A    between atoms: C_1  and  C_2
REMARK    2  A    between atoms: C_2  and  C_3
REMARK    3  A    between atoms: C_5  and  C_6
REMARK    4  A    between atoms: C_6  and  C_7
REMARK    5  A    between atoms: C_7  and  C_8
REMARK    6  A    between atoms: N_14  and  O_15
REMARK    7  A    between atoms: C_16  and  O_17
REMARK    8  A    between atoms: C_19  and  O_20
REMARK                            x       y       z     vdW  Elec       q    Type
REMARK                         _______ _______ _______ _____ _____    ______ ____
ROOT
ATOM      1  C   UNL     1       6.097   4.389  14.299  0.00  0.00    +0.000 A 
ATOM      2  C   UNL     1       4.965   4.268  15.131  0.00  0.00    +0.000 A 
ATOM      3  C   UNL     1       4.928   4.780  16.445  0.00  0.00    +0.000 A 
ATOM      4  C   UNL     1       6.040   5.532  16.858  0.00  0.00    +0.000 A 
ATOM      5  C   UNL     1       7.123   5.763  15.994  0.00  0.00    +0.000 A 
ATOM      6  C   UNL     1       7.167   5.171  14.739  0.00  0.00    +0.000 A 
ENDROOT
BRANCH   1   8
ATOM      7  C   UNL     1       4.833   3.531  12.330  0.00  0.00    +0.000 C 
ATOM      8  C   UNL     1       6.188   3.564  13.035  0.00  0.00    +0.000 C 
ENDBRANCH   1   8
BRANCH   3   9
ATOM      9  C   UNL     1       3.710   4.506  17.309  0.00  0.00    +0.000 C 
ATOM     10  N   UNL     1       2.985   5.389  17.945  0.00  0.00    +0.000 NA
BRANCH  10  11
ATOM     11  O   UNL     1       3.309   6.716  17.679  0.00  0.00    +0.000 OA
ATOM     12  H   UNL     1       2.820   7.198  18.373  0.00  0.00    +0.000 HD
ENDBRANCH  10  11
BRANCH   9  13
ATOM     13  C   UNL     1       3.304   3.058  17.577  0.00  0.00    +0.000 C 
BRANCH  13  14
ATOM     14  C   UNL     1       2.650   2.834  18.927  0.00  0.00    +0.000 A 
ATOM     15  C   UNL     1       1.260   2.937  19.067  0.00  0.00    +0.000 A 
ATOM     16  C   UNL     1       0.701   2.944  20.343  0.00  0.00    +0.000 A 
ATOM     17  C   UNL     1       1.532   2.824  21.446  0.00  0.00    +0.000 A 
ATOM     18  C   UNL     1       2.892   2.667  21.224  0.00  0.00    +0.000 A 
ATOM     19  N   UNL     1       3.470   2.659  19.997  0.00  0.00    +0.000 NA
ENDBRANCH  13  14
ENDBRANCH   9  13
ENDBRANCH   3   9
BRANCH   4  20
ATOM     20  O   UNL     1       6.208   6.092  18.099  0.00  0.00    +0.000 OA
ATOM     21  H   UNL     1       6.454   7.042  18.038  0.00  0.00    +0.000 HD
ENDBRANCH   4  20
BRANCH   6  22
ATOM     22  O   UNL     1       8.246   5.325  13.924  0.00  0.00    +0.000 OA
ATOM     23  H   UNL     1       8.063   6.040  13.290  0.00  0.00    +0.000 HD
ENDBRANCH   6  22
TORSDOF 7
ENDMDL
MODEL 7
REMARK VINA RESULT:      -6.8      1.950      2.795
REMARK  Name = 
REMARK  8 active torsions:
REMARK  status: ('A' for Active; 'I' for Inactive)
REMARK    1  A    between atoms: C_1  and  C_2
REMARK    2  A    between atoms: C_2  and  C_3
REMARK    3  A    between atoms: C_5  and  C_6
REMARK    4  A    between atoms: C_6  and  C_7
REMARK    5  A    between atoms: C_7  and  C_8
REMARK    6  A    between atoms: N_14  and  O_15
REMARK    7  A    between atoms: C_16  and  O_17
REMARK    8  A    between atoms: C_19  and  O_20
REMARK                            x       y       z     vdW  Elec       q    Type
REMARK                         _______ _______ _______ _____ _____    ______ ____
ROOT
ATOM      1  C   UNL     1       6.167   4.131  13.853  0.00  0.00    +0.000 A 
ATOM      2  C   UNL     1       5.294   3.863  14.928  0.00  0.00    +0.000 A 
ATOM      3  C   UNL     1       5.443   4.462  16.197  0.00  0.00    +0.000 A 
ATOM      4  C   UNL     1       6.442   5.444  16.316  0.00  0.00    +0.000 A 
ATOM      5  C   UNL     1       7.238   5.807  15.217  0.00  0.00    +0.000 A 
ATOM      6  C   UNL     1       7.125   5.136  14.007  0.00  0.00    +0.000 A 
ENDROOT
BRANCH   1   8
ATOM      7  C   UNL     1       4.814   3.391  11.896  0.00  0.00    +0.000 C 
ATOM      8  C   UNL     1       6.145   3.240  12.632  0.00  0.00    +0.000 C 
ENDBRANCH   1   8
BRANCH   3   9
ATOM      9  C   UNL     1       4.527   4.031  17.328  0.00  0.00    +0.000 C 
ATOM     10  N   UNL     1       4.885   3.673  18.534  0.00  0.00    +0.000 NA
BRANCH  10  11
ATOM     11  O   UNL     1       6.237   3.840  18.819  0.00  0.00    +0.000 OA
ATOM     12  H   UNL     1       6.659   3.678  17.953  0.00  0.00    +0.000 HD
ENDBRANCH  10  11
BRANCH   9  13
ATOM     13  C   UNL     1       3.032   3.887  17.055  0.00  0.00    +0.000 C 
BRANCH  13  14
ATOM     14  C   UNL     1       2.189   3.671  18.298  0.00  0.00    +0.000 A 
ATOM     15  C   UNL     1       1.874   4.749  19.135  0.00  0.00    +0.000 A 
ATOM     16  C   UNL     1       1.290   4.501  20.376  0.00  0.00    +0.000 A 
ATOM     17  C   UNL     1       1.011   3.194  20.743  0.00  0.00    +0.000 A 
ATOM     18  C   UNL     1       1.298   2.186  19.835  0.00  0.00    +0.000 A 
ATOM     19  N   UNL     1       1.870   2.390  18.622  0.00  0.00    +0.000 NA
ENDBRANCH  13  14
ENDBRANCH   9  13
ENDBRANCH   3   9
BRANCH   4  20
ATOM     20  O   UNL     1       6.760   6.122  17.464  0.00  0.00    +0.000 OA
ATOM     21  H   UNL     1       6.573   7.084  17.380  0.00  0.00    +0.000 HD
ENDBRANCH   4  20
BRANCH   6  22
ATOM     22  O   UNL     1       7.944   5.428  12.960  0.00  0.00    +0.000 OA
ATOM     23  H   UNL     1       8.363   6.291  13.118  0.00  0.00    +0.000 HD
ENDBRANCH   6  22
TORSDOF 7
ENDMDL
MODEL 8
REMARK VINA RESULT:      -6.8      1.900      3.103
REMARK  Name = 
REMARK  8 active torsions:
REMARK  status: ('A' for Active; 'I' for Inactive)
REMARK    1  A    between atoms: C_1  and  C_2
REMARK    2  A    between atoms: C_2  and  C_3
REMARK    3  A    between atoms: C_5  and  C_6
REMARK    4  A    between atoms: C_6  and  C_7
REMARK    5  A    between atoms: C_7  and  C_8
REMARK    6  A    between atoms: N_14  and  O_15
REMARK    7  A    between atoms: C_16  and  O_17
REMARK    8  A    between atoms: C_19  and  O_20
REMARK                            x       y       z     vdW  Elec       q    Type
REMARK                         _______ _______ _______ _____ _____    ______ ____
ROOT
ATOM      1  C   UNL     1       5.533   4.691  15.554  0.00  0.00    +0.000 A 
ATOM      2  C   UNL     1       4.407   4.082  16.146  0.00  0.00    +0.000 A 
ATOM      3  C   UNL     1       4.376   3.696  17.502  0.00  0.00    +0.000 A 
ATOM      4  C   UNL     1       5.486   4.055  18.284  0.00  0.00    +0.000 A 
ATOM      5  C   UNL     1       6.562   4.771  17.734  0.00  0.00    +0.000 A 
ATOM      6  C   UNL     1       6.601   5.058  16.376  0.00  0.00    +0.000 A 
ENDROOT
BRANCH   1   8
ATOM      7  C   UNL     1       6.329   3.572  13.475  0.00  0.00    +0.000 C 
ATOM      8  C   UNL     1       5.621   4.798  14.048  0.00  0.00    +0.000 C 
ENDBRANCH   1   8
BRANCH   3   9
ATOM      9  C   UNL     1       3.165   2.945  18.027  0.00  0.00    +0.000 C 
ATOM     10  N   UNL     1       3.071   1.658  18.239  0.00  0.00    +0.000 NA
BRANCH  10  11
ATOM     11  O   UNL     1       4.260   0.950  18.082  0.00  0.00    +0.000 OA
ATOM     12  H   UNL     1       4.576   0.858  19.001  0.00  0.00    +0.000 HD
ENDBRANCH  10  11
BRANCH   9  13
ATOM     13  C   UNL     1       1.862   3.709  18.254  0.00  0.00    +0.000 C 
BRANCH  13  14
ATOM     14  C   UNL     1       2.037   5.051  18.937  0.00  0.00    +0.000 A 
ATOM     15  C   UNL     1       1.695   5.210  20.286  0.00  0.00    +0.000 A 
ATOM     16  C   UNL     1       1.656   6.490  20.834  0.00  0.00    +0.000 A 
ATOM     17  C   UNL     1       1.981   7.577  20.038  0.00  0.00    +0.000 A 
ATOM     18  C   UNL     1       2.367   7.334  18.728  0.00  0.00    +0.000 A 
ATOM     19  N   UNL     1       2.412   6.103  18.161  0.00  0.00    +0.000 NA
ENDBRANCH  13  14
ENDBRANCH   9  13
ENDBRANCH   3   9
BRANCH   4  20
ATOM     20  O   UNL     1       5.658   3.753  19.611  0.00  0.00    +0.000 OA
ATOM     21  H   UNL     1       6.459   3.201  19.756  0.00  0.00    +0.000 HD
ENDBRANCH   4  20
BRANCH   6  22
ATOM     22  O   UNL     1       7.674   5.683  15.818  0.00  0.00    +0.000 OA
ATOM     23  H   UNL     1       7.407   6.572  15.531  0.00  0.00    +0.000 HD
ENDBRANCH   6  22
TORSDOF 7
ENDMDL
MODEL 9
REMARK VINA RESULT:      -6.8      1.978      3.345
REMARK  Name = 
REMARK  8 active torsions:
REMARK  status: ('A' for Active; 'I' for Inactive)
REMARK    1  A    between atoms: C_1  and  C_2
REMARK    2  A    between atoms: C_2  and  C_3
REMARK    3  A    between atoms: C_5  and  C_6
REMARK    4  A    between atoms: C_6  and  C_7
REMARK    5  A    between atoms: C_7  and  C_8
REMARK    6  A    between atoms: N_14  and  O_15
REMARK    7  A    between atoms: C_16  and  O_17
REMARK    8  A    between atoms: C_19  and  O_20
REMARK                            x       y       z     vdW  Elec       q    Type
REMARK                         _______ _______ _______ _____ _____    ______ ____
ROOT
ATOM      1  C   UNL     1       5.910   3.825  13.369  0.00  0.00    +0.000 A 
ATOM      2  C   UNL     1       5.217   3.819  14.597  0.00  0.00    +0.000 A 
ATOM      3  C   UNL     1       5.678   4.514  15.735  0.00  0.00    +0.000 A 
ATOM      4  C   UNL     1       6.812   5.325  15.560  0.00  0.00    +0.000 A 
ATOM      5  C   UNL     1       7.440   5.436  14.308  0.00  0.00    +0.000 A 
ATOM      6  C   UNL     1       7.015   4.670  13.232  0.00  0.00    +0.000 A 
ENDROOT
BRANCH   1   8
ATOM      7  C   UNL     1       4.327   3.326  11.511  0.00  0.00    +0.000 C 
ATOM      8  C   UNL     1       5.540   2.827  12.295  0.00  0.00    +0.000 C 
ENDBRANCH   1   8
BRANCH   3   9
ATOM      9  C   UNL     1       4.929   4.360  17.046  0.00  0.00    +0.000 C 
ATOM     10  N   UNL     1       5.443   4.073  18.214  0.00  0.00    +0.000 NA
BRANCH  10  11
ATOM     11  O   UNL     1       6.835   4.039  18.250  0.00  0.00    +0.000 OA
ATOM     12  H   UNL     1       7.070   4.986  18.287  0.00  0.00    +0.000 HD
ENDBRANCH  10  11
BRANCH   9  13
ATOM     13  C   UNL     1       3.404   4.440  17.042  0.00  0.00    +0.000 C 
BRANCH  13  14
ATOM     14  C   UNL     1       2.763   4.182  18.391  0.00  0.00    +0.000 A 
ATOM     15  C   UNL     1       2.192   2.935  18.676  0.00  0.00    +0.000 A 
ATOM     16  C   UNL     1       1.421   2.784  19.827  0.00  0.00    +0.000 A 
ATOM     17  C   UNL     1       1.256   3.866  20.678  0.00  0.00    +0.000 A 
ATOM     18  C   UNL     1       1.902   5.051  20.358  0.00  0.00    +0.000 A 
ATOM     19  N   UNL     1       2.656   5.234  19.245  0.00  0.00    +0.000 NA
ENDBRANCH  13  14
ENDBRANCH   9  13
ENDBRANCH   3   9
BRANCH   4  20
ATOM     20  O   UNL     1       7.427   6.058  16.542  0.00  0.00    +0.000 OA
ATOM     21  H   UNL     1       6.975   6.920  16.688  0.00  0.00    +0.000 HD
ENDBRANCH   4  20
BRANCH   6  22
ATOM     22  O   UNL     1       7.664   4.712  12.036  0.00  0.00    +0.000 OA
ATOM     23  H   UNL     1       8.464   5.256  12.130  0.00  0.00    +0.000 HD
ENDBRANCH   6  22
TORSDOF 7
ENDMDL
