MODEL 1
REMARK VINA RESULT:      -6.9      0.000      0.000
REMARK  Name = 
REMARK  8 active torsions:
REMARK  status: ('A' for Active; 'I' for Inactive)
REMARK    1  A    between atoms: C_1  and  N_2
REMARK    2  A    between atoms: N_2  and  C_3
REMARK    3  A    between atoms: N_2  and  S_4
REMARK    4  A    between atoms: S_4  and  C_7
REMARK    5  A    between atoms: C_10  and  C_11
REMARK    6  A    between atoms: C_11  and  N_12
REMARK    7  A    between atoms: C_16  and  C_17
REMARK    8  A    between atoms: C_17  and  O_18
REMARK                            x       y       z     vdW  Elec       q    Type
REMARK                         _______ _______ _______ _____ _____    ______ ____
ROOT
ATOM      1  C   UNL     1       5.415   5.848  17.324  0.00  0.00    +0.000 A 
ATOM      2  C   UNL     1       4.741   7.032  17.057  0.00  0.00    +0.000 A 
ATOM      3  C   UNL     1       3.488   6.965  17.694  0.00  0.00    +0.000 A 
ATOM      4  C   UNL     1       3.347   5.666  18.141  0.00  0.00    +0.000 A 
ATOM      5  O   UNL     1       4.511   4.971  17.926  0.00  0.00    +0.000 OA
ENDROOT
BRANCH   1   6
ATOM      6  S   UNL     1       7.122   5.426  16.938  0.00  0.00    +0.000 S 
ATOM      7  O   UNL     1       7.568   4.599  18.042  0.00  0.00    +0.000 OA
ATOM      8  O   UNL     1       7.745   6.690  16.638  0.00  0.00    +0.000 OA
BRANCH   6  10
ATOM      9  C   UNL     1       5.987   3.531  15.441  0.00  0.00    +0.000 C 
ATOM     10  N   UNL     1       7.092   4.500  15.513  0.00  0.00    +0.000 NA
ATOM     11  C   UNL     1       7.251   5.292  14.277  0.00  0.00    +0.000 C 
ENDBRANCH   6  10
ENDBRANCH   1   6
BRANCH   4  12
ATOM     12  C   UNL     1       2.185   4.930  18.742  0.00  0.00    +0.000 C 
BRANCH  12  13
ATOM     13  N   UNL     1       2.375   3.528  19.154  0.00  0.00    +0.000 NA
ATOM     14  C   UNL     1       1.115   2.828  19.421  0.00  0.00    +0.000 C 
ATOM     15  C   UNL     1       0.889   2.923  20.917  0.00  0.00    +0.000 C 
ATOM     16  C   UNL     1       2.291   2.921  21.500  0.00  0.00    +0.000 C 
ATOM     17  C   UNL     1       3.226   3.350  20.357  0.00  0.00    +0.000 C 
BRANCH  17  18
ATOM     18  C   UNL     1       4.304   2.264  20.127  0.00  0.00    +0.000 C 
BRANCH  18  19
ATOM     19  O   UNL     1       5.388   2.761  19.348  0.00  0.00    +0.000 OA
ATOM     20  H   UNL     1       6.185   2.612  19.891  0.00  0.00    +0.000 HD
ENDBRANCH  18  19
ENDBRANCH  17  18
ENDBRANCH  12  13
ENDBRANCH   4  12
TORSDOF 6
ENDMDL
MODEL 2
REMARK VINA RESULT:      -6.9      0.698      1.039
REMARK  Name = 
REMARK  8 active torsions:
REMARK  status: ('A' for Active; 'I' for Inactive)
REMARK    1  A    between atoms: C_1  and  N_2
REMARK    2  A    between atoms: N_2  and  C_3
REMARK    3  A    between atoms: N_2  and  S_4
REMARK    4  A    between atoms: S_4  and  C_7
REMARK    5  A    between atoms: C_10  and  C_11
REMARK    6  A    between atoms: C_11  and  N_12
REMARK    7  A    between atoms: C_16  and  C_17
REMARK    8  A    between atoms: C_17  and  O_18
REMARK                            x       y       z     vdW  Elec       q    Type
REMARK                         _______ _______ _______ _____ _____    ______ ____
ROOT
ATOM      1  C   UNL     1       5.258   5.773  16.857  0.00  0.00    +0.000 A 
ATOM      2  C   UNL     1       4.699   7.001  17.183  0.00  0.00    +0.000 A 
ATOM      3  C   UNL     1       3.495   6.755  17.869  0.00  0.00    +0.000 A 
ATOM      4  C   UNL     1       3.247   5.402  17.747  0.00  0.00    +0.000 A 
ATOM      5  O   UNL     1       4.310   4.787  17.134  0.00  0.00    +0.000 OA
ENDROOT
BRANCH   1   6
ATOM      6  S   UNL     1       6.878   5.440  16.144  0.00  0.00    +0.000 S 
ATOM      7  O   UNL     1       7.326   4.214  16.774  0.00  0.00    +0.000 OA
ATOM      8  O   UNL     1       7.599   6.679  16.298  0.00  0.00    +0.000 OA
BRANCH   6  10
ATOM      9  C   UNL     1       7.834   5.393  13.653  0.00  0.00    +0.000 C 
ATOM     10  N   UNL     1       6.640   5.170  14.483  0.00  0.00    +0.000 NA
ATOM     11  C   UNL     1       5.945   3.904  14.173  0.00  0.00    +0.000 C 
ENDBRANCH   6  10
ENDBRANCH   1   6
BRANCH   4  12
ATOM     12  C   UNL     1       2.058   4.561  18.111  0.00  0.00    +0.000 C 
BRANCH  12  13
ATOM     13  N   UNL     1       2.282   3.308  18.854  0.00  0.00    +0.000 NA
ATOM     14  C   UNL     1       1.039   2.676  19.309  0.00  0.00    +0.000 C 
ATOM     15  C   UNL     1       0.832   3.135  20.738  0.00  0.00    +0.000 C 
ATOM     16  C   UNL     1       2.241   3.302  21.278  0.00  0.00    +0.000 C 
ATOM     17  C   UNL     1       3.151   3.448  20.049  0.00  0.00    +0.000 C 
BRANCH  17  18
ATOM     18  C   UNL     1       4.249   2.358  20.076  0.00  0.00    +0.000 C 
BRANCH  18  19
ATOM     19  O   UNL     1       5.405   2.761  19.349  0.00  0.00    +0.000 OA
ATOM     20  H   UNL     1       5.751   1.945  18.942  0.00  0.00    +0.000 HD
ENDBRANCH  18  19
ENDBRANCH  17  18
ENDBRANCH  12  13
ENDBRANCH   4  12
TORSDOF 6
ENDMDL
MODEL 3
REMARK VINA RESULT:      -6.8      1.315      1.603
REMARK  Name = 
REMARK  8 active torsions:
REMARK  status: ('A' for Active; 'I' for Inactive)
REMARK    1  A    between atoms: C_1  and  N_2
REMARK    2  A    between atoms: N_2  and  C_3
REMARK    3  A    between atoms: N_2  and  S_4
REMARK    4  A    between atoms: S_4  and  C_7
REMARK    5  A    between atoms: C_10  and  C_11
REMARK    6  A    between atoms: C_11  and  N_12
REMARK    7  A    between atoms: C_16  and  C_17
REMARK    8  A    between atoms: C_17  and  O_18
REMARK                            x       y       z     vdW  Elec       q    Type
REMARK                         _______ _______ _______ _____ _____    ______ ____
ROOT
ATOM      1  C   UNL     1       4.307   6.638  17.411  0.00  0.00    +0.000 A 
ATOM      2  C   UNL     1       3.447   7.725  17.484  0.00  0.00    +0.000 A 
ATOM      3  C   UNL     1       2.547   7.488  18.539  0.00  0.00    +0.000 A 
ATOM      4  C   UNL     1       2.741   6.178  18.931  0.00  0.00    +0.000 A 
ATOM      5  O   UNL     1       3.810   5.645  18.257  0.00  0.00    +0.000 OA
ENDROOT
BRANCH   1   6
ATOM      6  S   UNL     1       5.779   6.448  16.391  0.00  0.00    +0.000 S 
ATOM      7  O   UNL     1       6.774   7.313  16.993  0.00  0.00    +0.000 OA
ATOM      8  O   UNL     1       5.310   6.654  15.043  0.00  0.00    +0.000 OA
BRANCH   6  10
ATOM      9  C   UNL     1       6.431   4.123  15.255  0.00  0.00    +0.000 C 
ATOM     10  N   UNL     1       6.274   4.828  16.536  0.00  0.00    +0.000 NA
ATOM     11  C   UNL     1       7.414   4.628  17.453  0.00  0.00    +0.000 C 
ENDBRANCH   6  10
ENDBRANCH   1   6
BRANCH   4  12
ATOM     12  C   UNL     1       1.990   5.291  19.881  0.00  0.00    +0.000 C 
BRANCH  12  13
ATOM     13  N   UNL     1       2.089   3.831  19.709  0.00  0.00    +0.000 NA
ATOM     14  C   UNL     1       0.909   3.110  20.198  0.00  0.00    +0.000 C 
ATOM     15  C   UNL     1       1.241   2.665  21.608  0.00  0.00    +0.000 C 
ATOM     16  C   UNL     1       2.739   2.423  21.573  0.00  0.00    +0.000 C 
ATOM     17  C   UNL     1       3.268   3.213  20.365  0.00  0.00    +0.000 C 
BRANCH  17  18
ATOM     18  C   UNL     1       4.012   2.259  19.400  0.00  0.00    +0.000 C 
BRANCH  18  19
ATOM     19  O   UNL     1       4.397   2.924  18.201  0.00  0.00    +0.000 OA
ATOM     20  H   UNL     1       5.165   2.425  17.865  0.00  0.00    +0.000 HD
ENDBRANCH  18  19
ENDBRANCH  17  18
ENDBRANCH  12  13
ENDBRANCH   4  12
TORSDOF 6
ENDMDL
MODEL 4
REMARK VINA RESULT:      -6.5      1.085      1.383
REMARK  Name = 
REMARK  8 active torsions:
REMARK  status: ('A' for Active; 'I' for Inactive)
REMARK    1  A    between atoms: C_1  and  N_2
REMARK    2  A    between atoms: N_2  and  C_3
REMARK    3  A    between atoms: N_2  and  S_4
REMARK    4  A    between atoms: S_4  and  C_7
REMARK    5  A    between atoms: C_10  and  C_11
REMARK    6  A    between atoms: C_11  and  N_12
REMARK    7  A    between atoms: C_16  and  C_17
REMARK    8  A    between atoms: C_17  and  O_18
REMARK                            x       y       z     vdW  Elec       q    Type
REMARK                         _______ _______ _______ _____ _____    ______ ____
ROOT
ATOM      1  C   UNL     1       5.481   5.949  17.513  0.00  0.00    +0.000 A 
ATOM      2  C   UNL     1       4.659   6.915  16.948  0.00  0.00    +0.000 A 
ATOM      3  C   UNL     1       3.540   7.070  17.787  0.00  0.00    +0.000 A 
ATOM      4  C   UNL     1       3.602   6.046  18.712  0.00  0.00    +0.000 A 
ATOM      5  O   UNL     1       4.778   5.355  18.562  0.00  0.00    +0.000 OA
ENDROOT
BRANCH   1   6
ATOM      6  S   UNL     1       7.135   5.456  17.001  0.00  0.00    +0.000 S 
ATOM      7  O   UNL     1       7.685   4.738  18.135  0.00  0.00    +0.000 OA
ATOM      8  O   UNL     1       7.736   6.671  16.510  0.00  0.00    +0.000 OA
BRANCH   6  10
ATOM      9  C   UNL     1       5.720   3.583  15.733  0.00  0.00    +0.000 C 
ATOM     10  N   UNL     1       6.950   4.390  15.691  0.00  0.00    +0.000 NA
ATOM     11  C   UNL     1       7.194   5.009  14.373  0.00  0.00    +0.000 C 
ENDBRANCH   6  10
ENDBRANCH   1   6
BRANCH   4  12
ATOM     12  C   UNL     1       2.632   5.574  19.756  0.00  0.00    +0.000 C 
BRANCH  12  13
ATOM     13  N   UNL     1       1.833   4.367  19.481  0.00  0.00    +0.000 NA
ATOM     14  C   UNL     1       0.847   4.076  20.526  0.00  0.00    +0.000 C 
ATOM     15  C   UNL     1       1.499   3.069  21.451  0.00  0.00    +0.000 C 
ATOM     16  C   UNL     1       2.400   2.260  20.535  0.00  0.00    +0.000 C 
ATOM     17  C   UNL     1       2.631   3.131  19.291  0.00  0.00    +0.000 C 
BRANCH  17  18
ATOM     18  C   UNL     1       2.185   2.363  18.024  0.00  0.00    +0.000 C 
BRANCH  18  19
ATOM     19  O   UNL     1       2.188   3.204  16.874  0.00  0.00    +0.000 OA
ATOM     20  H   UNL     1       1.259   3.475  16.751  0.00  0.00    +0.000 HD
ENDBRANCH  18  19
ENDBRANCH  17  18
ENDBRANCH  12  13
ENDBRANCH   4  12
TORSDOF 6
ENDMDL
MODEL 5
REMARK VINA RESULT:      -6.5      1.195      1.711
REMARK  Name = 
REMARK  8 active torsions:
REMARK  status: ('A' for Active; 'I' for Inactive)
REMARK    1  A    between atoms: C_1  and  N_2
REMARK    2  A    between atoms: N_2  and  C_3
REMARK    3  A    between atoms: N_2  and  S_4
REMARK    4  A    between atoms: S_4  and  C_7
REMARK    5  A    between atoms: C_10  and  C_11
REMARK    6  A    between atoms: C_11  and  N_12
REMARK    7  A    between atoms: C_16  and  C_17
REMARK    8  A    between atoms: C_17  and  O_18
REMARK                            x       y       z     vdW  Elec       q    Type
REMARK                         _______ _______ _______ _____ _____    ______ ____
ROOT
ATOM      1  C   UNL     1       5.506   5.868  17.494  0.00  0.00    +0.000 A 
ATOM      2  C   UNL     1       4.632   6.794  16.941  0.00  0.00    +0.000 A 
ATOM      3  C   UNL     1       3.539   6.928  17.817  0.00  0.00    +0.000 A 
ATOM      4  C   UNL     1       3.669   5.926  18.759  0.00  0.00    +0.000 A 
ATOM      5  O   UNL     1       4.861   5.271  18.579  0.00  0.00    +0.000 OA
ENDROOT
BRANCH   1   6
ATOM      6  S   UNL     1       7.157   5.420  16.933  0.00  0.00    +0.000 S 
ATOM      7  O   UNL     1       7.738   4.664  18.025  0.00  0.00    +0.000 OA
ATOM      8  O   UNL     1       7.732   6.662  16.481  0.00  0.00    +0.000 OA
BRANCH   6  10
ATOM      9  C   UNL     1       5.751   3.570  15.621  0.00  0.00    +0.000 C 
ATOM     10  N   UNL     1       6.961   4.406  15.583  0.00  0.00    +0.000 NA
ATOM     11  C   UNL     1       7.159   5.085  14.287  0.00  0.00    +0.000 C 
ENDBRANCH   6  10
ENDBRANCH   1   6
BRANCH   4  12
ATOM     12  C   UNL     1       2.753   5.442  19.845  0.00  0.00    +0.000 C 
BRANCH  12  13
ATOM     13  N   UNL     1       2.570   3.990  20.019  0.00  0.00    +0.000 NA
ATOM     14  C   UNL     1       2.820   3.226  18.792  0.00  0.00    +0.000 C 
ATOM     15  C   UNL     1       1.466   3.016  18.144  0.00  0.00    +0.000 C 
ATOM     16  C   UNL     1       0.507   2.927  19.317  0.00  0.00    +0.000 C 
ATOM     17  C   UNL     1       1.225   3.593  20.502  0.00  0.00    +0.000 C 
BRANCH  17  18
ATOM     18  C   UNL     1       1.323   2.597  21.682  0.00  0.00    +0.000 C 
BRANCH  18  19
ATOM     19  O   UNL     1       2.614   2.624  22.284  0.00  0.00    +0.000 OA
ATOM     20  H   UNL     1       2.455   2.830  23.224  0.00  0.00    +0.000 HD
ENDBRANCH  18  19
ENDBRANCH  17  18
ENDBRANCH  12  13
ENDBRANCH   4  12
TORSDOF 6
ENDMDL
MODEL 6
REMARK VINA RESULT:      -6.5      2.171      5.761
REMARK  Name = 
REMARK  8 active torsions:
REMARK  status: ('A' for Active; 'I' for Inactive)
REMARK    1  A    between atoms: C_1  and  N_2
REMARK    2  A    between atoms: N_2  and  C_3
REMARK    3  A    between atoms: N_2  and  S_4
REMARK    4  A    between atoms: S_4  and  C_7
REMARK    5  A    between atoms: C_10  and  C_11
REMARK    6  A    between atoms: C_11  and  N_12
REMARK    7  A    between atoms: C_16  and  C_17
REMARK    8  A    between atoms: C_17  and  O_18
REMARK                            x       y       z     vdW  Elec       q    Type
REMARK                         _______ _______ _______ _____ _____    ______ ____
ROOT
ATOM      1  C   UNL     1       3.607   4.085  18.918  0.00  0.00    +0.000 A 
ATOM      2  C   UNL     1       3.276   5.272  19.557  0.00  0.00    +0.000 A 
ATOM      3  C   UNL     1       3.495   6.323  18.647  0.00  0.00    +0.000 A 
ATOM      4  C   UNL     1       4.156   5.772  17.567  0.00  0.00    +0.000 A 
ATOM      5  O   UNL     1       4.231   4.410  17.713  0.00  0.00    +0.000 OA
ENDROOT
BRANCH   1   6
ATOM      6  S   UNL     1       3.361   2.399  19.502  0.00  0.00    +0.000 S 
ATOM      7  O   UNL     1       4.155   2.297  20.712  0.00  0.00    +0.000 OA
ATOM      8  O   UNL     1       3.628   1.577  18.349  0.00  0.00    +0.000 OA
BRANCH   6  10
ATOM      9  C   UNL     1       1.349   2.778  21.213  0.00  0.00    +0.000 C 
ATOM     10  N   UNL     1       1.714   2.247  19.891  0.00  0.00    +0.000 NA
ATOM     11  C   UNL     1       0.799   2.684  18.817  0.00  0.00    +0.000 C 
ENDBRANCH   6  10
ENDBRANCH   1   6
BRANCH   4  12
ATOM     12  C   UNL     1       4.801   6.391  16.361  0.00  0.00    +0.000 C 
BRANCH  12  13
ATOM     13  N   UNL     1       6.267   6.542  16.346  0.00  0.00    +0.000 NA
ATOM     14  C   UNL     1       6.960   5.398  15.745  0.00  0.00    +0.000 C 
ATOM     15  C   UNL     1       7.364   4.498  16.895  0.00  0.00    +0.000 C 
ATOM     16  C   UNL     1       7.624   5.462  18.040  0.00  0.00    +0.000 C 
ATOM     17  C   UNL     1       6.877   6.756  17.681  0.00  0.00    +0.000 C 
BRANCH  17  18
ATOM     18  C   UNL     1       7.869   7.945  17.662  0.00  0.00    +0.000 C 
BRANCH  18  19
ATOM     19  O   UNL     1       8.640   8.001  18.858  0.00  0.00    +0.000 OA
ATOM     20  H   UNL     1       7.990   7.976  19.586  0.00  0.00    +0.000 HD
ENDBRANCH  18  19
ENDBRANCH  17  18
ENDBRANCH  12  13
ENDBRANCH   4  12
TORSDOF 6
ENDMDL
MODEL 7
REMARK VINA RESULT:      -6.5      1.618      1.901
REMARK  Name = 
REMARK  8 active torsions:
REMARK  status: ('A' for Active; 'I' for Inactive)
REMARK    1  A    between atoms: C_1  and  N_2
REMARK    2  A    between atoms: N_2  and  C_3
REMARK    3  A    between atoms: N_2  and  S_4
REMARK    4  A    between atoms: S_4  and  C_7
REMARK    5  A    between atoms: C_10  and  C_11
REMARK    6  A    between atoms: C_11  and  N_12
REMARK    7  A    between atoms: C_16  and  C_17
REMARK    8  A    between atoms: C_17  and  O_18
REMARK                            x       y       z     vdW  Elec       q    Type
REMARK                         _______ _______ _______ _____ _____    ______ ____
ROOT
ATOM      1  C   UNL     1       4.657   6.335  17.368  0.00  0.00    +0.000 A 
ATOM      2  C   UNL     1       3.734   7.283  17.789  0.00  0.00    +0.000 A 
ATOM      3  C   UNL     1       2.580   6.599  18.212  0.00  0.00    +0.000 A 
ATOM      4  C   UNL     1       2.746   5.282  17.832  0.00  0.00    +0.000 A 
ATOM      5  O   UNL     1       4.006   5.102  17.318  0.00  0.00    +0.000 OA
ENDROOT
BRANCH   1   6
ATOM      6  S   UNL     1       6.377   6.586  16.897  0.00  0.00    +0.000 S 
ATOM      7  O   UNL     1       6.631   7.995  17.124  0.00  0.00    +0.000 OA
ATOM      8  O   UNL     1       6.478   5.999  15.585  0.00  0.00    +0.000 OA
BRANCH   6  10
ATOM      9  C   UNL     1       6.793   5.587  19.336  0.00  0.00    +0.000 C 
ATOM     10  N   UNL     1       7.321   5.660  17.965  0.00  0.00    +0.000 NA
ATOM     11  C   UNL     1       7.723   4.345  17.426  0.00  0.00    +0.000 C 
ENDBRANCH   6  10
ENDBRANCH   1   6
BRANCH   4  12
ATOM     12  C   UNL     1       1.814   4.105  17.849  0.00  0.00    +0.000 C 
BRANCH  12  13
ATOM     13  N   UNL     1       2.142   2.959  18.715  0.00  0.00    +0.000 NA
ATOM     14  C   UNL     1       0.986   2.445  19.456  0.00  0.00    +0.000 C 
ATOM     15  C   UNL     1       1.034   3.104  20.820  0.00  0.00    +0.000 C 
ATOM     16  C   UNL     1       2.517   3.287  21.087  0.00  0.00    +0.000 C 
ATOM     17  C   UNL     1       3.205   3.227  19.714  0.00  0.00    +0.000 C 
BRANCH  17  18
ATOM     18  C   UNL     1       4.274   2.108  19.713  0.00  0.00    +0.000 C 
BRANCH  18  19
ATOM     19  O   UNL     1       4.906   1.986  20.984  0.00  0.00    +0.000 OA
ATOM     20  H   UNL     1       5.819   1.702  20.792  0.00  0.00    +0.000 HD
ENDBRANCH  18  19
ENDBRANCH  17  18
ENDBRANCH  12  13
ENDBRANCH   4  12
TORSDOF 6
ENDMDL
MODEL 8
REMARK VINA RESULT:      -6.5      2.459      5.757
REMARK  Name = 
REMARK  8 active torsions:
REMARK  status: ('A' for Active; 'I' for Inactive)
REMARK    1  A    between atoms: C_1  and  N_2
REMARK    2  A    between atoms: N_2  and  C_3
REMARK    3  A    between atoms: N_2  and  S_4
REMARK    4  A    between atoms: S_4  and  C_7
REMARK    5  A    between atoms: C_10  and  C_11
REMARK    6  A    between atoms: C_11  and  N_12
REMARK    7  A    between atoms: C_16  and  C_17
REMARK    8  A    between atoms: C_17  and  O_18
REMARK                            x       y       z     vdW  Elec       q    Type
REMARK                         _______ _______ _______ _____ _____    ______ ____
ROOT
ATOM      1  C   UNL     1       2.848   4.758  18.352  0.00  0.00    +0.000 A 
ATOM      2  C   UNL     1       2.883   6.024  18.920  0.00  0.00    +0.000 A 
ATOM      3  C   UNL     1       3.572   6.872  18.032  0.00  0.00    +0.000 A 
ATOM      4  C   UNL     1       4.124   6.057  17.064  0.00  0.00    +0.000 A 
ATOM      5  O   UNL     1       3.693   4.767  17.241  0.00  0.00    +0.000 OA
ENDROOT
BRANCH   1   6
ATOM      6  S   UNL     1       1.950   3.305  18.924  0.00  0.00    +0.000 S 
ATOM      7  O   UNL     1       1.794   2.469  17.749  0.00  0.00    +0.000 OA
ATOM      8  O   UNL     1       0.814   3.841  19.630  0.00  0.00    +0.000 OA
BRANCH   6  10
ATOM      9  C   UNL     1       4.392   2.683  19.802  0.00  0.00    +0.000 C 
ATOM     10  N   UNL     1       2.951   2.519  20.050  0.00  0.00    +0.000 NA
ATOM     11  C   UNL     1       2.573   2.754  21.458  0.00  0.00    +0.000 C 
ENDBRANCH   6  10
ENDBRANCH   1   6
BRANCH   4  12
ATOM     12  C   UNL     1       5.092   6.333  15.950  0.00  0.00    +0.000 C 
BRANCH  12  13
ATOM     13  N   UNL     1       6.525   6.445  16.274  0.00  0.00    +0.000 NA
ATOM     14  C   UNL     1       7.267   5.201  16.047  0.00  0.00    +0.000 C 
ATOM     15  C   UNL     1       7.327   4.495  17.387  0.00  0.00    +0.000 C 
ATOM     16  C   UNL     1       7.365   5.629  18.397  0.00  0.00    +0.000 C 
ATOM     17  C   UNL     1       6.810   6.863  17.669  0.00  0.00    +0.000 C 
BRANCH  17  18
ATOM     18  C   UNL     1       7.850   8.008  17.711  0.00  0.00    +0.000 C 
BRANCH  18  19
ATOM     19  O   UNL     1       8.669   7.928  18.874  0.00  0.00    +0.000 OA
ATOM     20  H   UNL     1       8.053   7.992  19.628  0.00  0.00    +0.000 HD
ENDBRANCH  18  19
ENDBRANCH  17  18
ENDBRANCH  12  13
ENDBRANCH   4  12
TORSDOF 6
ENDMDL
MODEL 9
REMARK VINA RESULT:      -6.5      1.323      1.628
REMARK  Name = 
REMARK  8 active torsions:
REMARK  status: ('A' for Active; 'I' for Inactive)
REMARK    1  A    between atoms: C_1  and  N_2
REMARK    2  A    between atoms: N_2  and  C_3
REMARK    3  A    between atoms: N_2  and  S_4
REMARK    4  A    between atoms: S_4  and  C_7
REMARK    5  A    between atoms: C_10  and  C_11
REMARK    6  A    between atoms: C_11  and  N_12
REMARK    7  A    between atoms: C_16  and  C_17
REMARK    8  A    between atoms: C_17  and  O_18
REMARK                            x       y       z     vdW  Elec       q    Type
REMARK                         _______ _______ _______ _____ _____    ______ ____
ROOT
ATOM      1  C   UNL     1       4.298   6.234  17.173  0.00  0.00    +0.000 A 
ATOM      2  C   UNL     1       3.545   7.184  17.849  0.00  0.00    +0.000 A 
ATOM      3  C   UNL     1       2.496   6.513  18.505  0.00  0.00    +0.000 A 
ATOM      4  C   UNL     1       2.510   5.215  18.034  0.00  0.00    +0.000 A 
ATOM      5  O   UNL     1       3.601   5.025  17.223  0.00  0.00    +0.000 OA
ENDROOT
BRANCH   1   6
ATOM      6  S   UNL     1       5.864   6.458  16.313  0.00  0.00    +0.000 S 
ATOM      7  O   UNL     1       6.538   7.527  17.024  0.00  0.00    +0.000 OA
ATOM      8  O   UNL     1       5.496   6.585  14.925  0.00  0.00    +0.000 OA
BRANCH   6  10
ATOM      9  C   UNL     1       6.914   4.583  17.894  0.00  0.00    +0.000 C 
ATOM     10  N   UNL     1       6.740   5.014  16.499  0.00  0.00    +0.000 NA
ATOM     11  C   UNL     1       6.299   3.924  15.604  0.00  0.00    +0.000 C 
ENDBRANCH   6  10
ENDBRANCH   1   6
BRANCH   4  12
ATOM     12  C   UNL     1       1.559   4.068  18.220  0.00  0.00    +0.000 C 
BRANCH  12  13
ATOM     13  N   UNL     1       2.007   2.900  18.999  0.00  0.00    +0.000 NA
ATOM     14  C   UNL     1       0.953   2.332  19.846  0.00  0.00    +0.000 C 
ATOM     15  C   UNL     1       1.140   2.943  21.219  0.00  0.00    +0.000 C 
ATOM     16  C   UNL     1       2.640   3.154  21.326  0.00  0.00    +0.000 C 
ATOM     17  C   UNL     1       3.170   3.160  19.883  0.00  0.00    +0.000 C 
BRANCH  17  18
ATOM     18  C   UNL     1       4.256   2.069  19.720  0.00  0.00    +0.000 C 
BRANCH  18  19
ATOM     19  O   UNL     1       4.197   1.462  18.433  0.00  0.00    +0.000 OA
ATOM     20  H   UNL     1       4.296   2.195  17.797  0.00  0.00    +0.000 HD
ENDBRANCH  18  19
ENDBRANCH  17  18
ENDBRANCH  12  13
ENDBRANCH   4  12
TORSDOF 6
ENDMDL
