MODEL 1
REMARK VINA RESULT:      -8.5      0.000      0.000
REMARK  Name = 
REMARK  9 active torsions:
REMARK  status: ('A' for Active; 'I' for Inactive)
REMARK    1  A    between atoms: S_2  and  C_4
REMARK    2  A    between atoms: S_2  and  N_15
REMARK    3  A    between atoms: C_7  and  O_8
REMARK    4  A    between atoms: O_8  and  C_9
REMARK    5  A    between atoms: N_15  and  C_16
REMARK    6  A    between atoms: N_15  and  C_23
REMARK    7  A    between atoms: C_16  and  C_17
REMARK    8  A    between atoms: C_26  and  O_27
REMARK    9  A    between atoms: O_27  and  C_28
REMARK                            x       y       z     vdW  Elec       q    Type
REMARK                         _______ _______ _______ _____ _____    ______ ____
ROOT
ATOM      1  N   UNL     1       0.038  11.246  19.554  0.00  0.00    +0.000 N 
ENDROOT
BRANCH   1   2
ATOM      2  C   UNL     1       0.780  10.020  19.616  0.00  0.00    +0.000 A 
ATOM      3  C   UNL     1       1.449   9.581  18.470  0.00  0.00    +0.000 A 
ATOM      4  C   UNL     1       2.162   8.375  18.484  0.00  0.00    +0.000 A 
ATOM      5  C   UNL     1       2.189   7.594  19.641  0.00  0.00    +0.000 A 
ATOM      6  C   UNL     1       1.462   8.002  20.763  0.00  0.00    +0.000 A 
ATOM      7  C   UNL     1       0.794   9.228  20.762  0.00  0.00    +0.000 A 
BRANCH   5   8
ATOM      8  O   UNL     1       2.905   6.418  19.571  0.00  0.00    +0.000 OA
BRANCH   8   9
ATOM      9  C   UNL     1       2.230   5.216  19.546  0.00  0.00    +0.000 A 
ATOM     10  C   UNL     1       2.000   4.659  18.286  0.00  0.00    +0.000 A 
ATOM     11  C   UNL     1       1.316   3.446  18.171  0.00  0.00    +0.000 A 
ATOM     12  C   UNL     1       0.864   2.788  19.314  0.00  0.00    +0.000 A 
ATOM     13  C   UNL     1       1.123   3.324  20.574  0.00  0.00    +0.000 A 
ATOM     14  C   UNL     1       1.831   4.522  20.692  0.00  0.00    +0.000 A 
ENDBRANCH   8   9
ENDBRANCH   5   8
ENDBRANCH   1   2
BRANCH   1  16
ATOM     15  O   UNL     1       0.596  13.753  19.803  0.00  0.00    +0.000 OA
ATOM     16  S   UNL     1       0.538  12.520  20.560  0.00  0.00    +0.000 S 
ATOM     17  O   UNL     1       1.692  12.070  21.315  0.00  0.00    +0.000 OA
BRANCH  16  18
ATOM     18  C   UNL     1      -0.804  12.687  21.727  0.00  0.00    +0.000 A 
ATOM     19  C   UNL     1      -1.433  13.924  21.890  0.00  0.00    +0.000 A 
ATOM     20  C   UNL     1      -2.506  14.030  22.777  0.00  0.00    +0.000 A 
ATOM     21  C   UNL     1      -2.966  12.915  23.488  0.00  0.00    +0.000 A 
ATOM     22  C   UNL     1      -2.317  11.690  23.333  0.00  0.00    +0.000 A 
ATOM     23  C   UNL     1      -1.263  11.564  22.422  0.00  0.00    +0.000 A 
BRANCH  21  24
ATOM     24  O   UNL     1      -4.017  13.172  24.314  0.00  0.00    +0.000 OA
BRANCH  24  25
ATOM     25  C   UNL     1      -5.346  13.139  23.810  0.00  0.00    +0.000 C 
ATOM     26  F   UNL     1      -6.201  12.400  24.544  0.00  0.00    +0.000 F 
ATOM     27  F   UNL     1      -5.820  14.400  23.724  0.00  0.00    +0.000 F 
ATOM     28  F   UNL     1      -5.315  12.616  22.563  0.00  0.00    +0.000 F 
ENDBRANCH  24  25
ENDBRANCH  21  24
ENDBRANCH  16  18
ENDBRANCH   1  16
BRANCH   1  29
ATOM     29  C   UNL     1      -0.600  11.604  18.266  0.00  0.00    +0.000 C 
BRANCH  29  30
ATOM     30  C   UNL     1      -2.080  11.290  18.272  0.00  0.00    +0.000 A 
ATOM     31  C   UNL     1      -2.567  10.200  17.535  0.00  0.00    +0.000 A 
ATOM     32  C   UNL     1      -3.937   9.951  17.458  0.00  0.00    +0.000 A 
ATOM     33  C   UNL     1      -4.833  10.778  18.131  0.00  0.00    +0.000 A 
ATOM     34  C   UNL     1      -4.359  11.839  18.900  0.00  0.00    +0.000 A 
ATOM     35  C   UNL     1      -2.988  12.095  18.975  0.00  0.00    +0.000 A 
ENDBRANCH  29  30
ENDBRANCH   1  29
TORSDOF 9
ENDMDL
MODEL 2
REMARK VINA RESULT:      -8.0      0.629      1.435
REMARK  Name = 
REMARK  9 active torsions:
REMARK  status: ('A' for Active; 'I' for Inactive)
REMARK    1  A    between atoms: S_2  and  C_4
REMARK    2  A    between atoms: S_2  and  N_15
REMARK    3  A    between atoms: C_7  and  O_8
REMARK    4  A    between atoms: O_8  and  C_9
REMARK    5  A    between atoms: N_15  and  C_16
REMARK    6  A    between atoms: N_15  and  C_23
REMARK    7  A    between atoms: C_16  and  C_17
REMARK    8  A    between atoms: C_26  and  O_27
REMARK    9  A    between atoms: O_27  and  C_28
REMARK                            x       y       z     vdW  Elec       q    Type
REMARK                         _______ _______ _______ _____ _____    ______ ____
ROOT
ATOM      1  N   UNL     1      -0.097  11.399  19.274  0.00  0.00    +0.000 N 
ENDROOT
BRANCH   1   2
ATOM      2  C   UNL     1       0.654  10.177  19.256  0.00  0.00    +0.000 A 
ATOM      3  C   UNL     1       0.708   9.406  20.421  0.00  0.00    +0.000 A 
ATOM      4  C   UNL     1       1.453   8.220  20.451  0.00  0.00    +0.000 A 
ATOM      5  C   UNL     1       2.164   7.813  19.319  0.00  0.00    +0.000 A 
ATOM      6  C   UNL     1       2.163   8.622  18.180  0.00  0.00    +0.000 A 
ATOM      7  C   UNL     1       1.379   9.777  18.136  0.00  0.00    +0.000 A 
BRANCH   5   8
ATOM      8  O   UNL     1       2.879   6.640  19.433  0.00  0.00    +0.000 OA
BRANCH   8   9
ATOM      9  C   UNL     1       2.208   5.436  19.444  0.00  0.00    +0.000 A 
ATOM     10  C   UNL     1       1.979   4.840  18.202  0.00  0.00    +0.000 A 
ATOM     11  C   UNL     1       1.298   3.623  18.124  0.00  0.00    +0.000 A 
ATOM     12  C   UNL     1       0.848   2.999  19.287  0.00  0.00    +0.000 A 
ATOM     13  C   UNL     1       1.104   3.574  20.530  0.00  0.00    +0.000 A 
ATOM     14  C   UNL     1       1.809   4.777  20.611  0.00  0.00    +0.000 A 
ENDBRANCH   8   9
ENDBRANCH   5   8
ENDBRANCH   1   2
BRANCH   1  16
ATOM     15  O   UNL     1       0.325  13.856  19.940  0.00  0.00    +0.000 OA
ATOM     16  S   UNL     1       0.258  12.522  20.498  0.00  0.00    +0.000 S 
ATOM     17  O   UNL     1       1.361  12.000  21.281  0.00  0.00    +0.000 OA
BRANCH  16  18
ATOM     18  C   UNL     1      -1.186  12.469  21.550  0.00  0.00    +0.000 A 
ATOM     19  C   UNL     1      -1.243  11.557  22.607  0.00  0.00    +0.000 A 
ATOM     20  C   UNL     1      -2.360  11.554  23.443  0.00  0.00    +0.000 A 
ATOM     21  C   UNL     1      -3.410  12.460  23.247  0.00  0.00    +0.000 A 
ATOM     22  C   UNL     1      -3.351  13.352  22.176  0.00  0.00    +0.000 A 
ATOM     23  C   UNL     1      -2.222  13.386  21.351  0.00  0.00    +0.000 A 
BRANCH  21  24
ATOM     24  O   UNL     1      -4.430  12.338  24.140  0.00  0.00    +0.000 OA
BRANCH  24  25
ATOM     25  C   UNL     1      -5.677  12.974  23.889  0.00  0.00    +0.000 C 
ATOM     26  F   UNL     1      -5.641  14.319  23.968  0.00  0.00    +0.000 F 
ATOM     27  F   UNL     1      -6.120  12.619  22.664  0.00  0.00    +0.000 F 
ATOM     28  F   UNL     1      -6.571  12.532  24.804  0.00  0.00    +0.000 F 
ENDBRANCH  24  25
ENDBRANCH  21  24
ENDBRANCH  16  18
ENDBRANCH   1  16
BRANCH   1  29
ATOM     29  C   UNL     1      -0.583  11.931  17.981  0.00  0.00    +0.000 C 
BRANCH  29  30
ATOM     30  C   UNL     1      -1.995  11.474  17.687  0.00  0.00    +0.000 A 
ATOM     31  C   UNL     1      -2.296  10.882  16.450  0.00  0.00    +0.000 A 
ATOM     32  C   UNL     1      -3.609  10.538  16.129  0.00  0.00    +0.000 A 
ATOM     33  C   UNL     1      -4.632  10.765  17.047  0.00  0.00    +0.000 A 
ATOM     34  C   UNL     1      -4.339  11.313  18.294  0.00  0.00    +0.000 A 
ATOM     35  C   UNL     1      -3.027  11.665  18.616  0.00  0.00    +0.000 A 
ENDBRANCH  29  30
ENDBRANCH   1  29
TORSDOF 9
ENDMDL
MODEL 3
REMARK VINA RESULT:      -8.0      0.586      1.434
REMARK  Name = 
REMARK  9 active torsions:
REMARK  status: ('A' for Active; 'I' for Inactive)
REMARK    1  A    between atoms: S_2  and  C_4
REMARK    2  A    between atoms: S_2  and  N_15
REMARK    3  A    between atoms: C_7  and  O_8
REMARK    4  A    between atoms: O_8  and  C_9
REMARK    5  A    between atoms: N_15  and  C_16
REMARK    6  A    between atoms: N_15  and  C_23
REMARK    7  A    between atoms: C_16  and  C_17
REMARK    8  A    between atoms: C_26  and  O_27
REMARK    9  A    between atoms: O_27  and  C_28
REMARK                            x       y       z     vdW  Elec       q    Type
REMARK                         _______ _______ _______ _____ _____    ______ ____
ROOT
ATOM      1  N   UNL     1       0.253  10.953  19.677  0.00  0.00    +0.000 N 
ENDROOT
BRANCH   1   2
ATOM      2  C   UNL     1       0.944   9.720  19.432  0.00  0.00    +0.000 A 
ATOM      3  C   UNL     1       1.066   8.800  20.477  0.00  0.00    +0.000 A 
ATOM      4  C   UNL     1       1.757   7.597  20.284  0.00  0.00    +0.000 A 
ATOM      5  C   UNL     1       2.346   7.321  19.048  0.00  0.00    +0.000 A 
ATOM      6  C   UNL     1       2.281   8.273  18.028  0.00  0.00    +0.000 A 
ATOM      7  C   UNL     1       1.549   9.449  18.207  0.00  0.00    +0.000 A 
BRANCH   5   8
ATOM      8  O   UNL     1       3.015   6.120  18.942  0.00  0.00    +0.000 OA
BRANCH   8   9
ATOM      9  C   UNL     1       2.379   4.955  19.313  0.00  0.00    +0.000 A 
ATOM     10  C   UNL     1       1.804   4.206  18.284  0.00  0.00    +0.000 A 
ATOM     11  C   UNL     1       1.132   3.016  18.574  0.00  0.00    +0.000 A 
ATOM     12  C   UNL     1       1.036   2.573  19.893  0.00  0.00    +0.000 A 
ATOM     13  C   UNL     1       1.639   3.300  20.918  0.00  0.00    +0.000 A 
ATOM     14  C   UNL     1       2.334   4.475  20.625  0.00  0.00    +0.000 A 
ENDBRANCH   8   9
ENDBRANCH   5   8
ENDBRANCH   1   2
BRANCH   1  16
ATOM     15  O   UNL     1       1.455  13.102  20.452  0.00  0.00    +0.000 OA
ATOM     16  S   UNL     1       0.799  11.917  20.965  0.00  0.00    +0.000 S 
ATOM     17  O   UNL     1       1.480  11.057  21.913  0.00  0.00    +0.000 OA
BRANCH  16  18
ATOM     18  C   UNL     1      -0.710  12.458  21.755  0.00  0.00    +0.000 A 
ATOM     19  C   UNL     1      -1.392  11.592  22.614  0.00  0.00    +0.000 A 
ATOM     20  C   UNL     1      -2.548  12.042  23.254  0.00  0.00    +0.000 A 
ATOM     21  C   UNL     1      -3.018  13.348  23.061  0.00  0.00    +0.000 A 
ATOM     22  C   UNL     1      -2.340  14.195  22.185  0.00  0.00    +0.000 A 
ATOM     23  C   UNL     1      -1.163  13.766  21.563  0.00  0.00    +0.000 A 
BRANCH  21  24
ATOM     24  O   UNL     1      -4.155  13.642  23.750  0.00  0.00    +0.000 OA
BRANCH  24  25
ATOM     25  C   UNL     1      -5.414  13.174  23.282  0.00  0.00    +0.000 C 
ATOM     26  F   UNL     1      -5.375  12.597  22.065  0.00  0.00    +0.000 F 
ATOM     27  F   UNL     1      -5.917  12.290  24.170  0.00  0.00    +0.000 F 
ATOM     28  F   UNL     1      -6.259  14.228  23.212  0.00  0.00    +0.000 F 
ENDBRANCH  24  25
ENDBRANCH  21  24
ENDBRANCH  16  18
ENDBRANCH   1  16
BRANCH   1  29
ATOM     29  C   UNL     1      -0.360  11.645  18.520  0.00  0.00    +0.000 C 
BRANCH  29  30
ATOM     30  C   UNL     1      -1.807  11.244  18.336  0.00  0.00    +0.000 A 
ATOM     31  C   UNL     1      -2.127  10.105  17.582  0.00  0.00    +0.000 A 
ATOM     32  C   UNL     1      -3.458   9.773  17.329  0.00  0.00    +0.000 A 
ATOM     33  C   UNL     1      -4.483  10.565  17.841  0.00  0.00    +0.000 A 
ATOM     34  C   UNL     1      -4.178  11.675  18.626  0.00  0.00    +0.000 A 
ATOM     35  C   UNL     1      -2.846  12.014  18.877  0.00  0.00    +0.000 A 
ENDBRANCH  29  30
ENDBRANCH   1  29
TORSDOF 9
ENDMDL
MODEL 4
REMARK VINA RESULT:      -7.9      0.883      1.946
REMARK  Name = 
REMARK  9 active torsions:
REMARK  status: ('A' for Active; 'I' for Inactive)
REMARK    1  A    between atoms: S_2  and  C_4
REMARK    2  A    between atoms: S_2  and  N_15
REMARK    3  A    between atoms: C_7  and  O_8
REMARK    4  A    between atoms: O_8  and  C_9
REMARK    5  A    between atoms: N_15  and  C_16
REMARK    6  A    between atoms: N_15  and  C_23
REMARK    7  A    between atoms: C_16  and  C_17
REMARK    8  A    between atoms: C_26  and  O_27
REMARK    9  A    between atoms: O_27  and  C_28
REMARK                            x       y       z     vdW  Elec       q    Type
REMARK                         _______ _______ _______ _____ _____    ______ ____
ROOT
ATOM      1  N   UNL     1       0.477  10.733  19.716  0.00  0.00    +0.000 N 
ENDROOT
BRANCH   1   2
ATOM      2  C   UNL     1       1.163   9.533  19.331  0.00  0.00    +0.000 A 
ATOM      3  C   UNL     1       1.240   8.481  20.248  0.00  0.00    +0.000 A 
ATOM      4  C   UNL     1       1.924   7.303  19.919  0.00  0.00    +0.000 A 
ATOM      5  C   UNL     1       2.553   7.185  18.677  0.00  0.00    +0.000 A 
ATOM      6  C   UNL     1       2.533   8.266  17.791  0.00  0.00    +0.000 A 
ATOM      7  C   UNL     1       1.808   9.419  18.102  0.00  0.00    +0.000 A 
BRANCH   5   8
ATOM      8  O   UNL     1       3.213   6.000  18.434  0.00  0.00    +0.000 OA
BRANCH   8   9
ATOM      9  C   UNL     1       2.630   4.810  18.814  0.00  0.00    +0.000 A 
ATOM     10  C   UNL     1       3.036   4.283  20.042  0.00  0.00    +0.000 A 
ATOM     11  C   UNL     1       2.501   3.077  20.498  0.00  0.00    +0.000 A 
ATOM     12  C   UNL     1       1.557   2.397  19.729  0.00  0.00    +0.000 A 
ATOM     13  C   UNL     1       1.124   2.937  18.520  0.00  0.00    +0.000 A 
ATOM     14  C   UNL     1       1.638   4.157  18.077  0.00  0.00    +0.000 A 
ENDBRANCH   8   9
ENDBRANCH   5   8
ENDBRANCH   1   2
BRANCH   1  16
ATOM     15  O   UNL     1       1.833  12.605  20.864  0.00  0.00    +0.000 OA
ATOM     16  S   UNL     1       0.962  11.487  21.159  0.00  0.00    +0.000 S 
ATOM     17  O   UNL     1       1.385  10.455  22.086  0.00  0.00    +0.000 OA
BRANCH  16  18
ATOM     18  C   UNL     1      -0.557  12.167  21.809  0.00  0.00    +0.000 A 
ATOM     19  C   UNL     1      -1.389  11.375  22.606  0.00  0.00    +0.000 A 
ATOM     20  C   UNL     1      -2.552  11.933  23.138  0.00  0.00    +0.000 A 
ATOM     21  C   UNL     1      -2.885  13.272  22.900  0.00  0.00    +0.000 A 
ATOM     22  C   UNL     1      -2.058  14.047  22.087  0.00  0.00    +0.000 A 
ATOM     23  C   UNL     1      -0.873  13.508  21.574  0.00  0.00    +0.000 A 
BRANCH  21  24
ATOM     24  O   UNL     1      -4.048  13.673  23.483  0.00  0.00    +0.000 OA
BRANCH  24  25
ATOM     25  C   UNL     1      -5.295  13.366  22.873  0.00  0.00    +0.000 C 
ATOM     26  F   UNL     1      -5.192  12.800  21.654  0.00  0.00    +0.000 F 
ATOM     27  F   UNL     1      -5.993  12.540  23.681  0.00  0.00    +0.000 F 
ATOM     28  F   UNL     1      -5.996  14.514  22.737  0.00  0.00    +0.000 F 
ENDBRANCH  24  25
ENDBRANCH  21  24
ENDBRANCH  16  18
ENDBRANCH   1  16
BRANCH   1  29
ATOM     29  C   UNL     1      -0.059  11.598  18.641  0.00  0.00    +0.000 C 
BRANCH  29  30
ATOM     30  C   UNL     1      -1.486  11.236  18.295  0.00  0.00    +0.000 A 
ATOM     31  C   UNL     1      -2.547  11.986  18.824  0.00  0.00    +0.000 A 
ATOM     32  C   UNL     1      -3.869  11.611  18.587  0.00  0.00    +0.000 A 
ATOM     33  C   UNL     1      -4.145  10.493  17.803  0.00  0.00    +0.000 A 
ATOM     34  C   UNL     1      -3.100   9.764  17.237  0.00  0.00    +0.000 A 
ATOM     35  C   UNL     1      -1.775  10.134  17.478  0.00  0.00    +0.000 A 
ENDBRANCH  29  30
ENDBRANCH   1  29
TORSDOF 9
ENDMDL
MODEL 5
REMARK VINA RESULT:      -7.9      1.977      2.769
REMARK  Name = 
REMARK  9 active torsions:
REMARK  status: ('A' for Active; 'I' for Inactive)
REMARK    1  A    between atoms: S_2  and  C_4
REMARK    2  A    between atoms: S_2  and  N_15
REMARK    3  A    between atoms: C_7  and  O_8
REMARK    4  A    between atoms: O_8  and  C_9
REMARK    5  A    between atoms: N_15  and  C_16
REMARK    6  A    between atoms: N_15  and  C_23
REMARK    7  A    between atoms: C_16  and  C_17
REMARK    8  A    between atoms: C_26  and  O_27
REMARK    9  A    between atoms: O_27  and  C_28
REMARK                            x       y       z     vdW  Elec       q    Type
REMARK                         _______ _______ _______ _____ _____    ______ ____
ROOT
ATOM      1  N   UNL     1       0.550  10.699  19.795  0.00  0.00    +0.000 N 
ENDROOT
BRANCH   1   2
ATOM      2  C   UNL     1       1.280   9.547  19.349  0.00  0.00    +0.000 A 
ATOM      3  C   UNL     1       1.829   9.557  18.064  0.00  0.00    +0.000 A 
ATOM      4  C   UNL     1       2.525   8.441  17.582  0.00  0.00    +0.000 A 
ATOM      5  C   UNL     1       2.655   7.302  18.381  0.00  0.00    +0.000 A 
ATOM      6  C   UNL     1       2.046   7.270  19.638  0.00  0.00    +0.000 A 
ATOM      7  C   UNL     1       1.396   8.403  20.135  0.00  0.00    +0.000 A 
BRANCH   5   8
ATOM      8  O   UNL     1       3.346   6.244  17.831  0.00  0.00    +0.000 OA
BRANCH   8   9
ATOM      9  C   UNL     1       4.716   6.182  17.974  0.00  0.00    +0.000 A 
ATOM     10  C   UNL     1       5.196   5.428  19.047  0.00  0.00    +0.000 A 
ATOM     11  C   UNL     1       6.571   5.321  19.268  0.00  0.00    +0.000 A 
ATOM     12  C   UNL     1       7.468   5.965  18.415  0.00  0.00    +0.000 A 
ATOM     13  C   UNL     1       6.993   6.690  17.324  0.00  0.00    +0.000 A 
ATOM     14  C   UNL     1       5.620   6.774  17.086  0.00  0.00    +0.000 A 
ENDBRANCH   8   9
ENDBRANCH   5   8
ENDBRANCH   1   2
BRANCH   1  16
ATOM     15  O   UNL     1       1.913  12.488  21.061  0.00  0.00    +0.000 OA
ATOM     16  S   UNL     1       1.000  11.387  21.282  0.00  0.00    +0.000 S 
ATOM     17  O   UNL     1       1.357  10.310  22.186  0.00  0.00    +0.000 OA
BRANCH  16  18
ATOM     18  C   UNL     1      -0.523  12.089  21.899  0.00  0.00    +0.000 A 
ATOM     19  C   UNL     1      -0.876  13.396  21.554  0.00  0.00    +0.000 A 
ATOM     20  C   UNL     1      -2.087  13.918  22.012  0.00  0.00    +0.000 A 
ATOM     21  C   UNL     1      -2.954  13.145  22.794  0.00  0.00    +0.000 A 
ATOM     22  C   UNL     1      -2.582  11.848  23.150  0.00  0.00    +0.000 A 
ATOM     23  C   UNL     1      -1.386  11.305  22.669  0.00  0.00    +0.000 A 
BRANCH  21  24
ATOM     24  O   UNL     1      -4.095  13.787  23.167  0.00  0.00    +0.000 OA
BRANCH  24  25
ATOM     25  C   UNL     1      -5.360  13.303  22.733  0.00  0.00    +0.000 C 
ATOM     26  F   UNL     1      -5.318  12.572  21.601  0.00  0.00    +0.000 F 
ATOM     27  F   UNL     1      -5.911  12.558  23.715  0.00  0.00    +0.000 F 
ATOM     28  F   UNL     1      -6.167  14.365  22.508  0.00  0.00    +0.000 F 
ENDBRANCH  24  25
ENDBRANCH  21  24
ENDBRANCH  16  18
ENDBRANCH   1  16
BRANCH   1  29
ATOM     29  C   UNL     1      -0.011  11.604  18.767  0.00  0.00    +0.000 C 
BRANCH  29  30
ATOM     30  C   UNL     1      -1.422  11.213  18.391  0.00  0.00    +0.000 A 
ATOM     31  C   UNL     1      -2.508  11.955  18.881  0.00  0.00    +0.000 A 
ATOM     32  C   UNL     1      -3.818  11.555  18.617  0.00  0.00    +0.000 A 
ATOM     33  C   UNL     1      -4.056  10.420  17.846  0.00  0.00    +0.000 A 
ATOM     34  C   UNL     1      -2.987   9.699  17.319  0.00  0.00    +0.000 A 
ATOM     35  C   UNL     1      -1.674  10.094  17.586  0.00  0.00    +0.000 A 
ENDBRANCH  29  30
ENDBRANCH   1  29
TORSDOF 9
ENDMDL
MODEL 6
REMARK VINA RESULT:      -7.8      1.690      1.937
REMARK  Name = 
REMARK  9 active torsions:
REMARK  status: ('A' for Active; 'I' for Inactive)
REMARK    1  A    between atoms: S_2  and  C_4
REMARK    2  A    between atoms: S_2  and  N_15
REMARK    3  A    between atoms: C_7  and  O_8
REMARK    4  A    between atoms: O_8  and  C_9
REMARK    5  A    between atoms: N_15  and  C_16
REMARK    6  A    between atoms: N_15  and  C_23
REMARK    7  A    between atoms: C_16  and  C_17
REMARK    8  A    between atoms: C_26  and  O_27
REMARK    9  A    between atoms: O_27  and  C_28
REMARK                            x       y       z     vdW  Elec       q    Type
REMARK                         _______ _______ _______ _____ _____    ______ ____
ROOT
ATOM      1  N   UNL     1      -0.146  11.032  20.173  0.00  0.00    +0.000 N 
ENDROOT
BRANCH   1   2
ATOM      2  C   UNL     1       0.620   9.821  20.104  0.00  0.00    +0.000 A 
ATOM      3  C   UNL     1       1.368   9.564  18.952  0.00  0.00    +0.000 A 
ATOM      4  C   UNL     1       2.107   8.380  18.836  0.00  0.00    +0.000 A 
ATOM      5  C   UNL     1       2.082   7.438  19.868  0.00  0.00    +0.000 A 
ATOM      6  C   UNL     1       1.279   7.667  20.988  0.00  0.00    +0.000 A 
ATOM      7  C   UNL     1       0.584   8.871  21.123  0.00  0.00    +0.000 A 
BRANCH   5   8
ATOM      8  O   UNL     1       2.829   6.296  19.674  0.00  0.00    +0.000 OA
BRANCH   8   9
ATOM      9  C   UNL     1       2.190   5.077  19.583  0.00  0.00    +0.000 A 
ATOM     10  C   UNL     1       1.974   4.582  18.296  0.00  0.00    +0.000 A 
ATOM     11  C   UNL     1       1.326   3.358  18.116  0.00  0.00    +0.000 A 
ATOM     12  C   UNL     1       0.896   2.626  19.222  0.00  0.00    +0.000 A 
ATOM     13  C   UNL     1       1.140   3.101  20.509  0.00  0.00    +0.000 A 
ATOM     14  C   UNL     1       1.813   4.311  20.690  0.00  0.00    +0.000 A 
ENDBRANCH   8   9
ENDBRANCH   5   8
ENDBRANCH   1   2
BRANCH   1  16
ATOM     15  O   UNL     1       1.124  12.918  21.393  0.00  0.00    +0.000 OA
ATOM     16  S   UNL     1       0.024  11.991  21.564  0.00  0.00    +0.000 S 
ATOM     17  O   UNL     1      -0.024  11.119  22.721  0.00  0.00    +0.000 OA
BRANCH  16  18
ATOM     18  C   UNL     1      -1.476  12.963  21.592  0.00  0.00    +0.000 A 
ATOM     19  C   UNL     1      -1.491  14.234  21.012  0.00  0.00    +0.000 A 
ATOM     20  C   UNL     1      -2.681  14.964  21.008  0.00  0.00    +0.000 A 
ATOM     21  C   UNL     1      -3.855  14.435  21.559  0.00  0.00    +0.000 A 
ATOM     22  C   UNL     1      -3.821  13.173  22.153  0.00  0.00    +0.000 A 
ATOM     23  C   UNL     1      -2.643  12.419  22.135  0.00  0.00    +0.000 A 
BRANCH  21  24
ATOM     24  O   UNL     1      -4.933  15.262  21.482  0.00  0.00    +0.000 OA
BRANCH  24  25
ATOM     25  C   UNL     1      -5.760  15.250  20.326  0.00  0.00    +0.000 C 
ATOM     26  F   UNL     1      -5.649  14.137  19.574  0.00  0.00    +0.000 F 
ATOM     27  F   UNL     1      -7.049  15.399  20.699  0.00  0.00    +0.000 F 
ATOM     28  F   UNL     1      -5.422  16.305  19.550  0.00  0.00    +0.000 F 
ENDBRANCH  24  25
ENDBRANCH  21  24
ENDBRANCH  16  18
ENDBRANCH   1  16
BRANCH   1  29
ATOM     29  C   UNL     1      -0.464  11.723  18.903  0.00  0.00    +0.000 C 
BRANCH  29  30
ATOM     30  C   UNL     1      -1.774  11.241  18.320  0.00  0.00    +0.000 A 
ATOM     31  C   UNL     1      -1.785  10.165  17.419  0.00  0.00    +0.000 A 
ATOM     32  C   UNL     1      -2.973   9.767  16.804  0.00  0.00    +0.000 A 
ATOM     33  C   UNL     1      -4.163  10.428  17.097  0.00  0.00    +0.000 A 
ATOM     34  C   UNL     1      -4.172  11.470  18.023  0.00  0.00    +0.000 A 
ATOM     35  C   UNL     1      -2.984  11.875  18.635  0.00  0.00    +0.000 A 
ENDBRANCH  29  30
ENDBRANCH   1  29
TORSDOF 9
ENDMDL
MODEL 7
REMARK VINA RESULT:      -7.8      1.942      2.755
REMARK  Name = 
REMARK  9 active torsions:
REMARK  status: ('A' for Active; 'I' for Inactive)
REMARK    1  A    between atoms: S_2  and  C_4
REMARK    2  A    between atoms: S_2  and  N_15
REMARK    3  A    between atoms: C_7  and  O_8
REMARK    4  A    between atoms: O_8  and  C_9
REMARK    5  A    between atoms: N_15  and  C_16
REMARK    6  A    between atoms: N_15  and  C_23
REMARK    7  A    between atoms: C_16  and  C_17
REMARK    8  A    between atoms: C_26  and  O_27
REMARK    9  A    between atoms: O_27  and  C_28
REMARK                            x       y       z     vdW  Elec       q    Type
REMARK                         _______ _______ _______ _____ _____    ______ ____
ROOT
ATOM      1  N   UNL     1       0.498  10.716  19.769  0.00  0.00    +0.000 N 
ENDROOT
BRANCH   1   2
ATOM      2  C   UNL     1       1.186   9.555  19.284  0.00  0.00    +0.000 A 
ATOM      3  C   UNL     1       1.373   8.475  20.152  0.00  0.00    +0.000 A 
ATOM      4  C   UNL     1       2.064   7.334  19.724  0.00  0.00    +0.000 A 
ATOM      5  C   UNL     1       2.589   7.280  18.430  0.00  0.00    +0.000 A 
ATOM      6  C   UNL     1       2.460   8.388  17.590  0.00  0.00    +0.000 A 
ATOM      7  C   UNL     1       1.727   9.504  18.002  0.00  0.00    +0.000 A 
BRANCH   5   8
ATOM      8  O   UNL     1       3.263   6.127  18.089  0.00  0.00    +0.000 OA
BRANCH   8   9
ATOM      9  C   UNL     1       4.636   6.088  18.199  0.00  0.00    +0.000 A 
ATOM     10  C   UNL     1       5.358   6.794  17.234  0.00  0.00    +0.000 A 
ATOM     11  C   UNL     1       6.754   6.799  17.268  0.00  0.00    +0.000 A 
ATOM     12  C   UNL     1       7.431   6.102  18.268  0.00  0.00    +0.000 A 
ATOM     13  C   UNL     1       6.714   5.425  19.252  0.00  0.00    +0.000 A 
ATOM     14  C   UNL     1       5.318   5.443  19.236  0.00  0.00    +0.000 A 
ENDBRANCH   8   9
ENDBRANCH   5   8
ENDBRANCH   1   2
BRANCH   1  16
ATOM     15  O   UNL     1       1.960  12.450  21.000  0.00  0.00    +0.000 OA
ATOM     16  S   UNL     1       1.017  11.379  21.244  0.00  0.00    +0.000 S 
ATOM     17  O   UNL     1       1.365  10.286  22.131  0.00  0.00    +0.000 OA
BRANCH  16  18
ATOM     18  C   UNL     1      -0.461  12.130  21.912  0.00  0.00    +0.000 A 
ATOM     19  C   UNL     1      -0.714  13.485  21.687  0.00  0.00    +0.000 A 
ATOM     20  C   UNL     1      -1.892  14.048  22.183  0.00  0.00    +0.000 A 
ATOM     21  C   UNL     1      -2.824  13.271  22.882  0.00  0.00    +0.000 A 
ATOM     22  C   UNL     1      -2.551  11.924  23.117  0.00  0.00    +0.000 A 
ATOM     23  C   UNL     1      -1.389  11.341  22.598  0.00  0.00    +0.000 A 
BRANCH  21  24
ATOM     24  O   UNL     1      -3.922  13.957  23.303  0.00  0.00    +0.000 OA
BRANCH  24  25
ATOM     25  C   UNL     1      -5.199  13.668  22.750  0.00  0.00    +0.000 C 
ATOM     26  F   UNL     1      -6.064  14.701  22.780  0.00  0.00    +0.000 F 
ATOM     27  F   UNL     1      -5.049  13.260  21.472  0.00  0.00    +0.000 F 
ATOM     28  F   UNL     1      -5.748  12.652  23.454  0.00  0.00    +0.000 F 
ENDBRANCH  24  25
ENDBRANCH  21  24
ENDBRANCH  16  18
ENDBRANCH   1  16
BRANCH   1  29
ATOM     29  C   UNL     1      -0.081  11.644  18.771  0.00  0.00    +0.000 C 
BRANCH  29  30
ATOM     30  C   UNL     1      -1.505  11.269  18.423  0.00  0.00    +0.000 A 
ATOM     31  C   UNL     1      -2.572  12.029  18.928  0.00  0.00    +0.000 A 
ATOM     32  C   UNL     1      -3.891  11.644  18.691  0.00  0.00    +0.000 A 
ATOM     33  C   UNL     1      -4.159  10.508  17.932  0.00  0.00    +0.000 A 
ATOM     34  C   UNL     1      -3.109   9.769  17.390  0.00  0.00    +0.000 A 
ATOM     35  C   UNL     1      -1.786  10.148  17.630  0.00  0.00    +0.000 A 
ENDBRANCH  29  30
ENDBRANCH   1  29
TORSDOF 9
ENDMDL
MODEL 8
REMARK VINA RESULT:      -7.7      2.467      3.480
REMARK  Name = 
REMARK  9 active torsions:
REMARK  status: ('A' for Active; 'I' for Inactive)
REMARK    1  A    between atoms: S_2  and  C_4
REMARK    2  A    between atoms: S_2  and  N_15
REMARK    3  A    between atoms: C_7  and  O_8
REMARK    4  A    between atoms: O_8  and  C_9
REMARK    5  A    between atoms: N_15  and  C_16
REMARK    6  A    between atoms: N_15  and  C_23
REMARK    7  A    between atoms: C_16  and  C_17
REMARK    8  A    between atoms: C_26  and  O_27
REMARK    9  A    between atoms: O_27  and  C_28
REMARK                            x       y       z     vdW  Elec       q    Type
REMARK                         _______ _______ _______ _____ _____    ______ ____
ROOT
ATOM      1  N   UNL     1       0.594  11.379  19.295  0.00  0.00    +0.000 N 
ENDROOT
BRANCH   1   2
ATOM      2  C   UNL     1       1.211  10.084  19.243  0.00  0.00    +0.000 A 
ATOM      3  C   UNL     1       1.754   9.648  18.031  0.00  0.00    +0.000 A 
ATOM      4  C   UNL     1       2.340   8.379  17.934  0.00  0.00    +0.000 A 
ATOM      5  C   UNL     1       2.365   7.535  19.047  0.00  0.00    +0.000 A 
ATOM      6  C   UNL     1       1.760   7.948  20.236  0.00  0.00    +0.000 A 
ATOM      7  C   UNL     1       1.221   9.232  20.345  0.00  0.00    +0.000 A 
BRANCH   5   8
ATOM      8  O   UNL     1       2.951   6.300  18.867  0.00  0.00    +0.000 OA
BRANCH   8   9
ATOM      9  C   UNL     1       2.245   5.162  19.192  0.00  0.00    +0.000 A 
ATOM     10  C   UNL     1       1.822   4.366  18.126  0.00  0.00    +0.000 A 
ATOM     11  C   UNL     1       1.093   3.199  18.368  0.00  0.00    +0.000 A 
ATOM     12  C   UNL     1       0.788   2.825  19.676  0.00  0.00    +0.000 A 
ATOM     13  C   UNL     1       1.238   3.599  20.744  0.00  0.00    +0.000 A 
ATOM     14  C   UNL     1       1.991   4.750  20.504  0.00  0.00    +0.000 A 
ENDBRANCH   8   9
ENDBRANCH   5   8
ENDBRANCH   1   2
BRANCH   1  16
ATOM     15  O   UNL     1      -1.626  10.130  18.882  0.00  0.00    +0.000 OA
ATOM     16  S   UNL     1      -1.079  11.464  19.016  0.00  0.00    +0.000 S 
ATOM     17  O   UNL     1      -1.313  12.457  17.985  0.00  0.00    +0.000 OA
BRANCH  16  18
ATOM     18  C   UNL     1      -1.726  12.142  20.537  0.00  0.00    +0.000 A 
ATOM     19  C   UNL     1      -2.469  13.325  20.510  0.00  0.00    +0.000 A 
ATOM     20  C   UNL     1      -3.000  13.822  21.702  0.00  0.00    +0.000 A 
ATOM     21  C   UNL     1      -2.814  13.143  22.913  0.00  0.00    +0.000 A 
ATOM     22  C   UNL     1      -2.053  11.974  22.930  0.00  0.00    +0.000 A 
ATOM     23  C   UNL     1      -1.543  11.450  21.738  0.00  0.00    +0.000 A 
BRANCH  21  24
ATOM     24  O   UNL     1      -3.389  13.747  23.988  0.00  0.00    +0.000 OA
BRANCH  24  25
ATOM     25  C   UNL     1      -2.654  14.695  24.751  0.00  0.00    +0.000 C 
ATOM     26  F   UNL     1      -2.862  14.619  26.081  0.00  0.00    +0.000 F 
ATOM     27  F   UNL     1      -1.336  14.539  24.505  0.00  0.00    +0.000 F 
ATOM     28  F   UNL     1      -3.013  15.935  24.349  0.00  0.00    +0.000 F 
ENDBRANCH  24  25
ENDBRANCH  21  24
ENDBRANCH  16  18
ENDBRANCH   1  16
BRANCH   1  29
ATOM     29  C   UNL     1       1.188  12.392  20.196  0.00  0.00    +0.000 C 
BRANCH  29  30
ATOM     30  C   UNL     1       1.608  13.632  19.439  0.00  0.00    +0.000 A 
ATOM     31  C   UNL     1       2.671  13.567  18.525  0.00  0.00    +0.000 A 
ATOM     32  C   UNL     1       3.129  14.719  17.886  0.00  0.00    +0.000 A 
ATOM     33  C   UNL     1       2.518  15.945  18.139  0.00  0.00    +0.000 A 
ATOM     34  C   UNL     1       1.435  16.015  19.013  0.00  0.00    +0.000 A 
ATOM     35  C   UNL     1       0.978  14.864  19.659  0.00  0.00    +0.000 A 
ENDBRANCH  29  30
ENDBRANCH   1  29
TORSDOF 9
ENDMDL
MODEL 9
REMARK VINA RESULT:      -7.7      3.887      4.913
REMARK  Name = 
REMARK  9 active torsions:
REMARK  status: ('A' for Active; 'I' for Inactive)
REMARK    1  A    between atoms: S_2  and  C_4
REMARK    2  A    between atoms: S_2  and  N_15
REMARK    3  A    between atoms: C_7  and  O_8
REMARK    4  A    between atoms: O_8  and  C_9
REMARK    5  A    between atoms: N_15  and  C_16
REMARK    6  A    between atoms: N_15  and  C_23
REMARK    7  A    between atoms: C_16  and  C_17
REMARK    8  A    between atoms: C_26  and  O_27
REMARK    9  A    between atoms: O_27  and  C_28
REMARK                            x       y       z     vdW  Elec       q    Type
REMARK                         _______ _______ _______ _____ _____    ______ ____
ROOT
ATOM      1  N   UNL     1      -0.321  10.970  19.734  0.00  0.00    +0.000 N 
ENDROOT
BRANCH   1   2
ATOM      2  C   UNL     1       0.474   9.782  19.851  0.00  0.00    +0.000 A 
ATOM      3  C   UNL     1       1.248   9.382  18.758  0.00  0.00    +0.000 A 
ATOM      4  C   UNL     1       2.017   8.212  18.825  0.00  0.00    +0.000 A 
ATOM      5  C   UNL     1       1.995   7.427  19.980  0.00  0.00    +0.000 A 
ATOM      6  C   UNL     1       1.166   7.794  21.044  0.00  0.00    +0.000 A 
ATOM      7  C   UNL     1       0.441   8.986  20.994  0.00  0.00    +0.000 A 
BRANCH   5   8
ATOM      8  O   UNL     1       2.770   6.288  19.963  0.00  0.00    +0.000 OA
BRANCH   8   9
ATOM      9  C   UNL     1       2.194   5.082  19.625  0.00  0.00    +0.000 A 
ATOM     10  C   UNL     1       1.685   4.319  20.679  0.00  0.00    +0.000 A 
ATOM     11  C   UNL     1       1.092   3.081  20.424  0.00  0.00    +0.000 A 
ATOM     12  C   UNL     1       1.004   2.604  19.117  0.00  0.00    +0.000 A 
ATOM     13  C   UNL     1       1.480   3.378  18.060  0.00  0.00    +0.000 A 
ATOM     14  C   UNL     1       2.047   4.629  18.311  0.00  0.00    +0.000 A 
ENDBRANCH   8   9
ENDBRANCH   5   8
ENDBRANCH   1   2
BRANCH   1  16
ATOM     15  O   UNL     1       0.589  11.577  22.072  0.00  0.00    +0.000 OA
ATOM     16  S   UNL     1      -0.306  12.057  21.040  0.00  0.00    +0.000 S 
ATOM     17  O   UNL     1      -1.679  12.393  21.361  0.00  0.00    +0.000 OA
BRANCH  16  18
ATOM     18  C   UNL     1       0.435  13.531  20.353  0.00  0.00    +0.000 A 
ATOM     19  C   UNL     1       1.822  13.697  20.397  0.00  0.00    +0.000 A 
ATOM     20  C   UNL     1       2.389  14.835  19.822  0.00  0.00    +0.000 A 
ATOM     21  C   UNL     1       1.591  15.798  19.190  0.00  0.00    +0.000 A 
ATOM     22  C   UNL     1       0.207  15.631  19.170  0.00  0.00    +0.000 A 
ATOM     23  C   UNL     1      -0.370  14.479  19.715  0.00  0.00    +0.000 A 
BRANCH  21  24
ATOM     24  O   UNL     1       2.285  16.851  18.677  0.00  0.00    +0.000 OA
BRANCH  24  25
ATOM     25  C   UNL     1       3.160  16.660  17.574  0.00  0.00    +0.000 C 
ATOM     26  F   UNL     1       4.457  16.911  17.843  0.00  0.00    +0.000 F 
ATOM     27  F   UNL     1       3.044  15.390  17.129  0.00  0.00    +0.000 F 
ATOM     28  F   UNL     1       2.778  17.492  16.579  0.00  0.00    +0.000 F 
ENDBRANCH  24  25
ENDBRANCH  21  24
ENDBRANCH  16  18
ENDBRANCH   1  16
BRANCH   1  29
ATOM     29  C   UNL     1      -0.529  11.533  18.381  0.00  0.00    +0.000 C 
BRANCH  29  30
ATOM     30  C   UNL     1      -1.886  11.161  17.826  0.00  0.00    +0.000 A 
ATOM     31  C   UNL     1      -1.984  10.209  16.800  0.00  0.00    +0.000 A 
ATOM     32  C   UNL     1      -3.218   9.920  16.216  0.00  0.00    +0.000 A 
ATOM     33  C   UNL     1      -4.368  10.566  16.664  0.00  0.00    +0.000 A 
ATOM     34  C   UNL     1      -4.289  11.482  17.711  0.00  0.00    +0.000 A 
ATOM     35  C   UNL     1      -3.054  11.778  18.293  0.00  0.00    +0.000 A 
ENDBRANCH  29  30
ENDBRANCH   1  29
TORSDOF 9
ENDMDL
