MODEL 1
REMARK VINA RESULT:      -7.2      0.000      0.000
REMARK  Name = 
REMARK  5 active torsions:
REMARK  status: ('A' for Active; 'I' for Inactive)
REMARK    1  A    between atoms: C_1  and  C_2
REMARK    2  A    between atoms: C_2  and  C_3
REMARK    3  A    between atoms: C_6  and  N_7
REMARK    4  A    between atoms: N_12  and  C_13
REMARK    5  A    between atoms: C_19  and  C_20
REMARK                            x       y       z     vdW  Elec       q    Type
REMARK                         _______ _______ _______ _____ _____    ______ ____
ROOT
ATOM      1  N   UNL     1      -1.916  12.374  22.747  0.00  0.00    +0.000 N 
ATOM      2  C   UNL     1      -1.162  11.223  22.803  0.00  0.00    +0.000 C 
ATOM      3  O   UNL     1      -1.396  10.170  23.379  0.00  0.00    +0.000 OA
ATOM      4  C   UNL     1       0.068  11.445  21.959  0.00  0.00    +0.000 C 
ATOM      5  O   UNL     1      -0.129  10.686  20.766  0.00  0.00    +0.000 OA
ATOM      6  N   UNL     1      -0.602  11.594  19.811  0.00  0.00    +0.000 N 
ATOM      7  C   UNL     1      -0.250  12.974  20.131  0.00  0.00    +0.000 C 
ATOM      8  C   UNL     1       0.060  12.910  21.613  0.00  0.00    +0.000 C 
ATOM      9  C   UNL     1      -1.140  13.426  22.330  0.00  0.00    +0.000 C 
ATOM     10  O   UNL     1      -1.336  14.628  22.476  0.00  0.00    +0.000 OA
ENDROOT
BRANCH   1  14
ATOM     11  C   UNL     1      -6.033  12.870  23.669  0.00  0.00    +0.000 A 
ATOM     12  C   UNL     1      -5.599  12.934  22.344  0.00  0.00    +0.000 A 
ATOM     13  C   UNL     1      -4.248  12.745  22.026  0.00  0.00    +0.000 A 
ATOM     14  C   UNL     1      -3.304  12.470  23.025  0.00  0.00    +0.000 A 
ATOM     15  C   UNL     1      -3.758  12.415  24.352  0.00  0.00    +0.000 A 
ATOM     16  C   UNL     1      -5.100  12.620  24.675  0.00  0.00    +0.000 A 
BRANCH  11  18
ATOM     17  C   UNL     1      -7.909  14.430  24.065  0.00  0.00    +0.000 C 
ATOM     18  C   UNL     1      -7.496  12.968  24.008  0.00  0.00    +0.000 C 
ENDBRANCH  11  18
ENDBRANCH   1  14
BRANCH   6  19
ATOM     19  C   UNL     1      -1.403  11.202  18.741  0.00  0.00    +0.000 A 
ATOM     20  C   UNL     1      -0.983  10.169  17.888  0.00  0.00    +0.000 A 
ATOM     21  C   UNL     1      -1.749   9.774  16.784  0.00  0.00    +0.000 A 
ATOM     22  C   UNL     1      -2.952  10.410  16.510  0.00  0.00    +0.000 A 
ATOM     23  C   UNL     1      -3.398  11.429  17.344  0.00  0.00    +0.000 A 
ATOM     24  C   UNL     1      -2.630  11.813  18.451  0.00  0.00    +0.000 A 
ENDBRANCH   6  19
BRANCH   7  25
ATOM     25  C   UNL     1       0.898  13.510  19.345  0.00  0.00    +0.000 A 
ATOM     26  C   UNL     1       1.845  12.925  18.532  0.00  0.00    +0.000 A 
ATOM     27  C   UNL     1       2.608  13.980  17.982  0.00  0.00    +0.000 A 
ATOM     28  C   UNL     1       2.087  15.140  18.503  0.00  0.00    +0.000 A 
ATOM     29  O   UNL     1       1.049  14.867  19.336  0.00  0.00    +0.000 OA
ENDBRANCH   7  25
TORSDOF 4
ENDMDL
MODEL 2
REMARK VINA RESULT:      -7.1      2.837      6.805
REMARK  Name = 
REMARK  5 active torsions:
REMARK  status: ('A' for Active; 'I' for Inactive)
REMARK    1  A    between atoms: C_1  and  C_2
REMARK    2  A    between atoms: C_2  and  C_3
REMARK    3  A    between atoms: C_6  and  N_7
REMARK    4  A    between atoms: N_12  and  C_13
REMARK    5  A    between atoms: C_19  and  C_20
REMARK                            x       y       z     vdW  Elec       q    Type
REMARK                         _______ _______ _______ _____ _____    ______ ____
ROOT
ATOM      1  N   UNL     1       0.996  10.513  19.943  0.00  0.00    +0.000 N 
ATOM      2  C   UNL     1       1.273  11.700  19.304  0.00  0.00    +0.000 C 
ATOM      3  O   UNL     1       2.152  11.958  18.494  0.00  0.00    +0.000 OA
ATOM      4  C   UNL     1       0.238  12.704  19.744  0.00  0.00    +0.000 C 
ATOM      5  O   UNL     1      -0.650  12.869  18.638  0.00  0.00    +0.000 OA
ATOM      6  N   UNL     1      -1.748  12.043  18.905  0.00  0.00    +0.000 N 
ATOM      7  C   UNL     1      -1.888  11.743  20.327  0.00  0.00    +0.000 C 
ATOM      8  C   UNL     1      -0.507  12.046  20.874  0.00  0.00    +0.000 C 
ATOM      9  C   UNL     1       0.193  10.740  21.032  0.00  0.00    +0.000 C 
ATOM     10  O   UNL     1       0.015  10.029  22.016  0.00  0.00    +0.000 OA
ENDROOT
BRANCH   1  14
ATOM     11  C   UNL     1       2.493   6.749  18.661  0.00  0.00    +0.000 A 
ATOM     12  C   UNL     1       2.184   6.958  20.006  0.00  0.00    +0.000 A 
ATOM     13  C   UNL     1       1.664   8.187  20.435  0.00  0.00    +0.000 A 
ATOM     14  C   UNL     1       1.426   9.226  19.526  0.00  0.00    +0.000 A 
ATOM     15  C   UNL     1       1.749   8.999  18.178  0.00  0.00    +0.000 A 
ATOM     16  C   UNL     1       2.283   7.783  17.750  0.00  0.00    +0.000 A 
BRANCH  11  18
ATOM     17  C   UNL     1       1.746   4.551  17.810  0.00  0.00    +0.000 C 
ATOM     18  C   UNL     1       2.953   5.401  18.176  0.00  0.00    +0.000 C 
ENDBRANCH  11  18
ENDBRANCH   1  14
BRANCH   6  19
ATOM     19  C   UNL     1      -2.539  11.504  17.893  0.00  0.00    +0.000 A 
ATOM     20  C   UNL     1      -1.992  10.583  16.986  0.00  0.00    +0.000 A 
ATOM     21  C   UNL     1      -2.751  10.048  15.938  0.00  0.00    +0.000 A 
ATOM     22  C   UNL     1      -4.076  10.430  15.774  0.00  0.00    +0.000 A 
ATOM     23  C   UNL     1      -4.647  11.333  16.664  0.00  0.00    +0.000 A 
ATOM     24  C   UNL     1      -3.883  11.857  17.716  0.00  0.00    +0.000 A 
ENDBRANCH   6  19
BRANCH   7  25
ATOM     25  C   UNL     1      -2.945  12.534  21.017  0.00  0.00    +0.000 A 
ATOM     26  C   UNL     1      -3.800  13.535  20.608  0.00  0.00    +0.000 A 
ATOM     27  C   UNL     1      -4.651  13.808  21.702  0.00  0.00    +0.000 A 
ATOM     28  C   UNL     1      -4.255  12.967  22.714  0.00  0.00    +0.000 A 
ATOM     29  O   UNL     1      -3.217  12.190  22.310  0.00  0.00    +0.000 OA
ENDBRANCH   7  25
TORSDOF 4
ENDMDL
MODEL 3
REMARK VINA RESULT:      -7.0      2.614      6.794
REMARK  Name = 
REMARK  5 active torsions:
REMARK  status: ('A' for Active; 'I' for Inactive)
REMARK    1  A    between atoms: C_1  and  C_2
REMARK    2  A    between atoms: C_2  and  C_3
REMARK    3  A    between atoms: C_6  and  N_7
REMARK    4  A    between atoms: N_12  and  C_13
REMARK    5  A    between atoms: C_19  and  C_20
REMARK                            x       y       z     vdW  Elec       q    Type
REMARK                         _______ _______ _______ _____ _____    ______ ____
ROOT
ATOM      1  N   UNL     1       0.809  10.868  20.800  0.00  0.00    +0.000 N 
ATOM      2  C   UNL     1       0.984  12.148  20.325  0.00  0.00    +0.000 C 
ATOM      3  O   UNL     1       1.736  12.554  19.451  0.00  0.00    +0.000 OA
ATOM      4  C   UNL     1       0.017  13.041  21.061  0.00  0.00    +0.000 C 
ATOM      5  O   UNL     1      -1.021  13.352  20.131  0.00  0.00    +0.000 OA
ATOM      6  N   UNL     1      -2.065  12.464  20.415  0.00  0.00    +0.000 N 
ATOM      7  C   UNL     1      -1.998  11.940  21.776  0.00  0.00    +0.000 C 
ATOM      8  C   UNL     1      -0.554  12.193  22.165  0.00  0.00    +0.000 C 
ATOM      9  C   UNL     1       0.168  10.899  22.013  0.00  0.00    +0.000 C 
ATOM     10  O   UNL     1       0.138  10.038  22.886  0.00  0.00    +0.000 OA
ENDROOT
BRANCH   1  14
ATOM     11  C   UNL     1       2.125   7.398  18.733  0.00  0.00    +0.000 A 
ATOM     12  C   UNL     1       2.037   7.392  20.126  0.00  0.00    +0.000 A 
ATOM     13  C   UNL     1       1.577   8.522  20.816  0.00  0.00    +0.000 A 
ATOM     14  C   UNL     1       1.181   9.675  20.127  0.00  0.00    +0.000 A 
ATOM     15  C   UNL     1       1.283   9.664  18.726  0.00  0.00    +0.000 A 
ATOM     16  C   UNL     1       1.756   8.548  18.037  0.00  0.00    +0.000 A 
BRANCH  11  18
ATOM     17  C   UNL     1       3.967   6.265  17.534  0.00  0.00    +0.000 C 
ATOM     18  C   UNL     1       2.518   6.155  17.980  0.00  0.00    +0.000 C 
ENDBRANCH  11  18
ENDBRANCH   1  14
BRANCH   6  19
ATOM     19  C   UNL     1      -2.990  12.067  19.452  0.00  0.00    +0.000 A 
ATOM     20  C   UNL     1      -2.576  11.299  18.352  0.00  0.00    +0.000 A 
ATOM     21  C   UNL     1      -3.474  10.913  17.349  0.00  0.00    +0.000 A 
ATOM     22  C   UNL     1      -4.808  11.293  17.426  0.00  0.00    +0.000 A 
ATOM     23  C   UNL     1      -5.248  12.045  18.510  0.00  0.00    +0.000 A 
ATOM     24  C   UNL     1      -4.344  12.420  19.514  0.00  0.00    +0.000 A 
ENDBRANCH   6  19
BRANCH   7  25
ATOM     25  C   UNL     1      -2.950  12.584  22.726  0.00  0.00    +0.000 A 
ATOM     26  C   UNL     1      -3.530  13.832  22.786  0.00  0.00    +0.000 A 
ATOM     27  C   UNL     1      -4.434  13.802  23.872  0.00  0.00    +0.000 A 
ATOM     28  C   UNL     1      -4.339  12.542  24.413  0.00  0.00    +0.000 A 
ATOM     29  O   UNL     1      -3.438  11.794  23.727  0.00  0.00    +0.000 OA
ENDBRANCH   7  25
TORSDOF 4
ENDMDL
MODEL 4
REMARK VINA RESULT:      -6.9      4.148      6.346
REMARK  Name = 
REMARK  5 active torsions:
REMARK  status: ('A' for Active; 'I' for Inactive)
REMARK    1  A    between atoms: C_1  and  C_2
REMARK    2  A    between atoms: C_2  and  C_3
REMARK    3  A    between atoms: C_6  and  N_7
REMARK    4  A    between atoms: N_12  and  C_13
REMARK    5  A    between atoms: C_19  and  C_20
REMARK                            x       y       z     vdW  Elec       q    Type
REMARK                         _______ _______ _______ _____ _____    ______ ____
ROOT
ATOM      1  N   UNL     1       1.345  12.595  19.502  0.00  0.00    +0.000 N 
ATOM      2  C   UNL     1       2.530  12.927  18.885  0.00  0.00    +0.000 C 
ATOM      3  O   UNL     1       3.033  12.463  17.872  0.00  0.00    +0.000 OA
ATOM      4  C   UNL     1       3.148  14.057  19.670  0.00  0.00    +0.000 C 
ATOM      5  O   UNL     1       2.963  15.234  18.883  0.00  0.00    +0.000 OA
ATOM      6  N   UNL     1       1.830  15.867  19.407  0.00  0.00    +0.000 N 
ATOM      7  C   UNL     1       1.558  15.473  20.786  0.00  0.00    +0.000 C 
ATOM      8  C   UNL     1       2.325  14.173  20.925  0.00  0.00    +0.000 C 
ATOM      9  C   UNL     1       1.334  13.068  20.790  0.00  0.00    +0.000 C 
ATOM     10  O   UNL     1       0.645  12.703  21.736  0.00  0.00    +0.000 OA
ENDROOT
BRANCH   1  14
ATOM     11  C   UNL     1      -1.839  10.628  17.491  0.00  0.00    +0.000 A 
ATOM     12  C   UNL     1      -0.753   9.893  17.971  0.00  0.00    +0.000 A 
ATOM     13  C   UNL     1       0.288  10.528  18.660  0.00  0.00    +0.000 A 
ATOM     14  C   UNL     1       0.259  11.909  18.898  0.00  0.00    +0.000 A 
ATOM     15  C   UNL     1      -0.838  12.631  18.403  0.00  0.00    +0.000 A 
ATOM     16  C   UNL     1      -1.868  12.006  17.701  0.00  0.00    +0.000 A 
BRANCH  11  18
ATOM     17  C   UNL     1      -3.018  10.242  15.353  0.00  0.00    +0.000 C 
ATOM     18  C   UNL     1      -3.010   9.940  16.842  0.00  0.00    +0.000 C 
ENDBRANCH  11  18
ENDBRANCH   1  14
BRANCH   6  19
ATOM     19  C   UNL     1       1.017  16.697  18.638  0.00  0.00    +0.000 A 
ATOM     20  C   UNL     1       1.581  17.508  17.641  0.00  0.00    +0.000 A 
ATOM     21  C   UNL     1       0.797  18.378  16.874  0.00  0.00    +0.000 A 
ATOM     22  C   UNL     1      -0.572  18.457  17.094  0.00  0.00    +0.000 A 
ATOM     23  C   UNL     1      -1.160  17.657  18.068  0.00  0.00    +0.000 A 
ATOM     24  C   UNL     1      -0.368  16.783  18.826  0.00  0.00    +0.000 A 
ENDBRANCH   6  19
BRANCH   7  25
ATOM     25  C   UNL     1       1.978  16.478  21.803  0.00  0.00    +0.000 A 
ATOM     26  C   UNL     1       2.502  17.751  21.718  0.00  0.00    +0.000 A 
ATOM     27  C   UNL     1       2.590  18.237  23.042  0.00  0.00    +0.000 A 
ATOM     28  C   UNL     1       2.127  17.227  23.851  0.00  0.00    +0.000 A 
ATOM     29  O   UNL     1       1.756  16.152  23.110  0.00  0.00    +0.000 OA
ENDBRANCH   7  25
TORSDOF 4
ENDMDL
MODEL 5
REMARK VINA RESULT:      -6.9      4.082      6.351
REMARK  Name = 
REMARK  5 active torsions:
REMARK  status: ('A' for Active; 'I' for Inactive)
REMARK    1  A    between atoms: C_1  and  C_2
REMARK    2  A    between atoms: C_2  and  C_3
REMARK    3  A    between atoms: C_6  and  N_7
REMARK    4  A    between atoms: N_12  and  C_13
REMARK    5  A    between atoms: C_19  and  C_20
REMARK                            x       y       z     vdW  Elec       q    Type
REMARK                         _______ _______ _______ _____ _____    ______ ____
ROOT
ATOM      1  N   UNL     1       1.356  12.695  19.473  0.00  0.00    +0.000 N 
ATOM      2  C   UNL     1       2.558  13.021  18.885  0.00  0.00    +0.000 C 
ATOM      3  O   UNL     1       3.078  12.561  17.878  0.00  0.00    +0.000 OA
ATOM      4  C   UNL     1       3.170  14.137  19.694  0.00  0.00    +0.000 C 
ATOM      5  O   UNL     1       3.014  15.323  18.914  0.00  0.00    +0.000 OA
ATOM      6  N   UNL     1       1.875  15.963  19.419  0.00  0.00    +0.000 N 
ATOM      7  C   UNL     1       1.569  15.559  20.788  0.00  0.00    +0.000 C 
ATOM      8  C   UNL     1       2.321  14.250  20.931  0.00  0.00    +0.000 C 
ATOM      9  C   UNL     1       1.323  13.157  20.764  0.00  0.00    +0.000 C 
ATOM     10  O   UNL     1       0.609  12.789  21.692  0.00  0.00    +0.000 OA
ENDROOT
BRANCH   1  14
ATOM     11  C   UNL     1      -1.930  10.602  17.779  0.00  0.00    +0.000 A 
ATOM     12  C   UNL     1      -1.981  11.990  17.920  0.00  0.00    +0.000 A 
ATOM     13  C   UNL     1      -0.892  12.693  18.452  0.00  0.00    +0.000 A 
ATOM     14  C   UNL     1       0.278  12.025  18.839  0.00  0.00    +0.000 A 
ATOM     15  C   UNL     1       0.308  10.629  18.695  0.00  0.00    +0.000 A 
ATOM     16  C   UNL     1      -0.781   9.923  18.182  0.00  0.00    +0.000 A 
BRANCH  11  18
ATOM     17  C   UNL     1      -2.882   9.912  15.604  0.00  0.00    +0.000 C 
ATOM     18  C   UNL     1      -3.053   9.852  17.114  0.00  0.00    +0.000 C 
ENDBRANCH  11  18
ENDBRANCH   1  14
BRANCH   6  19
ATOM     19  C   UNL     1       1.088  16.808  18.640  0.00  0.00    +0.000 A 
ATOM     20  C   UNL     1      -0.296  16.883  18.861  0.00  0.00    +0.000 A 
ATOM     21  C   UNL     1      -1.120  17.697  18.074  0.00  0.00    +0.000 A 
ATOM     22  C   UNL     1      -0.572  18.451  17.044  0.00  0.00    +0.000 A 
ATOM     23  C   UNL     1       0.797  18.404  16.809  0.00  0.00    +0.000 A 
ATOM     24  C   UNL     1       1.616  17.593  17.607  0.00  0.00    +0.000 A 
ENDBRANCH   6  19
BRANCH   7  25
ATOM     25  C   UNL     1       1.977  16.551  21.823  0.00  0.00    +0.000 A 
ATOM     26  C   UNL     1       2.516  17.818  21.761  0.00  0.00    +0.000 A 
ATOM     27  C   UNL     1       2.580  18.291  23.092  0.00  0.00    +0.000 A 
ATOM     28  C   UNL     1       2.089  17.279  23.881  0.00  0.00    +0.000 A 
ATOM     29  O   UNL     1       1.723  16.215  23.122  0.00  0.00    +0.000 OA
ENDBRANCH   7  25
TORSDOF 4
ENDMDL
MODEL 6
REMARK VINA RESULT:      -6.8      2.335      6.414
REMARK  Name = 
REMARK  5 active torsions:
REMARK  status: ('A' for Active; 'I' for Inactive)
REMARK    1  A    between atoms: C_1  and  C_2
REMARK    2  A    between atoms: C_2  and  C_3
REMARK    3  A    between atoms: C_6  and  N_7
REMARK    4  A    between atoms: N_12  and  C_13
REMARK    5  A    between atoms: C_19  and  C_20
REMARK                            x       y       z     vdW  Elec       q    Type
REMARK                         _______ _______ _______ _____ _____    ______ ____
ROOT
ATOM      1  N   UNL     1      -0.019  11.690  21.564  0.00  0.00    +0.000 N 
ATOM      2  C   UNL     1       0.103  12.958  21.043  0.00  0.00    +0.000 C 
ATOM      3  O   UNL     1       0.967  13.414  20.306  0.00  0.00    +0.000 OA
ATOM      4  C   UNL     1      -1.088  13.757  21.509  0.00  0.00    +0.000 C 
ATOM      5  O   UNL     1      -1.944  13.891  20.373  0.00  0.00    +0.000 OA
ATOM      6  N   UNL     1      -2.916  12.893  20.509  0.00  0.00    +0.000 N 
ATOM      7  C   UNL     1      -3.068  12.447  21.891  0.00  0.00    +0.000 C 
ATOM      8  C   UNL     1      -1.772  12.897  22.537  0.00  0.00    +0.000 C 
ATOM      9  C   UNL     1      -0.892  11.697  22.623  0.00  0.00    +0.000 C 
ATOM     10  O   UNL     1      -1.002  10.882  23.532  0.00  0.00    +0.000 OA
ENDROOT
BRANCH   1  14
ATOM     11  C   UNL     1       1.685   8.081  20.110  0.00  0.00    +0.000 A 
ATOM     12  C   UNL     1       1.344   9.102  19.222  0.00  0.00    +0.000 A 
ATOM     13  C   UNL     1       0.807  10.307  19.694  0.00  0.00    +0.000 A 
ATOM     14  C   UNL     1       0.615  10.523  21.064  0.00  0.00    +0.000 A 
ATOM     15  C   UNL     1       0.959   9.482  21.942  0.00  0.00    +0.000 A 
ATOM     16  C   UNL     1       1.478   8.275  21.475  0.00  0.00    +0.000 A 
BRANCH  11  18
ATOM     17  C   UNL     1       2.680   6.962  18.142  0.00  0.00    +0.000 C 
ATOM     18  C   UNL     1       2.359   6.826  19.622  0.00  0.00    +0.000 C 
ENDBRANCH  11  18
ENDBRANCH   1  14
BRANCH   6  19
ATOM     19  C   UNL     1      -3.574  12.339  19.414  0.00  0.00    +0.000 A 
ATOM     20  C   UNL     1      -2.840  11.725  18.387  0.00  0.00    +0.000 A 
ATOM     21  C   UNL     1      -3.469  11.189  17.257  0.00  0.00    +0.000 A 
ATOM     22  C   UNL     1      -4.851  11.260  17.130  0.00  0.00    +0.000 A 
ATOM     23  C   UNL     1      -5.604  11.853  18.137  0.00  0.00    +0.000 A 
ATOM     24  C   UNL     1      -4.967  12.380  19.270  0.00  0.00    +0.000 A 
ENDBRANCH   6  19
BRANCH   7  25
ATOM     25  C   UNL     1      -4.260  13.010  22.586  0.00  0.00    +0.000 A 
ATOM     26  C   UNL     1      -4.988  14.170  22.431  0.00  0.00    +0.000 A 
ATOM     27  C   UNL     1      -6.079  14.082  23.326  0.00  0.00    +0.000 A 
ATOM     28  C   UNL     1      -5.941  12.881  23.979  0.00  0.00    +0.000 A 
ATOM     29  O   UNL     1      -4.838  12.222  23.540  0.00  0.00    +0.000 OA
ENDBRANCH   7  25
TORSDOF 4
ENDMDL
MODEL 7
REMARK VINA RESULT:      -6.8      2.774      6.586
REMARK  Name = 
REMARK  5 active torsions:
REMARK  status: ('A' for Active; 'I' for Inactive)
REMARK    1  A    between atoms: C_1  and  C_2
REMARK    2  A    between atoms: C_2  and  C_3
REMARK    3  A    between atoms: C_6  and  N_7
REMARK    4  A    between atoms: N_12  and  C_13
REMARK    5  A    between atoms: C_19  and  C_20
REMARK                            x       y       z     vdW  Elec       q    Type
REMARK                         _______ _______ _______ _____ _____    ______ ____
ROOT
ATOM      1  N   UNL     1       0.991  10.702  19.941  0.00  0.00    +0.000 N 
ATOM      2  C   UNL     1       1.268  11.841  19.220  0.00  0.00    +0.000 C 
ATOM      3  O   UNL     1       2.175  12.056  18.428  0.00  0.00    +0.000 OA
ATOM      4  C   UNL     1       0.194  12.851  19.536  0.00  0.00    +0.000 C 
ATOM      5  O   UNL     1      -0.650  12.905  18.385  0.00  0.00    +0.000 OA
ATOM      6  N   UNL     1      -1.741  12.076  18.673  0.00  0.00    +0.000 N 
ATOM      7  C   UNL     1      -1.933  11.886  20.107  0.00  0.00    +0.000 C 
ATOM      8  C   UNL     1      -0.584  12.266  20.684  0.00  0.00    +0.000 C 
ATOM      9  C   UNL     1       0.137  10.994  20.974  0.00  0.00    +0.000 C 
ATOM     10  O   UNL     1      -0.066  10.359  22.004  0.00  0.00    +0.000 OA
ENDROOT
BRANCH   1  14
ATOM     11  C   UNL     1       2.196   6.720  19.081  0.00  0.00    +0.000 A 
ATOM     12  C   UNL     1       2.156   7.674  18.064  0.00  0.00    +0.000 A 
ATOM     13  C   UNL     1       1.786   8.997  18.342  0.00  0.00    +0.000 A 
ATOM     14  C   UNL     1       1.465   9.397  19.646  0.00  0.00    +0.000 A 
ATOM     15  C   UNL     1       1.506   8.422  20.655  0.00  0.00    +0.000 A 
ATOM     16  C   UNL     1       1.857   7.100  20.379  0.00  0.00    +0.000 A 
BRANCH  11  18
ATOM     17  C   UNL     1       1.781   4.646  17.800  0.00  0.00    +0.000 C 
ATOM     18  C   UNL     1       2.692   5.324  18.811  0.00  0.00    +0.000 C 
ENDBRANCH  11  18
ENDBRANCH   1  14
BRANCH   6  19
ATOM     19  C   UNL     1      -2.476  11.438  17.677  0.00  0.00    +0.000 A 
ATOM     20  C   UNL     1      -1.876  10.450  16.881  0.00  0.00    +0.000 A 
ATOM     21  C   UNL     1      -2.577   9.814  15.849  0.00  0.00    +0.000 A 
ATOM     22  C   UNL     1      -3.897  10.160  15.590  0.00  0.00    +0.000 A 
ATOM     23  C   UNL     1      -4.521  11.128  16.370  0.00  0.00    +0.000 A 
ATOM     24  C   UNL     1      -3.814  11.754  17.406  0.00  0.00    +0.000 A 
ENDBRANCH   6  19
BRANCH   7  25
ATOM     25  C   UNL     1      -3.036  12.703  20.689  0.00  0.00    +0.000 A 
ATOM     26  C   UNL     1      -4.401  12.532  20.769  0.00  0.00    +0.000 A 
ATOM     27  C   UNL     1      -4.895  13.608  21.541  0.00  0.00    +0.000 A 
ATOM     28  C   UNL     1      -3.803  14.374  21.872  0.00  0.00    +0.000 A 
ATOM     29  O   UNL     1      -2.668  13.835  21.356  0.00  0.00    +0.000 OA
ENDBRANCH   7  25
TORSDOF 4
ENDMDL
MODEL 8
REMARK VINA RESULT:      -6.8      2.476      6.854
REMARK  Name = 
REMARK  5 active torsions:
REMARK  status: ('A' for Active; 'I' for Inactive)
REMARK    1  A    between atoms: C_1  and  C_2
REMARK    2  A    between atoms: C_2  and  C_3
REMARK    3  A    between atoms: C_6  and  N_7
REMARK    4  A    between atoms: N_12  and  C_13
REMARK    5  A    between atoms: C_19  and  C_20
REMARK                            x       y       z     vdW  Elec       q    Type
REMARK                         _______ _______ _______ _____ _____    ______ ____
ROOT
ATOM      1  N   UNL     1      -1.577  12.712  21.149  0.00  0.00    +0.000 N 
ATOM      2  C   UNL     1      -1.683  14.059  20.882  0.00  0.00    +0.000 C 
ATOM      3  O   UNL     1      -0.997  14.760  20.152  0.00  0.00    +0.000 OA
ATOM      4  C   UNL     1      -2.878  14.578  21.640  0.00  0.00    +0.000 C 
ATOM      5  O   UNL     1      -3.901  14.793  20.668  0.00  0.00    +0.000 OA
ATOM      6  N   UNL     1      -4.719  13.658  20.718  0.00  0.00    +0.000 N 
ATOM      7  C   UNL     1      -4.612  12.950  21.991  0.00  0.00    +0.000 C 
ATOM      8  C   UNL     1      -3.297  13.456  22.551  0.00  0.00    +0.000 C 
ATOM      9  C   UNL     1      -2.279  12.400  22.286  0.00  0.00    +0.000 C 
ATOM     10  O   UNL     1      -2.157  11.425  23.019  0.00  0.00    +0.000 OA
ENDROOT
BRANCH   1  14
ATOM     11  C   UNL     1       0.510  10.026  18.604  0.00  0.00    +0.000 A 
ATOM     12  C   UNL     1       1.109  10.487  19.778  0.00  0.00    +0.000 A 
ATOM     13  C   UNL     1       0.419  11.351  20.638  0.00  0.00    +0.000 A 
ATOM     14  C   UNL     1      -0.890  11.760  20.352  0.00  0.00    +0.000 A 
ATOM     15  C   UNL     1      -1.473  11.290  19.164  0.00  0.00    +0.000 A 
ATOM     16  C   UNL     1      -0.784  10.444  18.296  0.00  0.00    +0.000 A 
BRANCH  11  18
ATOM     17  C   UNL     1       2.282   8.304  18.529  0.00  0.00    +0.000 C 
ATOM     18  C   UNL     1       1.204   9.017  17.729  0.00  0.00    +0.000 C 
ENDBRANCH  11  18
ENDBRANCH   1  14
BRANCH   6  19
ATOM     19  C   UNL     1      -5.462  13.224  19.623  0.00  0.00    +0.000 A 
ATOM     20  C   UNL     1      -5.117  12.034  18.964  0.00  0.00    +0.000 A 
ATOM     21  C   UNL     1      -5.822  11.588  17.839  0.00  0.00    +0.000 A 
ATOM     22  C   UNL     1      -6.888  12.330  17.348  0.00  0.00    +0.000 A 
ATOM     23  C   UNL     1      -7.259  13.508  17.987  0.00  0.00    +0.000 A 
ATOM     24  C   UNL     1      -6.553  13.943  19.117  0.00  0.00    +0.000 A 
ENDBRANCH   6  19
BRANCH   7  25
ATOM     25  C   UNL     1      -5.746  13.199  22.925  0.00  0.00    +0.000 A 
ATOM     26  C   UNL     1      -6.162  14.302  23.639  0.00  0.00    +0.000 A 
ATOM     27  C   UNL     1      -7.377  13.941  24.264  0.00  0.00    +0.000 A 
ATOM     28  C   UNL     1      -7.620  12.637  23.903  0.00  0.00    +0.000 A 
ATOM     29  O   UNL     1      -6.634  12.175  23.092  0.00  0.00    +0.000 OA
ENDBRANCH   7  25
TORSDOF 4
ENDMDL
MODEL 9
REMARK VINA RESULT:      -6.8      2.485      6.910
REMARK  Name = 
REMARK  5 active torsions:
REMARK  status: ('A' for Active; 'I' for Inactive)
REMARK    1  A    between atoms: C_1  and  C_2
REMARK    2  A    between atoms: C_2  and  C_3
REMARK    3  A    between atoms: C_6  and  N_7
REMARK    4  A    between atoms: N_12  and  C_13
REMARK    5  A    between atoms: C_19  and  C_20
REMARK                            x       y       z     vdW  Elec       q    Type
REMARK                         _______ _______ _______ _____ _____    ______ ____
ROOT
ATOM      1  N   UNL     1      -1.563  12.957  21.065  0.00  0.00    +0.000 N 
ATOM      2  C   UNL     1      -1.788  14.302  20.868  0.00  0.00    +0.000 C 
ATOM      3  O   UNL     1      -1.169  15.097  20.175  0.00  0.00    +0.000 OA
ATOM      4  C   UNL     1      -3.020  14.675  21.653  0.00  0.00    +0.000 C 
ATOM      5  O   UNL     1      -4.063  14.850  20.694  0.00  0.00    +0.000 OA
ATOM      6  N   UNL     1      -4.778  13.646  20.686  0.00  0.00    +0.000 N 
ATOM      7  C   UNL     1      -4.603  12.885  21.920  0.00  0.00    +0.000 C 
ATOM      8  C   UNL     1      -3.334  13.475  22.505  0.00  0.00    +0.000 C 
ATOM      9  C   UNL     1      -2.230  12.527  22.184  0.00  0.00    +0.000 C 
ATOM     10  O   UNL     1      -2.019  11.530  22.866  0.00  0.00    +0.000 OA
ENDROOT
BRANCH   1  14
ATOM     11  C   UNL     1       0.773  10.298  18.716  0.00  0.00    +0.000 A 
ATOM     12  C   UNL     1      -0.619  10.283  18.615  0.00  0.00    +0.000 A 
ATOM     13  C   UNL     1      -1.398  11.175  19.365  0.00  0.00    +0.000 A 
ATOM     14  C   UNL     1      -0.800  12.111  20.218  0.00  0.00    +0.000 A 
ATOM     15  C   UNL     1       0.601  12.107  20.311  0.00  0.00    +0.000 A 
ATOM     16  C   UNL     1       1.378  11.210  19.579  0.00  0.00    +0.000 A 
BRANCH  11  18
ATOM     17  C   UNL     1       2.101   8.214  18.635  0.00  0.00    +0.000 C 
ATOM     18  C   UNL     1       1.619   9.416  17.838  0.00  0.00    +0.000 C 
ENDBRANCH  11  18
ENDBRANCH   1  14
BRANCH   6  19
ATOM     19  C   UNL     1      -5.486  13.207  19.570  0.00  0.00    +0.000 A 
ATOM     20  C   UNL     1      -6.762  13.724  19.296  0.00  0.00    +0.000 A 
ATOM     21  C   UNL     1      -7.513  13.278  18.201  0.00  0.00    +0.000 A 
ATOM     22  C   UNL     1      -7.001  12.299  17.359  0.00  0.00    +0.000 A 
ATOM     23  C   UNL     1      -5.736  11.776  17.601  0.00  0.00    +0.000 A 
ATOM     24  C   UNL     1      -4.987  12.234  18.694  0.00  0.00    +0.000 A 
ENDBRANCH   6  19
BRANCH   7  25
ATOM     25  C   UNL     1      -5.750  12.986  22.867  0.00  0.00    +0.000 A 
ATOM     26  C   UNL     1      -6.155  13.948  23.766  0.00  0.00    +0.000 A 
ATOM     27  C   UNL     1      -7.390  13.507  24.295  0.00  0.00    +0.000 A 
ATOM     28  C   UNL     1      -7.653  12.300  23.695  0.00  0.00    +0.000 A 
ATOM     29  O   UNL     1      -6.662  11.970  22.828  0.00  0.00    +0.000 OA
ENDBRANCH   7  25
TORSDOF 4
ENDMDL
