MODEL 1
REMARK VINA RESULT:      -8.4      0.000      0.000
REMARK  Name = 
REMARK  8 active torsions:
REMARK  status: ('A' for Active; 'I' for Inactive)
REMARK    1  A    between atoms: C_1  and  O_2
REMARK    2  A    between atoms: O_2  and  C_3
REMARK    3  A    between atoms: C_6  and  C_7
REMARK    4  A    between atoms: C_9  and  C_10
REMARK    5  A    between atoms: N_12  and  C_13
REMARK    6  A    between atoms: C_13  and  C_14
REMARK    7  A    between atoms: C_26  and  O_27
REMARK    8  A    between atoms: O_27  and  C_28
REMARK                            x       y       z     vdW  Elec       q    Type
REMARK                         _______ _______ _______ _____ _____    ______ ____
ROOT
ATOM      1  C   UNL     1       2.450   6.868  18.899  0.00  0.00    +0.000 A 
ATOM      2  C   UNL     1       3.642   6.587  19.532  0.00  0.00    +0.000 A 
ATOM      3  C   UNL     1       4.222   5.350  19.311  0.00  0.00    +0.000 A 
ATOM      4  C   UNL     1       3.399   4.267  18.997  0.00  0.00    +0.000 A 
ATOM      5  C   UNL     1       3.724   2.930  19.300  0.00  0.00    +0.000 A 
ATOM      6  C   UNL     1       2.819   1.908  19.042  0.00  0.00    +0.000 A 
ATOM      7  C   UNL     1       1.620   2.214  18.408  0.00  0.00    +0.000 A 
ATOM      8  C   UNL     1       1.312   3.541  18.088  0.00  0.00    +0.000 A 
ATOM      9  C   UNL     1       2.157   4.590  18.445  0.00  0.00    +0.000 A 
ATOM     10  N   UNL     1       1.771   5.866  18.284  0.00  0.00    +0.000 NA
ENDROOT
BRANCH   1  14
ATOM     11  C   UNL     1       1.277  11.025  18.930  0.00  0.00    +0.000 A 
ATOM     12  C   UNL     1       1.893  10.471  17.822  0.00  0.00    +0.000 A 
ATOM     13  C   UNL     1       2.175   9.109  17.785  0.00  0.00    +0.000 A 
ATOM     14  C   UNL     1       1.909   8.257  18.886  0.00  0.00    +0.000 A 
ATOM     15  C   UNL     1       1.202   8.821  19.969  0.00  0.00    +0.000 A 
ATOM     16  C   UNL     1       0.909  10.197  19.993  0.00  0.00    +0.000 A 
BRANCH  11  18
ATOM     17  C   UNL     1      -0.176  12.846  18.513  0.00  0.00    +0.000 C 
ATOM     18  O   UNL     1       1.116  12.379  18.867  0.00  0.00    +0.000 OA
ENDBRANCH  11  18
BRANCH  15  19
ATOM     19  O   UNL     1       0.840   7.959  20.966  0.00  0.00    +0.000 OA
ATOM     20  C   UNL     1      -0.213   8.297  21.847  0.00  0.00    +0.000 C 
ENDBRANCH  15  19
ENDBRANCH   1  14
BRANCH   3  21
ATOM     21  C   UNL     1       5.641   5.349  18.877  0.00  0.00    +0.000 C 
ATOM     22  O   UNL     1       6.513   4.744  19.490  0.00  0.00    +0.000 OA
ATOM     23  N   UNL     1       5.886   5.978  17.661  0.00  0.00    +0.000 N 
ATOM     24  H   UNL     1       5.098   6.246  17.083  0.00  0.00    +0.000 HD
BRANCH  23  25
ATOM     25  C   UNL     1       7.113   5.790  16.919  0.00  0.00    +0.000 C 
BRANCH  25  26
ATOM     26  C   UNL     1       6.807   5.133  15.625  0.00  0.00    +0.000 A 
ATOM     27  C   UNL     1       5.826   4.253  15.221  0.00  0.00    +0.000 A 
ATOM     28  C   UNL     1       6.084   3.953  13.862  0.00  0.00    +0.000 A 
ATOM     29  C   UNL     1       7.196   4.687  13.513  0.00  0.00    +0.000 A 
ATOM     30  O   UNL     1       7.643   5.414  14.574  0.00  0.00    +0.000 OA
ENDBRANCH  25  26
ENDBRANCH  23  25
ENDBRANCH   3  21
TORSDOF 6
ENDMDL
MODEL 2
REMARK VINA RESULT:      -7.7      1.261      2.128
REMARK  Name = 
REMARK  8 active torsions:
REMARK  status: ('A' for Active; 'I' for Inactive)
REMARK    1  A    between atoms: C_1  and  O_2
REMARK    2  A    between atoms: O_2  and  C_3
REMARK    3  A    between atoms: C_6  and  C_7
REMARK    4  A    between atoms: C_9  and  C_10
REMARK    5  A    between atoms: N_12  and  C_13
REMARK    6  A    between atoms: C_13  and  C_14
REMARK    7  A    between atoms: C_26  and  O_27
REMARK    8  A    between atoms: O_27  and  C_28
REMARK                            x       y       z     vdW  Elec       q    Type
REMARK                         _______ _______ _______ _____ _____    ______ ____
ROOT
ATOM      1  C   UNL     1       2.365   6.436  19.738  0.00  0.00    +0.000 A 
ATOM      2  C   UNL     1       3.655   6.140  20.122  0.00  0.00    +0.000 A 
ATOM      3  C   UNL     1       4.306   5.101  19.481  0.00  0.00    +0.000 A 
ATOM      4  C   UNL     1       3.547   4.056  18.951  0.00  0.00    +0.000 A 
ATOM      5  C   UNL     1       4.029   2.741  18.804  0.00  0.00    +0.000 A 
ATOM      6  C   UNL     1       3.192   1.728  18.355  0.00  0.00    +0.000 A 
ATOM      7  C   UNL     1       1.892   2.046  17.977  0.00  0.00    +0.000 A 
ATOM      8  C   UNL     1       1.424   3.359  18.102  0.00  0.00    +0.000 A 
ATOM      9  C   UNL     1       2.215   4.362  18.660  0.00  0.00    +0.000 A 
ATOM     10  N   UNL     1       1.697   5.572  18.931  0.00  0.00    +0.000 NA
ENDROOT
BRANCH   1  14
ATOM     11  C   UNL     1       0.094   9.851  21.089  0.00  0.00    +0.000 A 
ATOM     12  C   UNL     1       0.483   8.864  21.977  0.00  0.00    +0.000 A 
ATOM     13  C   UNL     1       1.299   7.821  21.550  0.00  0.00    +0.000 A 
ATOM     14  C   UNL     1       1.706   7.690  20.198  0.00  0.00    +0.000 A 
ATOM     15  C   UNL     1       1.373   8.752  19.330  0.00  0.00    +0.000 A 
ATOM     16  C   UNL     1       0.557   9.809  19.772  0.00  0.00    +0.000 A 
BRANCH  11  18
ATOM     17  C   UNL     1      -1.042  10.660  23.002  0.00  0.00    +0.000 C 
ATOM     18  O   UNL     1      -0.758  10.779  21.617  0.00  0.00    +0.000 OA
ENDBRANCH  11  18
BRANCH  15  19
ATOM     19  O   UNL     1       1.880   8.674  18.062  0.00  0.00    +0.000 OA
ATOM     20  C   UNL     1       2.501   9.802  17.478  0.00  0.00    +0.000 C 
ENDBRANCH  15  19
ENDBRANCH   1  14
BRANCH   3  21
ATOM     21  C   UNL     1       5.643   5.403  18.912  0.00  0.00    +0.000 C 
ATOM     22  O   UNL     1       6.674   4.937  19.382  0.00  0.00    +0.000 OA
ATOM     23  N   UNL     1       5.630   6.151  17.739  0.00  0.00    +0.000 N 
ATOM     24  H   UNL     1       4.746   6.301  17.268  0.00  0.00    +0.000 HD
BRANCH  23  25
ATOM     25  C   UNL     1       6.779   6.255  16.868  0.00  0.00    +0.000 C 
BRANCH  25  26
ATOM     26  C   UNL     1       6.572   5.393  15.679  0.00  0.00    +0.000 A 
ATOM     27  C   UNL     1       5.593   4.489  15.327  0.00  0.00    +0.000 A 
ATOM     28  C   UNL     1       5.970   3.949  14.075  0.00  0.00    +0.000 A 
ATOM     29  C   UNL     1       7.147   4.575  13.727  0.00  0.00    +0.000 A 
ATOM     30  O   UNL     1       7.521   5.460  14.692  0.00  0.00    +0.000 OA
ENDBRANCH  25  26
ENDBRANCH  23  25
ENDBRANCH   3  21
TORSDOF 6
ENDMDL
MODEL 3
REMARK VINA RESULT:      -7.6      1.740      7.282
REMARK  Name = 
REMARK  8 active torsions:
REMARK  status: ('A' for Active; 'I' for Inactive)
REMARK    1  A    between atoms: C_1  and  O_2
REMARK    2  A    between atoms: O_2  and  C_3
REMARK    3  A    between atoms: C_6  and  C_7
REMARK    4  A    between atoms: C_9  and  C_10
REMARK    5  A    between atoms: N_12  and  C_13
REMARK    6  A    between atoms: C_13  and  C_14
REMARK    7  A    between atoms: C_26  and  O_27
REMARK    8  A    between atoms: O_27  and  C_28
REMARK                            x       y       z     vdW  Elec       q    Type
REMARK                         _______ _______ _______ _____ _____    ______ ____
ROOT
ATOM      1  C   UNL     1       4.183   4.928  17.526  0.00  0.00    +0.000 A 
ATOM      2  C   UNL     1       3.064   5.732  17.563  0.00  0.00    +0.000 A 
ATOM      3  C   UNL     1       2.381   5.845  18.761  0.00  0.00    +0.000 A 
ATOM      4  C   UNL     1       2.430   4.785  19.667  0.00  0.00    +0.000 A 
ATOM      5  C   UNL     1       1.405   4.503  20.590  0.00  0.00    +0.000 A 
ATOM      6  C   UNL     1       1.476   3.378  21.402  0.00  0.00    +0.000 A 
ATOM      7  C   UNL     1       2.611   2.577  21.346  0.00  0.00    +0.000 A 
ATOM      8  C   UNL     1       3.638   2.875  20.443  0.00  0.00    +0.000 A 
ATOM      9  C   UNL     1       3.529   3.932  19.542  0.00  0.00    +0.000 A 
ATOM     10  N   UNL     1       4.442   4.101  18.571  0.00  0.00    +0.000 NA
ENDROOT
BRANCH   1  14
ATOM     11  C   UNL     1       6.896   4.614  14.180  0.00  0.00    +0.000 A 
ATOM     12  C   UNL     1       5.572   4.232  14.056  0.00  0.00    +0.000 A 
ATOM     13  C   UNL     1       4.684   4.431  15.109  0.00  0.00    +0.000 A 
ATOM     14  C   UNL     1       5.103   4.964  16.354  0.00  0.00    +0.000 A 
ATOM     15  C   UNL     1       6.434   5.428  16.431  0.00  0.00    +0.000 A 
ATOM     16  C   UNL     1       7.322   5.234  15.357  0.00  0.00    +0.000 A 
BRANCH  11  18
ATOM     17  C   UNL     1       7.004   3.780  11.968  0.00  0.00    +0.000 C 
ATOM     18  O   UNL     1       7.675   4.304  13.103  0.00  0.00    +0.000 OA
ENDBRANCH  11  18
BRANCH  15  19
ATOM     19  O   UNL     1       6.787   6.055  17.593  0.00  0.00    +0.000 OA
ATOM     20  C   UNL     1       7.451   7.302  17.552  0.00  0.00    +0.000 C 
ENDBRANCH  15  19
ENDBRANCH   1  14
BRANCH   3  21
ATOM     21  C   UNL     1       2.120   7.222  19.250  0.00  0.00    +0.000 C 
ATOM     22  O   UNL     1       2.195   7.520  20.436  0.00  0.00    +0.000 OA
ATOM     23  N   UNL     1       1.907   8.171  18.255  0.00  0.00    +0.000 N 
ATOM     24  H   UNL     1       2.096   7.918  17.292  0.00  0.00    +0.000 HD
BRANCH  23  25
ATOM     25  C   UNL     1       1.974   9.593  18.507  0.00  0.00    +0.000 C 
BRANCH  25  26
ATOM     26  C   UNL     1       0.619  10.097  18.838  0.00  0.00    +0.000 A 
ATOM     27  C   UNL     1      -0.552  10.199  18.118  0.00  0.00    +0.000 A 
ATOM     28  C   UNL     1      -1.503  10.803  18.973  0.00  0.00    +0.000 A 
ATOM     29  C   UNL     1      -0.860  11.012  20.173  0.00  0.00    +0.000 A 
ATOM     30  O   UNL     1       0.429  10.582  20.107  0.00  0.00    +0.000 OA
ENDBRANCH  25  26
ENDBRANCH  23  25
ENDBRANCH   3  21
TORSDOF 6
ENDMDL
MODEL 4
REMARK VINA RESULT:      -7.5      1.592      2.391
REMARK  Name = 
REMARK  8 active torsions:
REMARK  status: ('A' for Active; 'I' for Inactive)
REMARK    1  A    between atoms: C_1  and  O_2
REMARK    2  A    between atoms: O_2  and  C_3
REMARK    3  A    between atoms: C_6  and  C_7
REMARK    4  A    between atoms: C_9  and  C_10
REMARK    5  A    between atoms: N_12  and  C_13
REMARK    6  A    between atoms: C_13  and  C_14
REMARK    7  A    between atoms: C_26  and  O_27
REMARK    8  A    between atoms: O_27  and  C_28
REMARK                            x       y       z     vdW  Elec       q    Type
REMARK                         _______ _______ _______ _____ _____    ______ ____
ROOT
ATOM      1  C   UNL     1       2.293   6.585  19.386  0.00  0.00    +0.000 A 
ATOM      2  C   UNL     1       3.638   6.512  19.093  0.00  0.00    +0.000 A 
ATOM      3  C   UNL     1       4.075   5.473  18.290  0.00  0.00    +0.000 A 
ATOM      4  C   UNL     1       3.361   4.274  18.291  0.00  0.00    +0.000 A 
ATOM      5  C   UNL     1       3.944   3.022  18.019  0.00  0.00    +0.000 A 
ATOM      6  C   UNL     1       3.195   1.856  18.126  0.00  0.00    +0.000 A 
ATOM      7  C   UNL     1       1.841   1.951  18.429  0.00  0.00    +0.000 A 
ATOM      8  C   UNL     1       1.261   3.201  18.675  0.00  0.00    +0.000 A 
ATOM      9  C   UNL     1       2.024   4.367  18.685  0.00  0.00    +0.000 A 
ATOM     10  N   UNL     1       1.490   5.532  19.089  0.00  0.00    +0.000 NA
ENDROOT
BRANCH   1  14
ATOM     11  C   UNL     1       0.270   9.913  21.253  0.00  0.00    +0.000 A 
ATOM     12  C   UNL     1       0.692   8.830  22.004  0.00  0.00    +0.000 A 
ATOM     13  C   UNL     1       1.430   7.811  21.409  0.00  0.00    +0.000 A 
ATOM     14  C   UNL     1       1.722   7.806  20.022  0.00  0.00    +0.000 A 
ATOM     15  C   UNL     1       1.360   8.959  19.293  0.00  0.00    +0.000 A 
ATOM     16  C   UNL     1       0.624   9.990  19.904  0.00  0.00    +0.000 A 
BRANCH  11  18
ATOM     17  C   UNL     1      -0.947  10.402  23.223  0.00  0.00    +0.000 C 
ATOM     18  O   UNL     1      -0.500  10.807  21.939  0.00  0.00    +0.000 OA
ENDBRANCH  11  18
BRANCH  15  19
ATOM     19  O   UNL     1       1.760   8.995  17.986  0.00  0.00    +0.000 OA
ATOM     20  C   UNL     1       2.534  10.079  17.512  0.00  0.00    +0.000 C 
ENDBRANCH  15  19
ENDBRANCH   1  14
BRANCH   3  21
ATOM     21  C   UNL     1       4.891   5.845  17.107  0.00  0.00    +0.000 C 
ATOM     22  O   UNL     1       4.668   6.856  16.450  0.00  0.00    +0.000 OA
ATOM     23  N   UNL     1       5.996   5.034  16.874  0.00  0.00    +0.000 N 
ATOM     24  H   UNL     1       6.267   4.364  17.584  0.00  0.00    +0.000 HD
BRANCH  23  25
ATOM     25  C   UNL     1       7.078   5.424  15.998  0.00  0.00    +0.000 C 
BRANCH  25  26
ATOM     26  C   UNL     1       6.857   4.835  14.654  0.00  0.00    +0.000 A 
ATOM     27  C   UNL     1       6.025   3.843  14.183  0.00  0.00    +0.000 A 
ATOM     28  C   UNL     1       6.301   3.703  12.803  0.00  0.00    +0.000 A 
ATOM     29  C   UNL     1       7.271   4.635  12.510  0.00  0.00    +0.000 A 
ATOM     30  O   UNL     1       7.615   5.335  13.626  0.00  0.00    +0.000 OA
ENDBRANCH  25  26
ENDBRANCH  23  25
ENDBRANCH   3  21
TORSDOF 6
ENDMDL
MODEL 5
REMARK VINA RESULT:      -7.5      1.451      1.620
REMARK  Name = 
REMARK  8 active torsions:
REMARK  status: ('A' for Active; 'I' for Inactive)
REMARK    1  A    between atoms: C_1  and  O_2
REMARK    2  A    between atoms: O_2  and  C_3
REMARK    3  A    between atoms: C_6  and  C_7
REMARK    4  A    between atoms: C_9  and  C_10
REMARK    5  A    between atoms: N_12  and  C_13
REMARK    6  A    between atoms: C_13  and  C_14
REMARK    7  A    between atoms: C_26  and  O_27
REMARK    8  A    between atoms: O_27  and  C_28
REMARK                            x       y       z     vdW  Elec       q    Type
REMARK                         _______ _______ _______ _____ _____    ______ ____
ROOT
ATOM      1  C   UNL     1       2.470   7.238  18.230  0.00  0.00    +0.000 A 
ATOM      2  C   UNL     1       3.818   7.081  17.991  0.00  0.00    +0.000 A 
ATOM      3  C   UNL     1       4.248   5.889  17.436  0.00  0.00    +0.000 A 
ATOM      4  C   UNL     1       3.508   4.729  17.672  0.00  0.00    +0.000 A 
ATOM      5  C   UNL     1       4.068   3.438  17.685  0.00  0.00    +0.000 A 
ATOM      6  C   UNL     1       3.291   2.335  18.018  0.00  0.00    +0.000 A 
ATOM      7  C   UNL     1       1.934   2.514  18.261  0.00  0.00    +0.000 A 
ATOM      8  C   UNL     1       1.377   3.798  18.224  0.00  0.00    +0.000 A 
ATOM      9  C   UNL     1       2.165   4.927  18.007  0.00  0.00    +0.000 A 
ATOM     10  N   UNL     1       1.649   6.159  18.143  0.00  0.00    +0.000 NA
ENDROOT
BRANCH   1  14
ATOM     11  C   UNL     1       1.254  11.243  19.293  0.00  0.00    +0.000 A 
ATOM     12  C   UNL     1       1.735  10.962  18.027  0.00  0.00    +0.000 A 
ATOM     13  C   UNL     1       2.029   9.651  17.665  0.00  0.00    +0.000 A 
ATOM     14  C   UNL     1       1.913   8.575  18.580  0.00  0.00    +0.000 A 
ATOM     15  C   UNL     1       1.337   8.868  19.835  0.00  0.00    +0.000 A 
ATOM     16  C   UNL     1       1.032  10.195  20.189  0.00  0.00    +0.000 A 
BRANCH  11  18
ATOM     17  C   UNL     1       1.672  13.477  18.632  0.00  0.00    +0.000 C 
ATOM     18  O   UNL     1       1.068  12.572  19.543  0.00  0.00    +0.000 OA
ENDBRANCH  11  18
BRANCH  15  19
ATOM     19  O   UNL     1       1.113   7.800  20.659  0.00  0.00    +0.000 OA
ATOM     20  C   UNL     1       0.332   7.958  21.827  0.00  0.00    +0.000 C 
ENDBRANCH  15  19
ENDBRANCH   1  14
BRANCH   3  21
ATOM     21  C   UNL     1       5.095   5.988  16.221  0.00  0.00    +0.000 C 
ATOM     22  O   UNL     1       5.042   6.950  15.463  0.00  0.00    +0.000 OA
ATOM     23  N   UNL     1       6.035   4.974  16.073  0.00  0.00    +0.000 N 
ATOM     24  H   UNL     1       6.197   4.343  16.849  0.00  0.00    +0.000 HD
BRANCH  23  25
ATOM     25  C   UNL     1       7.153   5.075  15.162  0.00  0.00    +0.000 C 
BRANCH  25  26
ATOM     26  C   UNL     1       6.789   4.448  13.868  0.00  0.00    +0.000 A 
ATOM     27  C   UNL     1       5.781   3.589  13.486  0.00  0.00    +0.000 A 
ATOM     28  C   UNL     1       5.982   3.312  12.113  0.00  0.00    +0.000 A 
ATOM     29  C   UNL     1       7.090   4.037  11.735  0.00  0.00    +0.000 A 
ATOM     30  O   UNL     1       7.587   4.737  12.791  0.00  0.00    +0.000 OA
ENDBRANCH  25  26
ENDBRANCH  23  25
ENDBRANCH   3  21
TORSDOF 6
ENDMDL
MODEL 6
REMARK VINA RESULT:      -7.5      1.857      2.424
REMARK  Name = 
REMARK  8 active torsions:
REMARK  status: ('A' for Active; 'I' for Inactive)
REMARK    1  A    between atoms: C_1  and  O_2
REMARK    2  A    between atoms: O_2  and  C_3
REMARK    3  A    between atoms: C_6  and  C_7
REMARK    4  A    between atoms: C_9  and  C_10
REMARK    5  A    between atoms: N_12  and  C_13
REMARK    6  A    between atoms: C_13  and  C_14
REMARK    7  A    between atoms: C_26  and  O_27
REMARK    8  A    between atoms: O_27  and  C_28
REMARK                            x       y       z     vdW  Elec       q    Type
REMARK                         _______ _______ _______ _____ _____    ______ ____
ROOT
ATOM      1  C   UNL     1       2.466   6.627  18.908  0.00  0.00    +0.000 A 
ATOM      2  C   UNL     1       3.718   6.314  19.393  0.00  0.00    +0.000 A 
ATOM      3  C   UNL     1       4.203   5.038  19.171  0.00  0.00    +0.000 A 
ATOM      4  C   UNL     1       3.296   3.986  19.033  0.00  0.00    +0.000 A 
ATOM      5  C   UNL     1       3.596   2.652  19.369  0.00  0.00    +0.000 A 
ATOM      6  C   UNL     1       2.617   1.668  19.294  0.00  0.00    +0.000 A 
ATOM      7  C   UNL     1       1.359   2.005  18.807  0.00  0.00    +0.000 A 
ATOM      8  C   UNL     1       1.074   3.328  18.452  0.00  0.00    +0.000 A 
ATOM      9  C   UNL     1       2.008   4.347  18.632  0.00  0.00    +0.000 A 
ATOM     10  N   UNL     1       1.663   5.632  18.448  0.00  0.00    +0.000 NA
ENDROOT
BRANCH   1  14
ATOM     11  C   UNL     1       1.499  10.836  18.897  0.00  0.00    +0.000 A 
ATOM     12  C   UNL     1       2.061  10.236  17.784  0.00  0.00    +0.000 A 
ATOM     13  C   UNL     1       2.276   8.861  17.763  0.00  0.00    +0.000 A 
ATOM     14  C   UNL     1       1.993   8.040  18.884  0.00  0.00    +0.000 A 
ATOM     15  C   UNL     1       1.340   8.655  19.973  0.00  0.00    +0.000 A 
ATOM     16  C   UNL     1       1.117  10.044  19.982  0.00  0.00    +0.000 A 
BRANCH  11  18
ATOM     17  C   UNL     1       0.623  12.834  19.813  0.00  0.00    +0.000 C 
ATOM     18  O   UNL     1       1.404  12.196  18.816  0.00  0.00    +0.000 OA
ENDBRANCH  11  18
BRANCH  15  19
ATOM     19  O   UNL     1       0.959   7.827  20.992  0.00  0.00    +0.000 OA
ATOM     20  C   UNL     1      -0.154   8.160  21.797  0.00  0.00    +0.000 C 
ENDBRANCH  15  19
ENDBRANCH   1  14
BRANCH   3  21
ATOM     21  C   UNL     1       5.549   4.937  18.554  0.00  0.00    +0.000 C 
ATOM     22  O   UNL     1       5.709   4.615  17.382  0.00  0.00    +0.000 OA
ATOM     23  N   UNL     1       6.602   5.351  19.363  0.00  0.00    +0.000 N 
ATOM     24  H   UNL     1       6.390   5.832  20.229  0.00  0.00    +0.000 HD
BRANCH  23  25
ATOM     25  C   UNL     1       7.918   5.645  18.840  0.00  0.00    +0.000 C 
BRANCH  25  26
ATOM     26  C   UNL     1       7.975   7.070  18.432  0.00  0.00    +0.000 A 
ATOM     27  C   UNL     1       7.384   7.785  17.413  0.00  0.00    +0.000 A 
ATOM     28  C   UNL     1       7.860   9.113  17.519  0.00  0.00    +0.000 A 
ATOM     29  C   UNL     1       8.698   9.132  18.612  0.00  0.00    +0.000 A 
ATOM     30  O   UNL     1       8.773   7.897  19.180  0.00  0.00    +0.000 OA
ENDBRANCH  25  26
ENDBRANCH  23  25
ENDBRANCH   3  21
TORSDOF 6
ENDMDL
MODEL 7
REMARK VINA RESULT:      -7.2      5.567      9.560
REMARK  Name = 
REMARK  8 active torsions:
REMARK  status: ('A' for Active; 'I' for Inactive)
REMARK    1  A    between atoms: C_1  and  O_2
REMARK    2  A    between atoms: O_2  and  C_3
REMARK    3  A    between atoms: C_6  and  C_7
REMARK    4  A    between atoms: C_9  and  C_10
REMARK    5  A    between atoms: N_12  and  C_13
REMARK    6  A    between atoms: C_13  and  C_14
REMARK    7  A    between atoms: C_26  and  O_27
REMARK    8  A    between atoms: O_27  and  C_28
REMARK                            x       y       z     vdW  Elec       q    Type
REMARK                         _______ _______ _______ _____ _____    ______ ____
ROOT
ATOM      1  C   UNL     1      -1.099  11.607  21.149  0.00  0.00    +0.000 A 
ATOM      2  C   UNL     1      -1.470  11.979  19.874  0.00  0.00    +0.000 A 
ATOM      3  C   UNL     1      -1.253  11.082  18.844  0.00  0.00    +0.000 A 
ATOM      4  C   UNL     1      -0.207  10.164  18.957  0.00  0.00    +0.000 A 
ATOM      5  C   UNL     1       0.475   9.622  17.851  0.00  0.00    +0.000 A 
ATOM      6  C   UNL     1       1.568   8.785  18.037  0.00  0.00    +0.000 A 
ATOM      7  C   UNL     1       1.929   8.426  19.331  0.00  0.00    +0.000 A 
ATOM      8  C   UNL     1       1.233   8.949  20.426  0.00  0.00    +0.000 A 
ATOM      9  C   UNL     1       0.210   9.881  20.260  0.00  0.00    +0.000 A 
ATOM     10  N   UNL     1      -0.332  10.500  21.322  0.00  0.00    +0.000 NA
ENDROOT
BRANCH   1  14
ATOM     11  C   UNL     1      -2.639  14.113  24.311  0.00  0.00    +0.000 A 
ATOM     12  C   UNL     1      -3.335  12.993  23.893  0.00  0.00    +0.000 A 
ATOM     13  C   UNL     1      -2.782  12.138  22.944  0.00  0.00    +0.000 A 
ATOM     14  C   UNL     1      -1.534  12.407  22.328  0.00  0.00    +0.000 A 
ATOM     15  C   UNL     1      -0.801  13.504  22.831  0.00  0.00    +0.000 A 
ATOM     16  C   UNL     1      -1.362  14.356  23.799  0.00  0.00    +0.000 A 
BRANCH  11  18
ATOM     17  C   UNL     1      -3.793  16.143  24.697  0.00  0.00    +0.000 C 
ATOM     18  O   UNL     1      -3.319  14.901  25.194  0.00  0.00    +0.000 OA
ENDBRANCH  11  18
BRANCH  15  19
ATOM     19  O   UNL     1       0.454  13.675  22.317  0.00  0.00    +0.000 OA
ATOM     20  C   UNL     1       0.890  14.962  21.927  0.00  0.00    +0.000 C 
ENDBRANCH  15  19
ENDBRANCH   1  14
BRANCH   3  21
ATOM     21  C   UNL     1      -2.419  10.768  17.979  0.00  0.00    +0.000 C 
ATOM     22  O   UNL     1      -2.725   9.618  17.687  0.00  0.00    +0.000 OA
ATOM     23  N   UNL     1      -3.205  11.860  17.630  0.00  0.00    +0.000 N 
ATOM     24  H   UNL     1      -3.044  12.745  18.096  0.00  0.00    +0.000 HD
BRANCH  23  25
ATOM     25  C   UNL     1      -4.540  11.720  17.093  0.00  0.00    +0.000 C 
BRANCH  25  26
ATOM     26  C   UNL     1      -5.510  11.627  18.211  0.00  0.00    +0.000 A 
ATOM     27  C   UNL     1      -6.768  11.076  18.327  0.00  0.00    +0.000 A 
ATOM     28  C   UNL     1      -7.208  11.343  19.645  0.00  0.00    +0.000 A 
ATOM     29  C   UNL     1      -6.181  12.023  20.261  0.00  0.00    +0.000 A 
ATOM     30  O   UNL     1      -5.140  12.198  19.402  0.00  0.00    +0.000 OA
ENDBRANCH  25  26
ENDBRANCH  23  25
ENDBRANCH   3  21
TORSDOF 6
ENDMDL
MODEL 8
REMARK VINA RESULT:      -7.1      3.813      9.885
REMARK  Name = 
REMARK  8 active torsions:
REMARK  status: ('A' for Active; 'I' for Inactive)
REMARK    1  A    between atoms: C_1  and  O_2
REMARK    2  A    between atoms: O_2  and  C_3
REMARK    3  A    between atoms: C_6  and  C_7
REMARK    4  A    between atoms: C_9  and  C_10
REMARK    5  A    between atoms: N_12  and  C_13
REMARK    6  A    between atoms: C_13  and  C_14
REMARK    7  A    between atoms: C_26  and  O_27
REMARK    8  A    between atoms: O_27  and  C_28
REMARK                            x       y       z     vdW  Elec       q    Type
REMARK                         _______ _______ _______ _____ _____    ______ ____
ROOT
ATOM      1  C   UNL     1       0.952  10.396  18.922  0.00  0.00    +0.000 A 
ATOM      2  C   UNL     1      -0.405  10.585  19.080  0.00  0.00    +0.000 A 
ATOM      3  C   UNL     1      -0.950  11.785  18.660  0.00  0.00    +0.000 A 
ATOM      4  C   UNL     1      -0.146  12.927  18.660  0.00  0.00    +0.000 A 
ATOM      5  C   UNL     1      -0.650  14.232  18.820  0.00  0.00    +0.000 A 
ATOM      6  C   UNL     1       0.214  15.317  18.903  0.00  0.00    +0.000 A 
ATOM      7  C   UNL     1       1.579  15.105  18.746  0.00  0.00    +0.000 A 
ATOM      8  C   UNL     1       2.073  13.808  18.564  0.00  0.00    +0.000 A 
ATOM      9  C   UNL     1       1.230  12.698  18.595  0.00  0.00    +0.000 A 
ATOM     10  N   UNL     1       1.736  11.454  18.591  0.00  0.00    +0.000 NA
ENDROOT
BRANCH   1  14
ATOM     11  C   UNL     1       2.366   6.330  19.267  0.00  0.00    +0.000 A 
ATOM     12  C   UNL     1       2.483   7.021  18.075  0.00  0.00    +0.000 A 
ATOM     13  C   UNL     1       2.117   8.362  18.004  0.00  0.00    +0.000 A 
ATOM     14  C   UNL     1       1.556   9.047  19.111  0.00  0.00    +0.000 A 
ATOM     15  C   UNL     1       1.526   8.352  20.339  0.00  0.00    +0.000 A 
ATOM     16  C   UNL     1       1.910   7.000  20.405  0.00  0.00    +0.000 A 
BRANCH  11  18
ATOM     17  C   UNL     1       1.658   4.080  19.461  0.00  0.00    +0.000 C 
ATOM     18  O   UNL     1       2.696   5.008  19.187  0.00  0.00    +0.000 OA
ENDBRANCH  11  18
BRANCH  15  19
ATOM     19  O   UNL     1       1.102   9.066  21.425  0.00  0.00    +0.000 OA
ATOM     20  C   UNL     1      -0.094   8.706  22.087  0.00  0.00    +0.000 C 
ENDBRANCH  15  19
ENDBRANCH   1  14
BRANCH   3  21
ATOM     21  C   UNL     1      -2.113  11.702  17.741  0.00  0.00    +0.000 C 
ATOM     22  O   UNL     1      -2.002  11.334  16.577  0.00  0.00    +0.000 OA
ATOM     23  N   UNL     1      -3.348  11.952  18.329  0.00  0.00    +0.000 N 
ATOM     24  H   UNL     1      -3.403  12.012  19.339  0.00  0.00    +0.000 HD
BRANCH  23  25
ATOM     25  C   UNL     1      -4.599  11.594  17.698  0.00  0.00    +0.000 C 
BRANCH  25  26
ATOM     26  C   UNL     1      -5.630  11.381  18.743  0.00  0.00    +0.000 A 
ATOM     27  C   UNL     1      -6.748  10.578  18.816  0.00  0.00    +0.000 A 
ATOM     28  C   UNL     1      -7.360  10.846  20.063  0.00  0.00    +0.000 A 
ATOM     29  C   UNL     1      -6.563  11.781  20.686  0.00  0.00    +0.000 A 
ATOM     30  O   UNL     1      -5.505  12.111  19.897  0.00  0.00    +0.000 OA
ENDBRANCH  25  26
ENDBRANCH  23  25
ENDBRANCH   3  21
TORSDOF 6
ENDMDL
MODEL 9
REMARK VINA RESULT:      -7.1      1.821      2.470
REMARK  Name = 
REMARK  8 active torsions:
REMARK  status: ('A' for Active; 'I' for Inactive)
REMARK    1  A    between atoms: C_1  and  O_2
REMARK    2  A    between atoms: O_2  and  C_3
REMARK    3  A    between atoms: C_6  and  C_7
REMARK    4  A    between atoms: C_9  and  C_10
REMARK    5  A    between atoms: N_12  and  C_13
REMARK    6  A    between atoms: C_13  and  C_14
REMARK    7  A    between atoms: C_26  and  O_27
REMARK    8  A    between atoms: O_27  and  C_28
REMARK                            x       y       z     vdW  Elec       q    Type
REMARK                         _______ _______ _______ _____ _____    ______ ____
ROOT
ATOM      1  C   UNL     1       1.752   7.157  20.386  0.00  0.00    +0.000 A 
ATOM      2  C   UNL     1       3.071   7.145  19.987  0.00  0.00    +0.000 A 
ATOM      3  C   UNL     1       3.536   6.037  19.302  0.00  0.00    +0.000 A 
ATOM      4  C   UNL     1       2.933   4.799  19.533  0.00  0.00    +0.000 A 
ATOM      5  C   UNL     1       3.603   3.569  19.389  0.00  0.00    +0.000 A 
ATOM      6  C   UNL     1       2.971   2.378  19.724  0.00  0.00    +0.000 A 
ATOM      7  C   UNL     1       1.641   2.411  20.129  0.00  0.00    +0.000 A 
ATOM      8  C   UNL     1       0.973   3.635  20.248  0.00  0.00    +0.000 A 
ATOM      9  C   UNL     1       1.627   4.846  20.028  0.00  0.00    +0.000 A 
ATOM     10  N   UNL     1       1.024   6.012  20.312  0.00  0.00    +0.000 NA
ENDROOT
BRANCH   1  14
ATOM     11  C   UNL     1      -0.411  10.556  21.942  0.00  0.00    +0.000 A 
ATOM     12  C   UNL     1       0.162   9.631  22.796  0.00  0.00    +0.000 A 
ATOM     13  C   UNL     1       0.941   8.596  22.286  0.00  0.00    +0.000 A 
ATOM     14  C   UNL     1       1.124   8.409  20.893  0.00  0.00    +0.000 A 
ATOM     15  C   UNL     1       0.606   9.412  20.045  0.00  0.00    +0.000 A 
ATOM     16  C   UNL     1      -0.170  10.461  20.569  0.00  0.00    +0.000 A 
BRANCH  11  18
ATOM     17  C   UNL     1      -1.876  12.401  21.720  0.00  0.00    +0.000 C 
ATOM     18  O   UNL     1      -1.203  11.479  22.562  0.00  0.00    +0.000 OA
ENDBRANCH  11  18
BRANCH  15  19
ATOM     19  O   UNL     1       0.899   9.286  18.716  0.00  0.00    +0.000 OA
ATOM     20  C   UNL     1       1.821  10.168  18.107  0.00  0.00    +0.000 C 
ENDBRANCH  15  19
ENDBRANCH   1  14
BRANCH   3  21
ATOM     21  C   UNL     1       4.222   6.293  18.011  0.00  0.00    +0.000 C 
ATOM     22  O   UNL     1       3.700   6.940  17.110  0.00  0.00    +0.000 OA
ATOM     23  N   UNL     1       5.540   5.854  17.946  0.00  0.00    +0.000 N 
ATOM     24  H   UNL     1       5.993   5.546  18.799  0.00  0.00    +0.000 HD
BRANCH  23  25
ATOM     25  C   UNL     1       6.462   6.303  16.926  0.00  0.00    +0.000 C 
BRANCH  25  26
ATOM     26  C   UNL     1       6.382   5.391  15.759  0.00  0.00    +0.000 A 
ATOM     27  C   UNL     1       5.505   4.390  15.401  0.00  0.00    +0.000 A 
ATOM     28  C   UNL     1       5.980   3.850  14.183  0.00  0.00    +0.000 A 
ATOM     29  C   UNL     1       7.107   4.572  13.858  0.00  0.00    +0.000 A 
ATOM     30  O   UNL     1       7.360   5.516  14.806  0.00  0.00    +0.000 OA
ENDBRANCH  25  26
ENDBRANCH  23  25
ENDBRANCH   3  21
TORSDOF 6
ENDMDL
