MODEL 1
REMARK VINA RESULT:      -7.1      0.000      0.000
REMARK  Name = 
REMARK  10 active torsions:
REMARK  status: ('A' for Active; 'I' for Inactive)
REMARK    1  A    between atoms: C_1  and  C_2
REMARK    2  A    between atoms: C_2  and  C_3
REMARK    3  A    between atoms: C_3  and  C_4
REMARK    4  A    between atoms: C_3  and  N_5
REMARK    5  A    between atoms: C_6  and  C_8
REMARK    6  A    between atoms: C_12  and  O_13
REMARK    7  A    between atoms: O_13  and  C_14
REMARK    8  A    between atoms: C_18  and  S_19
REMARK    9  A    between atoms: S_19  and  C_20
REMARK   10  A    between atoms: C_23  and  C_24
REMARK                            x       y       z     vdW  Elec       q    Type
REMARK                         _______ _______ _______ _____ _____    ______ ____
ROOT
ATOM      1  C   UNL     1       0.745   9.596  21.282  0.00  0.00    +0.000 A 
ATOM      2  N   UNL     1       1.184   8.298  21.438  0.00  0.00    +0.000 N 
ATOM      3  C   UNL     1       1.730   7.813  20.274  0.00  0.00    +0.000 A 
ATOM      4  C   UNL     1       2.317   6.569  19.999  0.00  0.00    +0.000 A 
ATOM      5  C   UNL     1       2.793   6.331  18.702  0.00  0.00    +0.000 A 
ATOM      6  C   UNL     1       2.687   7.320  17.727  0.00  0.00    +0.000 A 
ATOM      7  C   UNL     1       2.098   8.560  18.019  0.00  0.00    +0.000 A 
ATOM      8  C   UNL     1       1.605   8.816  19.316  0.00  0.00    +0.000 A 
ATOM      9  C   UNL     1       0.957   9.917  19.951  0.00  0.00    +0.000 A 
ATOM     10  H   UNL     1       1.128   7.791  22.313  0.00  0.00    +0.000 HD
ENDROOT
BRANCH   1  12
ATOM     11  N   UNL     1      -0.422  11.519  22.067  0.00  0.00    +0.000 N 
ATOM     12  C   UNL     1       0.165  10.320  22.391  0.00  0.00    +0.000 C 
ATOM     13  O   UNL     1       0.230   9.898  23.542  0.00  0.00    +0.000 OA
ATOM     14  H   UNL     1      -0.497  11.752  21.083  0.00  0.00    +0.000 HD
BRANCH  11  15
ATOM     15  C   UNL     1      -1.141  12.337  23.027  0.00  0.00    +0.000 C 
ATOM     16  C   UNL     1      -2.619  11.948  23.021  0.00  0.00    +0.000 C 
BRANCH  15  18
ATOM     17  C   UNL     1       0.328  14.155  22.002  0.00  0.00    +0.000 C 
ATOM     18  C   UNL     1      -0.983  13.831  22.706  0.00  0.00    +0.000 C 
ENDBRANCH  15  18
ENDBRANCH  11  15
ENDBRANCH   1  12
BRANCH   5  19
ATOM     19  O   UNL     1       3.347   5.089  18.522  0.00  0.00    +0.000 OA
ATOM     20  C   UNL     1       2.702   3.999  19.172  0.00  0.00    +0.000 C 
ENDBRANCH   5  19
BRANCH   9  21
ATOM     21  S   UNL     1       0.526  11.414  19.144  0.00  0.00    +0.000 S 
BRANCH  21  22
ATOM     22  C   UNL     1      -1.192  11.197  18.690  0.00  0.00    +0.000 A 
ATOM     23  C   UNL     1      -1.659  10.183  17.847  0.00  0.00    +0.000 A 
ATOM     24  C   UNL     1      -3.017  10.098  17.515  0.00  0.00    +0.000 A 
ATOM     25  C   UNL     1      -3.933  11.021  18.025  0.00  0.00    +0.000 A 
ATOM     26  C   UNL     1      -5.381  10.973  17.637  0.00  0.00    +0.000 C 
ATOM     27  C   UNL     1      -3.478  12.005  18.906  0.00  0.00    +0.000 A 
ATOM     28  C   UNL     1      -2.121  12.091  19.236  0.00  0.00    +0.000 A 
ENDBRANCH  21  22
ENDBRANCH   9  21
TORSDOF 6
ENDMDL
MODEL 2
REMARK VINA RESULT:      -7.0      5.149      9.947
REMARK  Name = 
REMARK  10 active torsions:
REMARK  status: ('A' for Active; 'I' for Inactive)
REMARK    1  A    between atoms: C_1  and  C_2
REMARK    2  A    between atoms: C_2  and  C_3
REMARK    3  A    between atoms: C_3  and  C_4
REMARK    4  A    between atoms: C_3  and  N_5
REMARK    5  A    between atoms: C_6  and  C_8
REMARK    6  A    between atoms: C_12  and  O_13
REMARK    7  A    between atoms: O_13  and  C_14
REMARK    8  A    between atoms: C_18  and  S_19
REMARK    9  A    between atoms: S_19  and  C_20
REMARK   10  A    between atoms: C_23  and  C_24
REMARK                            x       y       z     vdW  Elec       q    Type
REMARK                         _______ _______ _______ _____ _____    ______ ____
ROOT
ATOM      1  C   UNL     1       5.297   5.286  16.080  0.00  0.00    +0.000 A 
ATOM      2  N   UNL     1       5.003   6.629  16.194  0.00  0.00    +0.000 N 
ATOM      3  C   UNL     1       3.997   6.844  17.105  0.00  0.00    +0.000 A 
ATOM      4  C   UNL     1       3.415   8.042  17.546  0.00  0.00    +0.000 A 
ATOM      5  C   UNL     1       2.383   7.971  18.492  0.00  0.00    +0.000 A 
ATOM      6  C   UNL     1       1.967   6.734  18.979  0.00  0.00    +0.000 A 
ATOM      7  C   UNL     1       2.561   5.545  18.529  0.00  0.00    +0.000 A 
ATOM      8  C   UNL     1       3.594   5.595  17.570  0.00  0.00    +0.000 A 
ATOM      9  C   UNL     1       4.394   4.624  16.896  0.00  0.00    +0.000 A 
ATOM     10  H   UNL     1       5.493   7.354  15.683  0.00  0.00    +0.000 HD
ENDROOT
BRANCH   1  12
ATOM     11  N   UNL     1       5.928   4.289  14.011  0.00  0.00    +0.000 N 
ATOM     12  C   UNL     1       6.350   4.831  15.201  0.00  0.00    +0.000 C 
ATOM     13  O   UNL     1       7.534   4.899  15.520  0.00  0.00    +0.000 OA
ATOM     14  H   UNL     1       4.938   4.343  13.798  0.00  0.00    +0.000 HD
BRANCH  11  15
ATOM     15  C   UNL     1       6.839   3.869  12.961  0.00  0.00    +0.000 C 
ATOM     16  C   UNL     1       7.413   5.101  12.262  0.00  0.00    +0.000 C 
BRANCH  15  18
ATOM     17  C   UNL     1       4.658   3.314  11.759  0.00  0.00    +0.000 C 
ATOM     18  C   UNL     1       6.128   2.964  11.944  0.00  0.00    +0.000 C 
ENDBRANCH  15  18
ENDBRANCH  11  15
ENDBRANCH   1  12
BRANCH   5  19
ATOM     19  O   UNL     1       1.871   9.188  18.862  0.00  0.00    +0.000 OA
ATOM     20  C   UNL     1       2.032  10.259  17.938  0.00  0.00    +0.000 C 
ENDBRANCH   5  19
BRANCH   9  21
ATOM     21  S   UNL     1       4.234   2.890  17.104  0.00  0.00    +0.000 S 
BRANCH  21  22
ATOM     22  C   UNL     1       3.251   2.707  18.588  0.00  0.00    +0.000 A 
ATOM     23  C   UNL     1       1.873   2.470  18.593  0.00  0.00    +0.000 A 
ATOM     24  C   UNL     1       1.168   2.369  19.799  0.00  0.00    +0.000 A 
ATOM     25  C   UNL     1       1.831   2.496  21.022  0.00  0.00    +0.000 A 
ATOM     26  C   UNL     1       1.082   2.442  22.320  0.00  0.00    +0.000 C 
ATOM     27  C   UNL     1       3.216   2.684  21.022  0.00  0.00    +0.000 A 
ATOM     28  C   UNL     1       3.918   2.787  19.817  0.00  0.00    +0.000 A 
ENDBRANCH  21  22
ENDBRANCH   9  21
TORSDOF 6
ENDMDL
MODEL 3
REMARK VINA RESULT:      -7.0      0.512      1.151
REMARK  Name = 
REMARK  10 active torsions:
REMARK  status: ('A' for Active; 'I' for Inactive)
REMARK    1  A    between atoms: C_1  and  C_2
REMARK    2  A    between atoms: C_2  and  C_3
REMARK    3  A    between atoms: C_3  and  C_4
REMARK    4  A    between atoms: C_3  and  N_5
REMARK    5  A    between atoms: C_6  and  C_8
REMARK    6  A    between atoms: C_12  and  O_13
REMARK    7  A    between atoms: O_13  and  C_14
REMARK    8  A    between atoms: C_18  and  S_19
REMARK    9  A    between atoms: S_19  and  C_20
REMARK   10  A    between atoms: C_23  and  C_24
REMARK                            x       y       z     vdW  Elec       q    Type
REMARK                         _______ _______ _______ _____ _____    ______ ____
ROOT
ATOM      1  C   UNL     1       0.778   9.544  21.292  0.00  0.00    +0.000 A 
ATOM      2  N   UNL     1       1.171   8.230  21.445  0.00  0.00    +0.000 N 
ATOM      3  C   UNL     1       1.731   7.740  20.290  0.00  0.00    +0.000 A 
ATOM      4  C   UNL     1       2.285   6.480  20.016  0.00  0.00    +0.000 A 
ATOM      5  C   UNL     1       2.787   6.240  18.729  0.00  0.00    +0.000 A 
ATOM      6  C   UNL     1       2.739   7.243  17.763  0.00  0.00    +0.000 A 
ATOM      7  C   UNL     1       2.183   8.498  18.054  0.00  0.00    +0.000 A 
ATOM      8  C   UNL     1       1.664   8.756  19.340  0.00  0.00    +0.000 A 
ATOM      9  C   UNL     1       1.035   9.871  19.971  0.00  0.00    +0.000 A 
ATOM     10  H   UNL     1       1.075   7.716  22.312  0.00  0.00    +0.000 HD
ENDROOT
BRANCH   1  12
ATOM     11  N   UNL     1      -0.388  11.473  22.060  0.00  0.00    +0.000 N 
ATOM     12  C   UNL     1       0.193  10.274  22.394  0.00  0.00    +0.000 C 
ATOM     13  O   UNL     1       0.249   9.857  23.548  0.00  0.00    +0.000 OA
ATOM     14  H   UNL     1      -0.456  11.701  21.075  0.00  0.00    +0.000 HD
BRANCH  11  15
ATOM     15  C   UNL     1      -1.112  12.298  23.012  0.00  0.00    +0.000 C 
ATOM     16  C   UNL     1      -2.609  12.009  22.901  0.00  0.00    +0.000 C 
BRANCH  15  18
ATOM     17  C   UNL     1      -2.111  14.623  22.686  0.00  0.00    +0.000 C 
ATOM     18  C   UNL     1      -0.839  13.789  22.767  0.00  0.00    +0.000 C 
ENDBRANCH  15  18
ENDBRANCH  11  15
ENDBRANCH   1  12
BRANCH   5  19
ATOM     19  O   UNL     1       3.305   4.983  18.550  0.00  0.00    +0.000 OA
ATOM     20  C   UNL     1       4.610   4.748  19.065  0.00  0.00    +0.000 C 
ENDBRANCH   5  19
BRANCH   9  21
ATOM     21  S   UNL     1       0.675  11.390  19.170  0.00  0.00    +0.000 S 
BRANCH  21  22
ATOM     22  C   UNL     1      -1.057  11.264  18.736  0.00  0.00    +0.000 A 
ATOM     23  C   UNL     1      -2.045  12.146  19.186  0.00  0.00    +0.000 A 
ATOM     24  C   UNL     1      -3.386  11.963  18.825  0.00  0.00    +0.000 A 
ATOM     25  C   UNL     1      -3.761  10.899  18.002  0.00  0.00    +0.000 A 
ATOM     26  C   UNL     1      -5.200  10.660  17.649  0.00  0.00    +0.000 C 
ATOM     27  C   UNL     1      -2.770  10.045  17.510  0.00  0.00    +0.000 A 
ATOM     28  C   UNL     1      -1.432  10.227  17.873  0.00  0.00    +0.000 A 
ENDBRANCH  21  22
ENDBRANCH   9  21
TORSDOF 6
ENDMDL
MODEL 4
REMARK VINA RESULT:      -7.0      4.835      9.948
REMARK  Name = 
REMARK  10 active torsions:
REMARK  status: ('A' for Active; 'I' for Inactive)
REMARK    1  A    between atoms: C_1  and  C_2
REMARK    2  A    between atoms: C_2  and  C_3
REMARK    3  A    between atoms: C_3  and  C_4
REMARK    4  A    between atoms: C_3  and  N_5
REMARK    5  A    between atoms: C_6  and  C_8
REMARK    6  A    between atoms: C_12  and  O_13
REMARK    7  A    between atoms: O_13  and  C_14
REMARK    8  A    between atoms: C_18  and  S_19
REMARK    9  A    between atoms: S_19  and  C_20
REMARK   10  A    between atoms: C_23  and  C_24
REMARK                            x       y       z     vdW  Elec       q    Type
REMARK                         _______ _______ _______ _____ _____    ______ ____
ROOT
ATOM      1  C   UNL     1       5.321   5.299  16.012  0.00  0.00    +0.000 A 
ATOM      2  N   UNL     1       5.106   6.658  16.111  0.00  0.00    +0.000 N 
ATOM      3  C   UNL     1       4.091   6.939  16.993  0.00  0.00    +0.000 A 
ATOM      4  C   UNL     1       3.571   8.173  17.411  0.00  0.00    +0.000 A 
ATOM      5  C   UNL     1       2.511   8.172  18.329  0.00  0.00    +0.000 A 
ATOM      6  C   UNL     1       2.007   6.966  18.811  0.00  0.00    +0.000 A 
ATOM      7  C   UNL     1       2.540   5.739  18.384  0.00  0.00    +0.000 A 
ATOM      8  C   UNL     1       3.600   5.720  17.453  0.00  0.00    +0.000 A 
ATOM      9  C   UNL     1       4.358   4.698  16.807  0.00  0.00    +0.000 A 
ATOM     10  H   UNL     1       5.654   7.348  15.611  0.00  0.00    +0.000 HD
ENDROOT
BRANCH   1  12
ATOM     11  N   UNL     1       5.953   4.301  13.944  0.00  0.00    +0.000 N 
ATOM     12  C   UNL     1       6.368   4.775  15.165  0.00  0.00    +0.000 C 
ATOM     13  O   UNL     1       7.538   4.730  15.535  0.00  0.00    +0.000 OA
ATOM     14  H   UNL     1       4.982   4.447  13.691  0.00  0.00    +0.000 HD
BRANCH  11  15
ATOM     15  C   UNL     1       6.869   3.829  12.921  0.00  0.00    +0.000 C 
ATOM     16  C   UNL     1       7.469   5.026  12.184  0.00  0.00    +0.000 C 
BRANCH  15  18
ATOM     17  C   UNL     1       4.697   3.269  11.705  0.00  0.00    +0.000 C 
ATOM     18  C   UNL     1       6.156   2.897  11.930  0.00  0.00    +0.000 C 
ENDBRANCH  15  18
ENDBRANCH  11  15
ENDBRANCH   1  12
BRANCH   5  19
ATOM     19  O   UNL     1       2.064   9.420  18.679  0.00  0.00    +0.000 OA
ATOM     20  C   UNL     1       0.993   9.479  19.614  0.00  0.00    +0.000 C 
ENDBRANCH   5  19
BRANCH   9  21
ATOM     21  S   UNL     1       4.087   2.978  17.018  0.00  0.00    +0.000 S 
BRANCH  21  22
ATOM     22  C   UNL     1       3.265   2.848  18.603  0.00  0.00    +0.000 A 
ATOM     23  C   UNL     1       3.921   2.919  19.836  0.00  0.00    +0.000 A 
ATOM     24  C   UNL     1       3.210   2.779  21.034  0.00  0.00    +0.000 A 
ATOM     25  C   UNL     1       1.828   2.571  21.020  0.00  0.00    +0.000 A 
ATOM     26  C   UNL     1       1.061   2.367  22.293  0.00  0.00    +0.000 C 
ATOM     27  C   UNL     1       1.162   2.549  19.792  0.00  0.00    +0.000 A 
ATOM     28  C   UNL     1       1.874   2.687  18.596  0.00  0.00    +0.000 A 
ENDBRANCH  21  22
ENDBRANCH   9  21
TORSDOF 6
ENDMDL
MODEL 5
REMARK VINA RESULT:      -6.8      3.241      6.959
REMARK  Name = 
REMARK  10 active torsions:
REMARK  status: ('A' for Active; 'I' for Inactive)
REMARK    1  A    between atoms: C_1  and  C_2
REMARK    2  A    between atoms: C_2  and  C_3
REMARK    3  A    between atoms: C_3  and  C_4
REMARK    4  A    between atoms: C_3  and  N_5
REMARK    5  A    between atoms: C_6  and  C_8
REMARK    6  A    between atoms: C_12  and  O_13
REMARK    7  A    between atoms: O_13  and  C_14
REMARK    8  A    between atoms: C_18  and  S_19
REMARK    9  A    between atoms: S_19  and  C_20
REMARK   10  A    between atoms: C_23  and  C_24
REMARK                            x       y       z     vdW  Elec       q    Type
REMARK                         _______ _______ _______ _____ _____    ______ ____
ROOT
ATOM      1  C   UNL     1      -1.031  12.708  19.140  0.00  0.00    +0.000 A 
ATOM      2  N   UNL     1      -0.587  13.918  18.647  0.00  0.00    +0.000 N 
ATOM      3  C   UNL     1       0.674  14.211  19.106  0.00  0.00    +0.000 A 
ATOM      4  C   UNL     1       1.504  15.309  18.834  0.00  0.00    +0.000 A 
ATOM      5  C   UNL     1       2.761  15.363  19.453  0.00  0.00    +0.000 A 
ATOM      6  C   UNL     1       3.163  14.336  20.305  0.00  0.00    +0.000 A 
ATOM      7  C   UNL     1       2.322  13.243  20.565  0.00  0.00    +0.000 A 
ATOM      8  C   UNL     1       1.050  13.176  19.959  0.00  0.00    +0.000 A 
ATOM      9  C   UNL     1      -0.040  12.256  19.998  0.00  0.00    +0.000 A 
ATOM     10  H   UNL     1      -1.125  14.492  18.009  0.00  0.00    +0.000 HD
ENDROOT
BRANCH   1  12
ATOM     11  N   UNL     1      -2.414  11.732  17.466  0.00  0.00    +0.000 N 
ATOM     12  C   UNL     1      -2.322  12.183  18.760  0.00  0.00    +0.000 C 
ATOM     13  O   UNL     1      -3.272  12.178  19.538  0.00  0.00    +0.000 OA
ATOM     14  H   UNL     1      -1.561  11.704  16.919  0.00  0.00    +0.000 HD
BRANCH  11  15
ATOM     15  C   UNL     1      -3.599  11.081  16.933  0.00  0.00    +0.000 C 
ATOM     16  C   UNL     1      -3.653   9.637  17.431  0.00  0.00    +0.000 C 
BRANCH  15  18
ATOM     17  C   UNL     1      -3.034   9.848  14.772  0.00  0.00    +0.000 C 
ATOM     18  C   UNL     1      -3.602  11.114  15.398  0.00  0.00    +0.000 C 
ENDBRANCH  15  18
ENDBRANCH  11  15
ENDBRANCH   1  12
BRANCH   5  19
ATOM     19  O   UNL     1       3.501  16.472  19.134  0.00  0.00    +0.000 OA
ATOM     20  C   UNL     1       3.433  16.922  17.786  0.00  0.00    +0.000 C 
ENDBRANCH   5  19
BRANCH   9  21
ATOM     21  S   UNL     1      -0.075  10.801  20.977  0.00  0.00    +0.000 S 
BRANCH  21  22
ATOM     22  C   UNL     1       0.880   9.612  20.041  0.00  0.00    +0.000 A 
ATOM     23  C   UNL     1       1.237   9.773  18.698  0.00  0.00    +0.000 A 
ATOM     24  C   UNL     1       1.962   8.782  18.026  0.00  0.00    +0.000 A 
ATOM     25  C   UNL     1       2.350   7.613  18.687  0.00  0.00    +0.000 A 
ATOM     26  C   UNL     1       3.082   6.520  17.966  0.00  0.00    +0.000 C 
ATOM     27  C   UNL     1       2.039   7.471  20.042  0.00  0.00    +0.000 A 
ATOM     28  C   UNL     1       1.312   8.461  20.712  0.00  0.00    +0.000 A 
ENDBRANCH  21  22
ENDBRANCH   9  21
TORSDOF 6
ENDMDL
MODEL 6
REMARK VINA RESULT:      -6.8      4.904      8.021
REMARK  Name = 
REMARK  10 active torsions:
REMARK  status: ('A' for Active; 'I' for Inactive)
REMARK    1  A    between atoms: C_1  and  C_2
REMARK    2  A    between atoms: C_2  and  C_3
REMARK    3  A    between atoms: C_3  and  C_4
REMARK    4  A    between atoms: C_3  and  N_5
REMARK    5  A    between atoms: C_6  and  C_8
REMARK    6  A    between atoms: C_12  and  O_13
REMARK    7  A    between atoms: O_13  and  C_14
REMARK    8  A    between atoms: C_18  and  S_19
REMARK    9  A    between atoms: S_19  and  C_20
REMARK   10  A    between atoms: C_23  and  C_24
REMARK                            x       y       z     vdW  Elec       q    Type
REMARK                         _______ _______ _______ _____ _____    ______ ____
ROOT
ATOM      1  C   UNL     1       4.427   3.162  17.606  0.00  0.00    +0.000 A 
ATOM      2  N   UNL     1       4.781   2.840  16.311  0.00  0.00    +0.000 N 
ATOM      3  C   UNL     1       5.626   3.782  15.777  0.00  0.00    +0.000 A 
ATOM      4  C   UNL     1       6.245   3.834  14.519  0.00  0.00    +0.000 A 
ATOM      5  C   UNL     1       7.066   4.932  14.226  0.00  0.00    +0.000 A 
ATOM      6  C   UNL     1       7.260   5.932  15.177  0.00  0.00    +0.000 A 
ATOM      7  C   UNL     1       6.634   5.865  16.432  0.00  0.00    +0.000 A 
ATOM      8  C   UNL     1       5.797   4.772  16.742  0.00  0.00    +0.000 A 
ATOM      9  C   UNL     1       5.015   4.388  17.871  0.00  0.00    +0.000 A 
ATOM     10  H   UNL     1       4.469   2.000  15.840  0.00  0.00    +0.000 HD
ENDROOT
BRANCH   1  12
ATOM     11  N   UNL     1       2.569   2.921  19.075  0.00  0.00    +0.000 N 
ATOM     12  C   UNL     1       3.569   2.290  18.376  0.00  0.00    +0.000 C 
ATOM     13  O   UNL     1       3.753   1.077  18.423  0.00  0.00    +0.000 OA
ATOM     14  H   UNL     1       2.444   3.915  18.918  0.00  0.00    +0.000 HD
BRANCH  11  15
ATOM     15  C   UNL     1       1.550   2.206  19.824  0.00  0.00    +0.000 C 
ATOM     16  C   UNL     1       0.180   2.470  19.200  0.00  0.00    +0.000 C 
BRANCH  15  18
ATOM     17  C   UNL     1       2.266   3.955  21.540  0.00  0.00    +0.000 C 
ATOM     18  C   UNL     1       1.552   2.631  21.300  0.00  0.00    +0.000 C 
ENDBRANCH  15  18
ENDBRANCH  11  15
ENDBRANCH   1  12
BRANCH   5  19
ATOM     19  O   UNL     1       7.625   4.902  12.975  0.00  0.00    +0.000 OA
ATOM     20  C   UNL     1       7.060   3.988  12.042  0.00  0.00    +0.000 C 
ENDBRANCH   5  19
BRANCH   9  21
ATOM     21  S   UNL     1       4.858   5.337  19.338  0.00  0.00    +0.000 S 
BRANCH  21  22
ATOM     22  C   UNL     1       3.661   6.602  18.925  0.00  0.00    +0.000 A 
ATOM     23  C   UNL     1       3.650   7.308  17.718  0.00  0.00    +0.000 A 
ATOM     24  C   UNL     1       2.696   8.306  17.481  0.00  0.00    +0.000 A 
ATOM     25  C   UNL     1       1.732   8.611  18.445  0.00  0.00    +0.000 A 
ATOM     26  C   UNL     1       0.737   9.712  18.226  0.00  0.00    +0.000 C 
ATOM     27  C   UNL     1       1.709   7.874  19.632  0.00  0.00    +0.000 A 
ATOM     28  C   UNL     1       2.664   6.879  19.868  0.00  0.00    +0.000 A 
ENDBRANCH  21  22
ENDBRANCH   9  21
TORSDOF 6
ENDMDL
MODEL 7
REMARK VINA RESULT:      -6.8      3.147      6.917
REMARK  Name = 
REMARK  10 active torsions:
REMARK  status: ('A' for Active; 'I' for Inactive)
REMARK    1  A    between atoms: C_1  and  C_2
REMARK    2  A    between atoms: C_2  and  C_3
REMARK    3  A    between atoms: C_3  and  C_4
REMARK    4  A    between atoms: C_3  and  N_5
REMARK    5  A    between atoms: C_6  and  C_8
REMARK    6  A    between atoms: C_12  and  O_13
REMARK    7  A    between atoms: O_13  and  C_14
REMARK    8  A    between atoms: C_18  and  S_19
REMARK    9  A    between atoms: S_19  and  C_20
REMARK   10  A    between atoms: C_23  and  C_24
REMARK                            x       y       z     vdW  Elec       q    Type
REMARK                         _______ _______ _______ _____ _____    ______ ____
ROOT
ATOM      1  C   UNL     1      -1.406  12.070  18.767  0.00  0.00    +0.000 A 
ATOM      2  N   UNL     1      -1.117  13.341  18.313  0.00  0.00    +0.000 N 
ATOM      3  C   UNL     1       0.052  13.812  18.859  0.00  0.00    +0.000 A 
ATOM      4  C   UNL     1       0.724  15.026  18.651  0.00  0.00    +0.000 A 
ATOM      5  C   UNL     1       1.914  15.257  19.355  0.00  0.00    +0.000 A 
ATOM      6  C   UNL     1       2.408  14.288  20.226  0.00  0.00    +0.000 A 
ATOM      7  C   UNL     1       1.725  13.078  20.421  0.00  0.00    +0.000 A 
ATOM      8  C   UNL     1       0.521  12.831  19.729  0.00  0.00    +0.000 A 
ATOM      9  C   UNL     1      -0.419  11.758  19.688  0.00  0.00    +0.000 A 
ATOM     10  H   UNL     1      -1.691  13.838  17.643  0.00  0.00    +0.000 HD
ENDROOT
BRANCH   1  12
ATOM     11  N   UNL     1      -3.778  11.960  18.590  0.00  0.00    +0.000 N 
ATOM     12  C   UNL     1      -2.575  11.364  18.296  0.00  0.00    +0.000 C 
ATOM     13  O   UNL     1      -2.489  10.291  17.707  0.00  0.00    +0.000 OA
ATOM     14  H   UNL     1      -3.753  12.881  19.012  0.00  0.00    +0.000 HD
BRANCH  11  15
ATOM     15  C   UNL     1      -5.054  11.452  18.115  0.00  0.00    +0.000 C 
ATOM     16  C   UNL     1      -5.582  12.361  17.006  0.00  0.00    +0.000 C 
BRANCH  15  18
ATOM     17  C   UNL     1      -6.875  10.071  19.250  0.00  0.00    +0.000 C 
ATOM     18  C   UNL     1      -6.073  11.365  19.261  0.00  0.00    +0.000 C 
ENDBRANCH  15  18
ENDBRANCH  11  15
ENDBRANCH   1  12
BRANCH   5  19
ATOM     19  O   UNL     1       2.499  16.469  19.094  0.00  0.00    +0.000 OA
ATOM     20  C   UNL     1       2.664  16.820  17.725  0.00  0.00    +0.000 C 
ENDBRANCH   5  19
BRANCH   9  21
ATOM     21  S   UNL     1      -0.300  10.298  20.653  0.00  0.00    +0.000 S 
BRANCH  21  22
ATOM     22  C   UNL     1       0.850   9.262  19.755  0.00  0.00    +0.000 A 
ATOM     23  C   UNL     1       1.240   9.487  18.431  0.00  0.00    +0.000 A 
ATOM     24  C   UNL     1       2.124   8.612  17.787  0.00  0.00    +0.000 A 
ATOM     25  C   UNL     1       2.640   7.500  18.458  0.00  0.00    +0.000 A 
ATOM     26  C   UNL     1       3.546   6.527  17.766  0.00  0.00    +0.000 C 
ATOM     27  C   UNL     1       2.291   7.301  19.797  0.00  0.00    +0.000 A 
ATOM     28  C   UNL     1       1.407   8.174  20.438  0.00  0.00    +0.000 A 
ENDBRANCH  21  22
ENDBRANCH   9  21
TORSDOF 6
ENDMDL
MODEL 8
REMARK VINA RESULT:      -6.7      1.076      1.551
REMARK  Name = 
REMARK  10 active torsions:
REMARK  status: ('A' for Active; 'I' for Inactive)
REMARK    1  A    between atoms: C_1  and  C_2
REMARK    2  A    between atoms: C_2  and  C_3
REMARK    3  A    between atoms: C_3  and  C_4
REMARK    4  A    between atoms: C_3  and  N_5
REMARK    5  A    between atoms: C_6  and  C_8
REMARK    6  A    between atoms: C_12  and  O_13
REMARK    7  A    between atoms: O_13  and  C_14
REMARK    8  A    between atoms: C_18  and  S_19
REMARK    9  A    between atoms: S_19  and  C_20
REMARK   10  A    between atoms: C_23  and  C_24
REMARK                            x       y       z     vdW  Elec       q    Type
REMARK                         _______ _______ _______ _____ _____    ______ ____
ROOT
ATOM      1  C   UNL     1       0.226  10.170  21.334  0.00  0.00    +0.000 A 
ATOM      2  N   UNL     1       0.783   8.910  21.400  0.00  0.00    +0.000 N 
ATOM      3  C   UNL     1       1.363   8.558  20.206  0.00  0.00    +0.000 A 
ATOM      4  C   UNL     1       2.060   7.395  19.845  0.00  0.00    +0.000 A 
ATOM      5  C   UNL     1       2.548   7.290  18.535  0.00  0.00    +0.000 A 
ATOM      6  C   UNL     1       2.345   8.330  17.630  0.00  0.00    +0.000 A 
ATOM      7  C   UNL     1       1.647   9.488  18.007  0.00  0.00    +0.000 A 
ATOM      8  C   UNL     1       1.141   9.608  19.319  0.00  0.00    +0.000 A 
ATOM      9  C   UNL     1       0.399  10.599  20.028  0.00  0.00    +0.000 A 
ATOM     10  H   UNL     1       0.779   8.341  22.238  0.00  0.00    +0.000 HD
ENDROOT
BRANCH   1  12
ATOM     11  N   UNL     1      -0.746  12.086  22.363  0.00  0.00    +0.000 N 
ATOM     12  C   UNL     1      -0.411  10.760  22.490  0.00  0.00    +0.000 C 
ATOM     13  O   UNL     1      -0.601  10.120  23.520  0.00  0.00    +0.000 OA
ATOM     14  H   UNL     1      -0.622  12.514  21.452  0.00  0.00    +0.000 HD
BRANCH  11  15
ATOM     15  C   UNL     1      -1.479  12.822  23.378  0.00  0.00    +0.000 C 
ATOM     16  C   UNL     1      -2.980  12.617  23.170  0.00  0.00    +0.000 C 
BRANCH  15  18
ATOM     17  C   UNL     1      -1.439  15.042  24.636  0.00  0.00    +0.000 C 
ATOM     18  C   UNL     1      -1.135  14.318  23.331  0.00  0.00    +0.000 C 
ENDBRANCH  15  18
ENDBRANCH  11  15
ENDBRANCH   1  12
BRANCH   5  19
ATOM     19  O   UNL     1       3.211   6.120  18.271  0.00  0.00    +0.000 OA
ATOM     20  C   UNL     1       4.517   6.235  17.717  0.00  0.00    +0.000 C 
ENDBRANCH   5  19
BRANCH   9  21
ATOM     21  S   UNL     1      -0.173  12.102  19.326  0.00  0.00    +0.000 S 
BRANCH  21  22
ATOM     22  C   UNL     1      -1.905  11.806  18.990  0.00  0.00    +0.000 A 
ATOM     23  C   UNL     1      -2.954  12.506  19.597  0.00  0.00    +0.000 A 
ATOM     24  C   UNL     1      -4.287  12.195  19.302  0.00  0.00    +0.000 A 
ATOM     25  C   UNL     1      -4.596  11.182  18.390  0.00  0.00    +0.000 A 
ATOM     26  C   UNL     1      -6.019  10.803  18.104  0.00  0.00    +0.000 C 
ATOM     27  C   UNL     1      -3.551  10.515  17.746  0.00  0.00    +0.000 A 
ATOM     28  C   UNL     1      -2.220  10.825  18.042  0.00  0.00    +0.000 A 
ENDBRANCH  21  22
ENDBRANCH   9  21
TORSDOF 6
ENDMDL
MODEL 9
REMARK VINA RESULT:      -6.7      3.537      6.336
REMARK  Name = 
REMARK  10 active torsions:
REMARK  status: ('A' for Active; 'I' for Inactive)
REMARK    1  A    between atoms: C_1  and  C_2
REMARK    2  A    between atoms: C_2  and  C_3
REMARK    3  A    between atoms: C_3  and  C_4
REMARK    4  A    between atoms: C_3  and  N_5
REMARK    5  A    between atoms: C_6  and  C_8
REMARK    6  A    between atoms: C_12  and  O_13
REMARK    7  A    between atoms: O_13  and  C_14
REMARK    8  A    between atoms: C_18  and  S_19
REMARK    9  A    between atoms: S_19  and  C_20
REMARK   10  A    between atoms: C_23  and  C_24
REMARK                            x       y       z     vdW  Elec       q    Type
REMARK                         _______ _______ _______ _____ _____    ______ ____
ROOT
ATOM      1  C   UNL     1      -4.082  12.774  20.205  0.00  0.00    +0.000 A 
ATOM      2  N   UNL     1      -4.897  12.418  19.150  0.00  0.00    +0.000 N 
ATOM      3  C   UNL     1      -4.180  11.813  18.147  0.00  0.00    +0.000 A 
ATOM      4  C   UNL     1      -4.609  11.274  16.925  0.00  0.00    +0.000 A 
ATOM      5  C   UNL     1      -3.648  10.715  16.071  0.00  0.00    +0.000 A 
ATOM      6  C   UNL     1      -2.307  10.694  16.447  0.00  0.00    +0.000 A 
ATOM      7  C   UNL     1      -1.894  11.236  17.675  0.00  0.00    +0.000 A 
ATOM      8  C   UNL     1      -2.845  11.811  18.544  0.00  0.00    +0.000 A 
ATOM      9  C   UNL     1      -2.792  12.446  19.821  0.00  0.00    +0.000 A 
ATOM     10  H   UNL     1      -5.899  12.567  19.144  0.00  0.00    +0.000 HD
ENDROOT
BRANCH   1  12
ATOM     11  N   UNL     1      -4.827  12.555  22.456  0.00  0.00    +0.000 N 
ATOM     12  C   UNL     1      -4.632  13.396  21.388  0.00  0.00    +0.000 C 
ATOM     13  O   UNL     1      -4.932  14.586  21.413  0.00  0.00    +0.000 OA
ATOM     14  H   UNL     1      -4.481  11.605  22.373  0.00  0.00    +0.000 HD
BRANCH  11  15
ATOM     15  C   UNL     1      -5.276  13.015  23.759  0.00  0.00    +0.000 C 
ATOM     16  C   UNL     1      -4.401  12.394  24.847  0.00  0.00    +0.000 C 
BRANCH  15  18
ATOM     17  C   UNL     1      -7.682  13.855  23.896  0.00  0.00    +0.000 C 
ATOM     18  C   UNL     1      -6.751  12.654  23.992  0.00  0.00    +0.000 C 
ENDBRANCH  15  18
ENDBRANCH  11  15
ENDBRANCH   1  12
BRANCH   5  19
ATOM     19  O   UNL     1      -4.156  10.217  14.898  0.00  0.00    +0.000 OA
ATOM     20  C   UNL     1      -3.237  10.039  13.827  0.00  0.00    +0.000 C 
ENDBRANCH   5  19
BRANCH   9  21
ATOM     21  S   UNL     1      -1.316  12.734  20.725  0.00  0.00    +0.000 S 
BRANCH  21  22
ATOM     22  C   UNL     1      -0.567  11.116  20.881  0.00  0.00    +0.000 A 
ATOM     23  C   UNL     1      -0.837  10.223  21.923  0.00  0.00    +0.000 A 
ATOM     24  C   UNL     1      -0.186   8.985  21.991  0.00  0.00    +0.000 A 
ATOM     25  C   UNL     1       0.743   8.615  21.014  0.00  0.00    +0.000 A 
ATOM     26  C   UNL     1       1.486   7.315  21.102  0.00  0.00    +0.000 C 
ATOM     27  C   UNL     1       0.978   9.484  19.946  0.00  0.00    +0.000 A 
ATOM     28  C   UNL     1       0.329  10.721  19.880  0.00  0.00    +0.000 A 
ENDBRANCH  21  22
ENDBRANCH   9  21
TORSDOF 6
ENDMDL
