MODEL 1
REMARK VINA RESULT:      -8.2      0.000      0.000
REMARK  Name = 
REMARK  7 active torsions:
REMARK  status: ('A' for Active; 'I' for Inactive)
REMARK    1  A    between atoms: C_1  and  N_2
REMARK    2  A    between atoms: N_2  and  C_3
REMARK    3  A    between atoms: N_2  and  C_4
REMARK    4  A    between atoms: C_4  and  C_5
REMARK    5  A    between atoms: C_8  and  C_9
REMARK    6  A    between atoms: C_13  and  N_14
REMARK    7  A    between atoms: N_14  and  C_15
REMARK                            x       y       z     vdW  Elec       q    Type
REMARK                         _______ _______ _______ _____ _____    ______ ____
ROOT
ATOM      1  C   UNL     1       2.335   7.850  18.581  0.00  0.00    +0.000 A 
ATOM      2  C   UNL     1       1.853   8.921  17.827  0.00  0.00    +0.000 A 
ATOM      3  C   UNL     1       1.038   9.900  18.404  0.00  0.00    +0.000 A 
ATOM      4  C   UNL     1       0.661   9.826  19.766  0.00  0.00    +0.000 A 
ATOM      5  C   UNL     1      -0.165  10.789  20.407  0.00  0.00    +0.000 A 
ATOM      6  C   UNL     1      -0.414  10.651  21.773  0.00  0.00    +0.000 A 
ATOM      7  C   UNL     1       0.157   9.590  22.444  0.00  0.00    +0.000 A 
ATOM      8  N   UNL     1       0.916   8.646  21.850  0.00  0.00    +0.000 NA
ATOM      9  C   UNL     1       1.162   8.759  20.543  0.00  0.00    +0.000 A 
ATOM     10  C   UNL     1       1.960   7.789  19.933  0.00  0.00    +0.000 A 
ENDROOT
BRANCH   1  14
ATOM     11  C   UNL     1       3.916   4.785  17.642  0.00  0.00    +0.000 A 
ATOM     12  C   UNL     1       4.726   5.591  16.872  0.00  0.00    +0.000 A 
ATOM     13  C   UNL     1       4.309   6.926  17.111  0.00  0.00    +0.000 A 
ATOM     14  C   UNL     1       3.251   6.863  17.997  0.00  0.00    +0.000 A 
ATOM     15  O   UNL     1       3.025   5.553  18.334  0.00  0.00    +0.000 OA
BRANCH  11  16
ATOM     16  C   UNL     1       3.827   3.303  17.840  0.00  0.00    +0.000 C 
BRANCH  16  18
ATOM     17  C   UNL     1       2.145   2.012  19.018  0.00  0.00    +0.000 C 
ATOM     18  N   UNL     1       3.284   2.922  19.161  0.00  0.00    +0.000 NA
ATOM     19  C   UNL     1       4.324   2.268  19.965  0.00  0.00    +0.000 C 
ENDBRANCH  16  18
ENDBRANCH  11  16
ENDBRANCH   1  14
BRANCH   5  20
ATOM     20  N   UNL     1      -0.791  11.828  19.669  0.00  0.00    +0.000 N 
ATOM     21  H   UNL     1      -0.129  12.306  19.057  0.00  0.00    +0.000 HD
BRANCH  20  22
ATOM     22  C   UNL     1      -2.117  11.884  19.173  0.00  0.00    +0.000 A 
ATOM     23  C   UNL     1      -2.474  11.250  17.976  0.00  0.00    +0.000 A 
ATOM     24  C   UNL     1      -3.812  11.150  17.584  0.00  0.00    +0.000 A 
ATOM     25  C   UNL     1      -4.814  11.683  18.392  0.00  0.00    +0.000 A 
ATOM     26 CL   UNL     1      -6.463  11.454  17.960  0.00  0.00    +0.000 Cl
ATOM     27  C   UNL     1      -4.487  12.360  19.562  0.00  0.00    +0.000 A 
ATOM     28  C   UNL     1      -3.148  12.455  19.940  0.00  0.00    +0.000 A 
ATOM     29  F   UNL     1      -2.846  13.096  21.080  0.00  0.00    +0.000 F 
ENDBRANCH  20  22
ENDBRANCH   5  20
TORSDOF 5
ENDMDL
MODEL 2
REMARK VINA RESULT:      -8.2      4.525      9.538
REMARK  Name = 
REMARK  7 active torsions:
REMARK  status: ('A' for Active; 'I' for Inactive)
REMARK    1  A    between atoms: C_1  and  N_2
REMARK    2  A    between atoms: N_2  and  C_3
REMARK    3  A    between atoms: N_2  and  C_4
REMARK    4  A    between atoms: C_4  and  C_5
REMARK    5  A    between atoms: C_8  and  C_9
REMARK    6  A    between atoms: C_13  and  N_14
REMARK    7  A    between atoms: N_14  and  C_15
REMARK                            x       y       z     vdW  Elec       q    Type
REMARK                         _______ _______ _______ _____ _____    ______ ____
ROOT
ATOM      1  C   UNL     1      -0.882  10.996  22.246  0.00  0.00    +0.000 A 
ATOM      2  C   UNL     1      -0.373   9.919  22.975  0.00  0.00    +0.000 A 
ATOM      3  C   UNL     1       0.445   8.960  22.368  0.00  0.00    +0.000 A 
ATOM      4  C   UNL     1       0.769   9.041  20.993  0.00  0.00    +0.000 A 
ATOM      5  C   UNL     1       1.593   8.098  20.321  0.00  0.00    +0.000 A 
ATOM      6  C   UNL     1       1.901   8.318  18.979  0.00  0.00    +0.000 A 
ATOM      7  C   UNL     1       1.399   9.444  18.361  0.00  0.00    +0.000 A 
ATOM      8  N   UNL     1       0.588  10.335  18.969  0.00  0.00    +0.000 NA
ATOM      9  C   UNL     1       0.278  10.139  20.253  0.00  0.00    +0.000 A 
ATOM     10  C   UNL     1      -0.550  11.070  20.884  0.00  0.00    +0.000 A 
ENDROOT
BRANCH   1  14
ATOM     11  C   UNL     1      -3.519  12.767  23.883  0.00  0.00    +0.000 A 
ATOM     12  C   UNL     1      -2.600  13.790  23.971  0.00  0.00    +0.000 A 
ATOM     13  C   UNL     1      -1.423  13.331  23.326  0.00  0.00    +0.000 A 
ATOM     14  C   UNL     1      -1.678  12.042  22.898  0.00  0.00    +0.000 A 
ATOM     15  O   UNL     1      -2.967  11.707  23.224  0.00  0.00    +0.000 OA
BRANCH  11  16
ATOM     16  C   UNL     1      -4.929  12.605  24.361  0.00  0.00    +0.000 C 
BRANCH  16  18
ATOM     17  C   UNL     1      -5.890  13.331  22.256  0.00  0.00    +0.000 C 
ATOM     18  N   UNL     1      -5.878  13.531  23.707  0.00  0.00    +0.000 NA
ATOM     19  C   UNL     1      -7.232  13.321  24.233  0.00  0.00    +0.000 C 
ENDBRANCH  16  18
ENDBRANCH  11  16
ENDBRANCH   1  14
BRANCH   5  20
ATOM     20  N   UNL     1       2.035   6.915  20.971  0.00  0.00    +0.000 N 
ATOM     21  H   UNL     1       1.774   6.908  21.957  0.00  0.00    +0.000 HD
BRANCH  20  22
ATOM     22  C   UNL     1       2.157   5.608  20.438  0.00  0.00    +0.000 A 
ATOM     23  C   UNL     1       1.078   4.714  20.446  0.00  0.00    +0.000 A 
ATOM     24  C   UNL     1       1.143   3.499  19.759  0.00  0.00    +0.000 A 
ATOM     25  C   UNL     1       2.293   3.164  19.049  0.00  0.00    +0.000 A 
ATOM     26 CL   UNL     1       2.322   1.720  18.113  0.00  0.00    +0.000 Cl
ATOM     27  C   UNL     1       3.398   4.008  19.062  0.00  0.00    +0.000 A 
ATOM     28  C   UNL     1       3.321   5.216  19.753  0.00  0.00    +0.000 A 
ATOM     29  F   UNL     1       4.387   6.031  19.744  0.00  0.00    +0.000 F 
ENDBRANCH  20  22
ENDBRANCH   5  20
TORSDOF 5
ENDMDL
MODEL 3
REMARK VINA RESULT:      -8.2      0.970      1.330
REMARK  Name = 
REMARK  7 active torsions:
REMARK  status: ('A' for Active; 'I' for Inactive)
REMARK    1  A    between atoms: C_1  and  N_2
REMARK    2  A    between atoms: N_2  and  C_3
REMARK    3  A    between atoms: N_2  and  C_4
REMARK    4  A    between atoms: C_4  and  C_5
REMARK    5  A    between atoms: C_8  and  C_9
REMARK    6  A    between atoms: C_13  and  N_14
REMARK    7  A    between atoms: N_14  and  C_15
REMARK                            x       y       z     vdW  Elec       q    Type
REMARK                         _______ _______ _______ _____ _____    ______ ____
ROOT
ATOM      1  C   UNL     1       2.200   7.917  18.595  0.00  0.00    +0.000 A 
ATOM      2  C   UNL     1       1.624   8.882  17.766  0.00  0.00    +0.000 A 
ATOM      3  C   UNL     1       0.767   9.858  18.284  0.00  0.00    +0.000 A 
ATOM      4  C   UNL     1       0.442   9.889  19.661  0.00  0.00    +0.000 A 
ATOM      5  C   UNL     1      -0.423  10.854  20.245  0.00  0.00    +0.000 A 
ATOM      6  C   UNL     1      -0.615  10.829  21.626  0.00  0.00    +0.000 A 
ATOM      7  C   UNL     1       0.046   9.873  22.368  0.00  0.00    +0.000 A 
ATOM      8  N   UNL     1       0.844   8.926  21.832  0.00  0.00    +0.000 NA
ATOM      9  C   UNL     1       1.038   8.932  20.511  0.00  0.00    +0.000 A 
ATOM     10  C   UNL     1       1.876   7.960  19.961  0.00  0.00    +0.000 A 
ENDROOT
BRANCH   1  14
ATOM     11  C   UNL     1       3.821   4.865  17.687  0.00  0.00    +0.000 A 
ATOM     12  C   UNL     1       4.724   5.687  17.049  0.00  0.00    +0.000 A 
ATOM     13  C   UNL     1       4.307   7.019  17.305  0.00  0.00    +0.000 A 
ATOM     14  C   UNL     1       3.157   6.939  18.066  0.00  0.00    +0.000 A 
ATOM     15  O   UNL     1       2.873   5.620  18.313  0.00  0.00    +0.000 OA
BRANCH  11  16
ATOM     16  C   UNL     1       3.686   3.378  17.802  0.00  0.00    +0.000 C 
BRANCH  16  18
ATOM     17  C   UNL     1       2.131   1.960  19.009  0.00  0.00    +0.000 C 
ATOM     18  N   UNL     1       3.218   2.935  19.132  0.00  0.00    +0.000 NA
ATOM     19  C   UNL     1       4.325   2.329  19.882  0.00  0.00    +0.000 C 
ENDBRANCH  16  18
ENDBRANCH  11  16
ENDBRANCH   1  14
BRANCH   5  20
ATOM     20  N   UNL     1      -1.139  11.780  19.440  0.00  0.00    +0.000 N 
ATOM     21  H   UNL     1      -0.548  12.183  18.713  0.00  0.00    +0.000 HD
BRANCH  20  22
ATOM     22  C   UNL     1      -2.506  11.753  19.068  0.00  0.00    +0.000 A 
ATOM     23  C   UNL     1      -3.488  12.370  19.855  0.00  0.00    +0.000 A 
ATOM     24  C   UNL     1      -4.801  12.502  19.397  0.00  0.00    +0.000 A 
ATOM     25  C   UNL     1      -5.149  12.019  18.138  0.00  0.00    +0.000 A 
ATOM     26 CL   UNL     1      -6.738  12.287  17.535  0.00  0.00    +0.000 Cl
ATOM     27  C   UNL     1      -4.209  11.359  17.354  0.00  0.00    +0.000 A 
ATOM     28  C   UNL     1      -2.902  11.233  17.823  0.00  0.00    +0.000 A 
ATOM     29  F   UNL     1      -1.998  10.610  17.051  0.00  0.00    +0.000 F 
ENDBRANCH  20  22
ENDBRANCH   5  20
TORSDOF 5
ENDMDL
MODEL 4
REMARK VINA RESULT:      -8.1      1.613      2.376
REMARK  Name = 
REMARK  7 active torsions:
REMARK  status: ('A' for Active; 'I' for Inactive)
REMARK    1  A    between atoms: C_1  and  N_2
REMARK    2  A    between atoms: N_2  and  C_3
REMARK    3  A    between atoms: N_2  and  C_4
REMARK    4  A    between atoms: C_4  and  C_5
REMARK    5  A    between atoms: C_8  and  C_9
REMARK    6  A    between atoms: C_13  and  N_14
REMARK    7  A    between atoms: N_14  and  C_15
REMARK                            x       y       z     vdW  Elec       q    Type
REMARK                         _______ _______ _______ _____ _____    ______ ____
ROOT
ATOM      1  C   UNL     1       2.565   7.288  18.447  0.00  0.00    +0.000 A 
ATOM      2  C   UNL     1       2.083   8.306  17.622  0.00  0.00    +0.000 A 
ATOM      3  C   UNL     1       1.316   9.353  18.141  0.00  0.00    +0.000 A 
ATOM      4  C   UNL     1       0.988   9.406  19.517  0.00  0.00    +0.000 A 
ATOM      5  C   UNL     1       0.212  10.443  20.103  0.00  0.00    +0.000 A 
ATOM      6  C   UNL     1       0.012  10.428  21.483  0.00  0.00    +0.000 A 
ATOM      7  C   UNL     1       0.580   9.412  22.222  0.00  0.00    +0.000 A 
ATOM      8  N   UNL     1       1.291   8.399  21.684  0.00  0.00    +0.000 NA
ATOM      9  C   UNL     1       1.491   8.394  20.364  0.00  0.00    +0.000 A 
ATOM     10  C   UNL     1       2.240   7.353  19.811  0.00  0.00    +0.000 A 
ENDROOT
BRANCH   1  14
ATOM     11  C   UNL     1       5.316   5.524  17.001  0.00  0.00    +0.000 A 
ATOM     12  C   UNL     1       4.581   4.397  17.302  0.00  0.00    +0.000 A 
ATOM     13  C   UNL     1       3.366   4.850  17.875  0.00  0.00    +0.000 A 
ATOM     14  C   UNL     1       3.432   6.230  17.917  0.00  0.00    +0.000 A 
ATOM     15  O   UNL     1       4.618   6.639  17.365  0.00  0.00    +0.000 OA
BRANCH  11  16
ATOM     16  C   UNL     1       6.669   5.740  16.397  0.00  0.00    +0.000 C 
BRANCH  16  18
ATOM     17  C   UNL     1       7.599   7.675  17.526  0.00  0.00    +0.000 C 
ATOM     18  N   UNL     1       7.673   6.220  17.369  0.00  0.00    +0.000 NA
ATOM     19  C   UNL     1       7.458   5.584  18.675  0.00  0.00    +0.000 C 
ENDBRANCH  16  18
ENDBRANCH  11  16
ENDBRANCH   1  14
BRANCH   5  20
ATOM     20  N   UNL     1      -0.414  11.434  19.300  0.00  0.00    +0.000 N 
ATOM     21  H   UNL     1       0.236  11.836  18.625  0.00  0.00    +0.000 HD
BRANCH  20  22
ATOM     22  C   UNL     1      -1.757  11.488  18.853  0.00  0.00    +0.000 A 
ATOM     23  C   UNL     1      -2.207  10.682  17.800  0.00  0.00    +0.000 A 
ATOM     24  C   UNL     1      -3.566  10.601  17.483  0.00  0.00    +0.000 A 
ATOM     25  C   UNL     1      -4.495  11.329  18.222  0.00  0.00    +0.000 A 
ATOM     26 CL   UNL     1      -6.174  11.136  17.899  0.00  0.00    +0.000 Cl
ATOM     27  C   UNL     1      -4.074  12.176  19.242  0.00  0.00    +0.000 A 
ATOM     28  C   UNL     1      -2.716  12.248  19.547  0.00  0.00    +0.000 A 
ATOM     29  F   UNL     1      -2.322  13.055  20.544  0.00  0.00    +0.000 F 
ENDBRANCH  20  22
ENDBRANCH   5  20
TORSDOF 5
ENDMDL
MODEL 5
REMARK VINA RESULT:      -8.1      4.713      9.712
REMARK  Name = 
REMARK  7 active torsions:
REMARK  status: ('A' for Active; 'I' for Inactive)
REMARK    1  A    between atoms: C_1  and  N_2
REMARK    2  A    between atoms: N_2  and  C_3
REMARK    3  A    between atoms: N_2  and  C_4
REMARK    4  A    between atoms: C_4  and  C_5
REMARK    5  A    between atoms: C_8  and  C_9
REMARK    6  A    between atoms: C_13  and  N_14
REMARK    7  A    between atoms: N_14  and  C_15
REMARK                            x       y       z     vdW  Elec       q    Type
REMARK                         _______ _______ _______ _____ _____    ______ ____
ROOT
ATOM      1  C   UNL     1      -0.492  10.762  22.012  0.00  0.00    +0.000 A 
ATOM      2  C   UNL     1       0.072   9.677  22.683  0.00  0.00    +0.000 A 
ATOM      3  C   UNL     1       0.863   8.742  22.007  0.00  0.00    +0.000 A 
ATOM      4  C   UNL     1       1.102   8.858  20.617  0.00  0.00    +0.000 A 
ATOM      5  C   UNL     1       1.896   7.941  19.876  0.00  0.00    +0.000 A 
ATOM      6  C   UNL     1       2.120   8.194  18.523  0.00  0.00    +0.000 A 
ATOM      7  C   UNL     1       1.569   9.327  17.963  0.00  0.00    +0.000 A 
ATOM      8  N   UNL     1       0.785  10.194  18.638  0.00  0.00    +0.000 NA
ATOM      9  C   UNL     1       0.556   9.966  19.933  0.00  0.00    +0.000 A 
ATOM     10  C   UNL     1      -0.244  10.872  20.634  0.00  0.00    +0.000 A 
ENDROOT
BRANCH   1  14
ATOM     11  C   UNL     1      -1.467  13.781  23.657  0.00  0.00    +0.000 A 
ATOM     12  C   UNL     1      -2.711  13.191  23.718  0.00  0.00    +0.000 A 
ATOM     13  C   UNL     1      -2.575  11.904  23.140  0.00  0.00    +0.000 A 
ATOM     14  C   UNL     1      -1.259  11.784  22.733  0.00  0.00    +0.000 A 
ATOM     15  O   UNL     1      -0.581  12.927  23.068  0.00  0.00    +0.000 OA
BRANCH  11  16
ATOM     16  C   UNL     1      -0.939  15.118  24.079  0.00  0.00    +0.000 C 
BRANCH  16  18
ATOM     17  C   UNL     1      -0.875  15.908  26.372  0.00  0.00    +0.000 C 
ATOM     18  N   UNL     1      -1.711  15.729  25.182  0.00  0.00    +0.000 NA
ATOM     19  C   UNL     1      -2.241  17.033  24.766  0.00  0.00    +0.000 C 
ENDBRANCH  16  18
ENDBRANCH  11  16
ENDBRANCH   1  14
BRANCH   5  20
ATOM     20  N   UNL     1       2.390   6.749  20.471  0.00  0.00    +0.000 N 
ATOM     21  H   UNL     1       2.075   6.652  21.436  0.00  0.00    +0.000 HD
BRANCH  20  22
ATOM     22  C   UNL     1       2.642   5.496  19.859  0.00  0.00    +0.000 A 
ATOM     23  C   UNL     1       3.879   5.210  19.266  0.00  0.00    +0.000 A 
ATOM     24  C   UNL     1       4.189   3.920  18.830  0.00  0.00    +0.000 A 
ATOM     25  C   UNL     1       3.261   2.893  18.987  0.00  0.00    +0.000 A 
ATOM     26 CL   UNL     1       3.693   1.285  18.552  0.00  0.00    +0.000 Cl
ATOM     27  C   UNL     1       2.006   3.155  19.527  0.00  0.00    +0.000 A 
ATOM     28  C   UNL     1       1.709   4.448  19.957  0.00  0.00    +0.000 A 
ATOM     29  F   UNL     1       0.502   4.686  20.493  0.00  0.00    +0.000 F 
ENDBRANCH  20  22
ENDBRANCH   5  20
TORSDOF 5
ENDMDL
MODEL 6
REMARK VINA RESULT:      -8.0      1.902      2.741
REMARK  Name = 
REMARK  7 active torsions:
REMARK  status: ('A' for Active; 'I' for Inactive)
REMARK    1  A    between atoms: C_1  and  N_2
REMARK    2  A    between atoms: N_2  and  C_3
REMARK    3  A    between atoms: N_2  and  C_4
REMARK    4  A    between atoms: C_4  and  C_5
REMARK    5  A    between atoms: C_8  and  C_9
REMARK    6  A    between atoms: C_13  and  N_14
REMARK    7  A    between atoms: N_14  and  C_15
REMARK                            x       y       z     vdW  Elec       q    Type
REMARK                         _______ _______ _______ _____ _____    ______ ____
ROOT
ATOM      1  C   UNL     1       2.560   7.275  18.454  0.00  0.00    +0.000 A 
ATOM      2  C   UNL     1       2.023   8.255  17.618  0.00  0.00    +0.000 A 
ATOM      3  C   UNL     1       1.231   9.287  18.133  0.00  0.00    +0.000 A 
ATOM      4  C   UNL     1       0.936   9.360  19.515  0.00  0.00    +0.000 A 
ATOM      5  C   UNL     1       0.137  10.383  20.096  0.00  0.00    +0.000 A 
ATOM      6  C   UNL     1      -0.029  10.393  21.481  0.00  0.00    +0.000 A 
ATOM      7  C   UNL     1       0.593   9.415  22.229  0.00  0.00    +0.000 A 
ATOM      8  N   UNL     1       1.326   8.416  21.696  0.00  0.00    +0.000 NA
ATOM      9  C   UNL     1       1.494   8.387  20.372  0.00  0.00    +0.000 A 
ATOM     10  C   UNL     1       2.266   7.360  19.824  0.00  0.00    +0.000 A 
ENDROOT
BRANCH   1  14
ATOM     11  C   UNL     1       5.346   5.573  17.000  0.00  0.00    +0.000 A 
ATOM     12  C   UNL     1       4.646   4.430  17.319  0.00  0.00    +0.000 A 
ATOM     13  C   UNL     1       3.424   4.855  17.899  0.00  0.00    +0.000 A 
ATOM     14  C   UNL     1       3.452   6.236  17.926  0.00  0.00    +0.000 A 
ATOM     15  O   UNL     1       4.621   6.672  17.359  0.00  0.00    +0.000 OA
BRANCH  11  16
ATOM     16  C   UNL     1       6.688   5.821  16.382  0.00  0.00    +0.000 C 
BRANCH  16  18
ATOM     17  C   UNL     1       7.625   7.709  17.581  0.00  0.00    +0.000 C 
ATOM     18  N   UNL     1       7.708   6.263  17.355  0.00  0.00    +0.000 NA
ATOM     19  C   UNL     1       7.523   5.566  18.634  0.00  0.00    +0.000 C 
ENDBRANCH  16  18
ENDBRANCH  11  16
ENDBRANCH   1  14
BRANCH   5  20
ATOM     20  N   UNL     1      -0.543  11.332  19.288  0.00  0.00    +0.000 N 
ATOM     21  H   UNL     1       0.055  11.686  18.540  0.00  0.00    +0.000 HD
BRANCH  20  22
ATOM     22  C   UNL     1      -1.917  11.377  18.945  0.00  0.00    +0.000 A 
ATOM     23  C   UNL     1      -2.825  12.154  19.675  0.00  0.00    +0.000 A 
ATOM     24  C   UNL     1      -4.136  12.342  19.228  0.00  0.00    +0.000 A 
ATOM     25  C   UNL     1      -4.554  11.754  18.037  0.00  0.00    +0.000 A 
ATOM     26 CL   UNL     1      -6.132  12.084  17.436  0.00  0.00    +0.000 Cl
ATOM     27  C   UNL     1      -3.690  10.937  17.315  0.00  0.00    +0.000 A 
ATOM     28  C   UNL     1      -2.386  10.756  17.773  0.00  0.00    +0.000 A 
ATOM     29  F   UNL     1      -1.555   9.980  17.059  0.00  0.00    +0.000 F 
ENDBRANCH  20  22
ENDBRANCH   5  20
TORSDOF 5
ENDMDL
MODEL 7
REMARK VINA RESULT:      -8.0      4.407      9.426
REMARK  Name = 
REMARK  7 active torsions:
REMARK  status: ('A' for Active; 'I' for Inactive)
REMARK    1  A    between atoms: C_1  and  N_2
REMARK    2  A    between atoms: N_2  and  C_3
REMARK    3  A    between atoms: N_2  and  C_4
REMARK    4  A    between atoms: C_4  and  C_5
REMARK    5  A    between atoms: C_8  and  C_9
REMARK    6  A    between atoms: C_13  and  N_14
REMARK    7  A    between atoms: N_14  and  C_15
REMARK                            x       y       z     vdW  Elec       q    Type
REMARK                         _______ _______ _______ _____ _____    ______ ____
ROOT
ATOM      1  C   UNL     1      -0.354  10.807  21.800  0.00  0.00    +0.000 A 
ATOM      2  C   UNL     1       0.108   9.699  22.513  0.00  0.00    +0.000 A 
ATOM      3  C   UNL     1       0.874   8.709  21.891  0.00  0.00    +0.000 A 
ATOM      4  C   UNL     1       1.191   8.788  20.514  0.00  0.00    +0.000 A 
ATOM      5  C   UNL     1       1.964   7.814  19.826  0.00  0.00    +0.000 A 
ATOM      6  C   UNL     1       2.273   8.033  18.484  0.00  0.00    +0.000 A 
ATOM      7  C   UNL     1       1.822   9.188  17.882  0.00  0.00    +0.000 A 
ATOM      8  N   UNL     1       1.058  10.110  18.504  0.00  0.00    +0.000 NA
ATOM      9  C   UNL     1       0.749   9.916  19.789  0.00  0.00    +0.000 A 
ATOM     10  C   UNL     1      -0.029  10.880  20.436  0.00  0.00    +0.000 A 
ENDROOT
BRANCH   1  14
ATOM     11  C   UNL     1      -2.805  12.638  23.646  0.00  0.00    +0.000 A 
ATOM     12  C   UNL     1      -1.929  13.693  23.509  0.00  0.00    +0.000 A 
ATOM     13  C   UNL     1      -0.838  13.214  22.740  0.00  0.00    +0.000 A 
ATOM     14  C   UNL     1      -1.094  11.883  22.468  0.00  0.00    +0.000 A 
ATOM     15  O   UNL     1      -2.306  11.540  23.008  0.00  0.00    +0.000 OA
BRANCH  11  16
ATOM     16  C   UNL     1      -4.123  12.476  24.340  0.00  0.00    +0.000 C 
BRANCH  16  18
ATOM     17  C   UNL     1      -5.488  14.389  23.737  0.00  0.00    +0.000 C 
ATOM     18  N   UNL     1      -5.268  12.954  23.537  0.00  0.00    +0.000 NA
ATOM     19  C   UNL     1      -5.027  12.700  22.111  0.00  0.00    +0.000 C 
ENDBRANCH  16  18
ENDBRANCH  11  16
ENDBRANCH   1  14
BRANCH   5  20
ATOM     20  N   UNL     1       2.353   6.604  20.460  0.00  0.00    +0.000 N 
ATOM     21  H   UNL     1       1.931   6.511  21.384  0.00  0.00    +0.000 HD
BRANCH  20  22
ATOM     22  C   UNL     1       2.633   5.347  19.869  0.00  0.00    +0.000 A 
ATOM     23  C   UNL     1       3.895   5.059  19.333  0.00  0.00    +0.000 A 
ATOM     24  C   UNL     1       4.226   3.766  18.919  0.00  0.00    +0.000 A 
ATOM     25  C   UNL     1       3.293   2.739  19.041  0.00  0.00    +0.000 A 
ATOM     26 CL   UNL     1       3.745   1.130  18.636  0.00  0.00    +0.000 Cl
ATOM     27  C   UNL     1       2.015   3.003  19.523  0.00  0.00    +0.000 A 
ATOM     28  C   UNL     1       1.698   4.299  19.932  0.00  0.00    +0.000 A 
ATOM     29  F   UNL     1       0.469   4.539  20.412  0.00  0.00    +0.000 F 
ENDBRANCH  20  22
ENDBRANCH   5  20
TORSDOF 5
ENDMDL
MODEL 8
REMARK VINA RESULT:      -8.0      3.350      4.194
REMARK  Name = 
REMARK  7 active torsions:
REMARK  status: ('A' for Active; 'I' for Inactive)
REMARK    1  A    between atoms: C_1  and  N_2
REMARK    2  A    between atoms: N_2  and  C_3
REMARK    3  A    between atoms: N_2  and  C_4
REMARK    4  A    between atoms: C_4  and  C_5
REMARK    5  A    between atoms: C_8  and  C_9
REMARK    6  A    between atoms: C_13  and  N_14
REMARK    7  A    between atoms: N_14  and  C_15
REMARK                            x       y       z     vdW  Elec       q    Type
REMARK                         _______ _______ _______ _____ _____    ______ ____
ROOT
ATOM      1  C   UNL     1       2.591   7.105  18.905  0.00  0.00    +0.000 A 
ATOM      2  C   UNL     1       2.512   8.057  17.887  0.00  0.00    +0.000 A 
ATOM      3  C   UNL     1       1.826   9.260  18.077  0.00  0.00    +0.000 A 
ATOM      4  C   UNL     1       1.175   9.545  19.301  0.00  0.00    +0.000 A 
ATOM      5  C   UNL     1       0.462  10.748  19.553  0.00  0.00    +0.000 A 
ATOM      6  C   UNL     1      -0.080  10.950  20.823  0.00  0.00    +0.000 A 
ATOM      7  C   UNL     1       0.104   9.976  21.782  0.00  0.00    +0.000 A 
ATOM      8  N   UNL     1       0.747   8.811  21.556  0.00  0.00    +0.000 NA
ATOM      9  C   UNL     1       1.270   8.599  20.346  0.00  0.00    +0.000 A 
ATOM     10  C   UNL     1       1.948   7.399  20.118  0.00  0.00    +0.000 A 
ENDROOT
BRANCH   1  14
ATOM     11  C   UNL     1       4.487   4.427  17.490  0.00  0.00    +0.000 A 
ATOM     12  C   UNL     1       4.652   4.026  18.798  0.00  0.00    +0.000 A 
ATOM     13  C   UNL     1       3.925   4.947  19.595  0.00  0.00    +0.000 A 
ATOM     14  C   UNL     1       3.373   5.875  18.734  0.00  0.00    +0.000 A 
ATOM     15  O   UNL     1       3.704   5.543  17.445  0.00  0.00    +0.000 OA
BRANCH  11  16
ATOM     16  C   UNL     1       4.991   3.902  16.181  0.00  0.00    +0.000 C 
BRANCH  16  18
ATOM     17  C   UNL     1       6.971   5.298  16.300  0.00  0.00    +0.000 C 
ATOM     18  N   UNL     1       5.853   4.862  15.459  0.00  0.00    +0.000 NA
ATOM     19  C   UNL     1       6.383   4.246  14.237  0.00  0.00    +0.000 C 
ENDBRANCH  16  18
ENDBRANCH  11  16
ENDBRANCH   1  14
BRANCH   5  20
ATOM     20  N   UNL     1       0.235  11.697  18.521  0.00  0.00    +0.000 N 
ATOM     21  H   UNL     1      -0.662  11.544  18.060  0.00  0.00    +0.000 HD
BRANCH  20  22
ATOM     22  C   UNL     1       0.646  13.052  18.461  0.00  0.00    +0.000 A 
ATOM     23  C   UNL     1      -0.248  14.097  18.731  0.00  0.00    +0.000 A 
ATOM     24  C   UNL     1       0.199  15.415  18.852  0.00  0.00    +0.000 A 
ATOM     25  C   UNL     1       1.554  15.705  18.708  0.00  0.00    +0.000 A 
ATOM     26 CL   UNL     1       2.111  17.311  18.972  0.00  0.00    +0.000 Cl
ATOM     27  C   UNL     1       2.458  14.697  18.391  0.00  0.00    +0.000 A 
ATOM     28  C   UNL     1       1.999  13.386  18.272  0.00  0.00    +0.000 A 
ATOM     29  F   UNL     1       2.883  12.418  17.984  0.00  0.00    +0.000 F 
ENDBRANCH  20  22
ENDBRANCH   5  20
TORSDOF 5
ENDMDL
MODEL 9
REMARK VINA RESULT:      -7.9      3.349      4.222
REMARK  Name = 
REMARK  7 active torsions:
REMARK  status: ('A' for Active; 'I' for Inactive)
REMARK    1  A    between atoms: C_1  and  N_2
REMARK    2  A    between atoms: N_2  and  C_3
REMARK    3  A    between atoms: N_2  and  C_4
REMARK    4  A    between atoms: C_4  and  C_5
REMARK    5  A    between atoms: C_8  and  C_9
REMARK    6  A    between atoms: C_13  and  N_14
REMARK    7  A    between atoms: N_14  and  C_15
REMARK                            x       y       z     vdW  Elec       q    Type
REMARK                         _______ _______ _______ _____ _____    ______ ____
ROOT
ATOM      1  C   UNL     1       2.708   6.974  18.601  0.00  0.00    +0.000 A 
ATOM      2  C   UNL     1       2.539   7.970  17.638  0.00  0.00    +0.000 A 
ATOM      3  C   UNL     1       1.840   9.146  17.931  0.00  0.00    +0.000 A 
ATOM      4  C   UNL     1       1.267   9.355  19.208  0.00  0.00    +0.000 A 
ATOM      5  C   UNL     1       0.545  10.527  19.564  0.00  0.00    +0.000 A 
ATOM      6  C   UNL     1       0.085  10.654  20.875  0.00  0.00    +0.000 A 
ATOM      7  C   UNL     1       0.355   9.642  21.771  0.00  0.00    +0.000 A 
ATOM      8  N   UNL     1       1.007   8.506  21.447  0.00  0.00    +0.000 NA
ATOM      9  C   UNL     1       1.452   8.365  20.197  0.00  0.00    +0.000 A 
ATOM     10  C   UNL     1       2.141   7.195  19.867  0.00  0.00    +0.000 A 
ENDROOT
BRANCH   1  14
ATOM     11  C   UNL     1       5.433   4.716  18.110  0.00  0.00    +0.000 A 
ATOM     12  C   UNL     1       4.448   3.763  17.974  0.00  0.00    +0.000 A 
ATOM     13  C   UNL     1       3.210   4.444  18.093  0.00  0.00    +0.000 A 
ATOM     14  C   UNL     1       3.505   5.775  18.319  0.00  0.00    +0.000 A 
ATOM     15  O   UNL     1       4.866   5.940  18.311  0.00  0.00    +0.000 OA
BRANCH  11  16
ATOM     16  C   UNL     1       6.930   4.659  18.095  0.00  0.00    +0.000 C 
BRANCH  16  18
ATOM     17  C   UNL     1       6.842   5.092  15.710  0.00  0.00    +0.000 C 
ATOM     18  N   UNL     1       7.531   5.400  16.966  0.00  0.00    +0.000 NA
ATOM     19  C   UNL     1       7.458   6.845  17.213  0.00  0.00    +0.000 C 
ENDBRANCH  16  18
ENDBRANCH  11  16
ENDBRANCH   1  14
BRANCH   5  20
ATOM     20  N   UNL     1       0.227  11.517  18.596  0.00  0.00    +0.000 N 
ATOM     21  H   UNL     1      -0.711  11.386  18.219  0.00  0.00    +0.000 HD
BRANCH  20  22
ATOM     22  C   UNL     1       0.642  12.871  18.550  0.00  0.00    +0.000 A 
ATOM     23  C   UNL     1      -0.232  13.912  18.889  0.00  0.00    +0.000 A 
ATOM     24  C   UNL     1       0.227  15.225  19.021  0.00  0.00    +0.000 A 
ATOM     25  C   UNL     1       1.574  15.513  18.817  0.00  0.00    +0.000 A 
ATOM     26 CL   UNL     1       2.152  17.110  19.092  0.00  0.00    +0.000 Cl
ATOM     27  C   UNL     1       2.457  14.510  18.431  0.00  0.00    +0.000 A 
ATOM     28  C   UNL     1       1.985  13.204  18.302  0.00  0.00    +0.000 A 
ATOM     29  F   UNL     1       2.849  12.240  17.947  0.00  0.00    +0.000 F 
ENDBRANCH  20  22
ENDBRANCH   5  20
TORSDOF 5
ENDMDL
