MODEL 1
REMARK VINA RESULT:      -6.9      0.000      0.000
REMARK  Name = 
REMARK  7 active torsions:
REMARK  status: ('A' for Active; 'I' for Inactive)
REMARK    1  A    between atoms: C_1  and  C_2
REMARK    2  A    between atoms: N_4  and  C_5
REMARK    3  A    between atoms: C_7  and  O_8
REMARK    4  A    between atoms: O_8  and  C_9
REMARK    5  A    between atoms: C_9  and  P_10
REMARK    6  A    between atoms: P_10  and  O_12
REMARK    7  A    between atoms: P_10  and  O_13
REMARK                            x       y       z     vdW  Elec       q    Type
REMARK                         _______ _______ _______ _____ _____    ______ ____
ROOT
ATOM      1  C   UNL     1       2.750   6.104  17.654  0.00  0.00    +0.000 C 
ATOM      2  C   UNL     1       1.812   5.138  18.371  0.00  0.00    +0.000 C 
ATOM      3  C   UNL     1       2.131   5.388  19.824  0.00  0.00    +0.000 C 
ATOM      4  C   UNL     1       2.286   6.904  19.812  0.00  0.00    +0.000 C 
ATOM      5  O   UNL     1       2.737   7.285  18.496  0.00  0.00    +0.000 OA
ENDROOT
BRANCH   1   9
ATOM      6  C   UNL     1       7.623   7.136  17.578  0.00  0.00    +0.000 C 
ATOM      7  C   UNL     1       6.465   6.202  17.421  0.00  0.00    +0.000 A 
ATOM      8  C   UNL     1       5.187   6.535  17.639  0.00  0.00    +0.000 A 
ATOM      9  N   UNL     1       4.134   5.653  17.446  0.00  0.00    +0.000 N 
ATOM     10  C   UNL     1       4.358   4.405  16.877  0.00  0.00    +0.000 A 
ATOM     11  O   UNL     1       3.484   3.650  16.455  0.00  0.00    +0.000 OA
ATOM     12  N   UNL     1       5.671   4.025  16.770  0.00  0.00    +0.000 N 
ATOM     13  C   UNL     1       6.754   4.819  16.989  0.00  0.00    +0.000 A 
ATOM     14  O   UNL     1       7.898   4.419  16.801  0.00  0.00    +0.000 OA
ATOM     15  H   UNL     1       5.843   3.101  16.412  0.00  0.00    +0.000 HD
ENDBRANCH   1   9
BRANCH   3  16
ATOM     16  O   UNL     1       3.357   4.741  20.209  0.00  0.00    +0.000 OA
BRANCH  16  17
ATOM     17  C   UNL     1       3.101   3.387  20.607  0.00  0.00    +0.000 C 
BRANCH  17  18
ATOM     18  P   UNL     1       4.324   2.223  20.035  0.00  0.00    +0.000 P 
ATOM     19  O   UNL     1       3.951   1.262  18.953  0.00  0.00    +0.000 OA
BRANCH  18  20
ATOM     20  O   UNL     1       5.478   3.212  19.496  0.00  0.00    +0.000 OA
ATOM     21  H   UNL     1       6.263   2.734  19.174  0.00  0.00    +0.000 HD
ENDBRANCH  18  20
BRANCH  18  22
ATOM     22  O   UNL     1       5.082   1.515  21.253  0.00  0.00    +0.000 OA
ATOM     23  H   UNL     1       5.651   0.775  20.964  0.00  0.00    +0.000 HD
ENDBRANCH  18  22
ENDBRANCH  17  18
ENDBRANCH  16  17
ENDBRANCH   3  16
TORSDOF 6
ENDMDL
MODEL 2
REMARK VINA RESULT:      -6.7      1.962      4.331
REMARK  Name = 
REMARK  7 active torsions:
REMARK  status: ('A' for Active; 'I' for Inactive)
REMARK    1  A    between atoms: C_1  and  C_2
REMARK    2  A    between atoms: N_4  and  C_5
REMARK    3  A    between atoms: C_7  and  O_8
REMARK    4  A    between atoms: O_8  and  C_9
REMARK    5  A    between atoms: C_9  and  P_10
REMARK    6  A    between atoms: P_10  and  O_12
REMARK    7  A    between atoms: P_10  and  O_13
REMARK                            x       y       z     vdW  Elec       q    Type
REMARK                         _______ _______ _______ _____ _____    ______ ____
ROOT
ATOM      1  C   UNL     1       5.967   5.944  17.091  0.00  0.00    +0.000 C 
ATOM      2  C   UNL     1       6.358   4.473  16.995  0.00  0.00    +0.000 C 
ATOM      3  C   UNL     1       5.432   3.956  15.922  0.00  0.00    +0.000 C 
ATOM      4  C   UNL     1       5.462   5.128  14.948  0.00  0.00    +0.000 C 
ATOM      5  O   UNL     1       5.714   6.324  15.714  0.00  0.00    +0.000 OA
ENDROOT
BRANCH   1   9
ATOM      6  C   UNL     1       1.816   8.609  17.790  0.00  0.00    +0.000 C 
ATOM      7  C   UNL     1       2.811   7.574  18.210  0.00  0.00    +0.000 A 
ATOM      8  C   UNL     1       3.871   7.201  17.483  0.00  0.00    +0.000 A 
ATOM      9  N   UNL     1       4.796   6.266  17.922  0.00  0.00    +0.000 N 
ATOM     10  C   UNL     1       4.732   5.768  19.217  0.00  0.00    +0.000 A 
ATOM     11  O   UNL     1       5.617   5.123  19.775  0.00  0.00    +0.000 OA
ATOM     12  N   UNL     1       3.585   6.056  19.911  0.00  0.00    +0.000 N 
ATOM     13  C   UNL     1       2.612   6.925  19.523  0.00  0.00    +0.000 A 
ATOM     14  O   UNL     1       1.649   7.180  20.238  0.00  0.00    +0.000 OA
ATOM     15  H   UNL     1       3.502   5.654  20.829  0.00  0.00    +0.000 HD
ENDBRANCH   1   9
BRANCH   3  16
ATOM     16  O   UNL     1       4.106   3.739  16.436  0.00  0.00    +0.000 OA
BRANCH  16  17
ATOM     17  C   UNL     1       4.122   2.701  17.426  0.00  0.00    +0.000 C 
BRANCH  17  18
ATOM     18  P   UNL     1       2.722   2.736  18.530  0.00  0.00    +0.000 P 
ATOM     19  O   UNL     1       2.965   2.934  19.991  0.00  0.00    +0.000 OA
BRANCH  18  20
ATOM     20  O   UNL     1       1.892   3.992  17.953  0.00  0.00    +0.000 OA
ATOM     21  H   UNL     1       1.012   4.080  18.359  0.00  0.00    +0.000 HD
ENDBRANCH  18  20
BRANCH  18  22
ATOM     22  O   UNL     1       1.702   1.541  18.232  0.00  0.00    +0.000 OA
ATOM     23  H   UNL     1       1.214   1.254  19.027  0.00  0.00    +0.000 HD
ENDBRANCH  18  22
ENDBRANCH  17  18
ENDBRANCH  16  17
ENDBRANCH   3  16
TORSDOF 6
ENDMDL
MODEL 3
REMARK VINA RESULT:      -6.6      2.488      4.841
REMARK  Name = 
REMARK  7 active torsions:
REMARK  status: ('A' for Active; 'I' for Inactive)
REMARK    1  A    between atoms: C_1  and  C_2
REMARK    2  A    between atoms: N_4  and  C_5
REMARK    3  A    between atoms: C_7  and  O_8
REMARK    4  A    between atoms: O_8  and  C_9
REMARK    5  A    between atoms: C_9  and  P_10
REMARK    6  A    between atoms: P_10  and  O_12
REMARK    7  A    between atoms: P_10  and  O_13
REMARK                            x       y       z     vdW  Elec       q    Type
REMARK                         _______ _______ _______ _____ _____    ______ ____
ROOT
ATOM      1  C   UNL     1       2.413   3.946  18.572  0.00  0.00    +0.000 C 
ATOM      2  C   UNL     1       3.226   3.850  17.284  0.00  0.00    +0.000 C 
ATOM      3  C   UNL     1       4.646   3.945  17.784  0.00  0.00    +0.000 C 
ATOM      4  C   UNL     1       4.549   3.091  19.043  0.00  0.00    +0.000 C 
ATOM      5  O   UNL     1       3.195   3.184  19.529  0.00  0.00    +0.000 OA
ENDROOT
BRANCH   1   9
ATOM      6  C   UNL     1       2.204   8.865  17.813  0.00  0.00    +0.000 C 
ATOM      7  C   UNL     1       2.075   7.652  18.680  0.00  0.00    +0.000 A 
ATOM      8  C   UNL     1       2.248   6.395  18.256  0.00  0.00    +0.000 A 
ATOM      9  N   UNL     1       2.158   5.296  19.097  0.00  0.00    +0.000 N 
ATOM     10  C   UNL     1       2.018   5.470  20.468  0.00  0.00    +0.000 A 
ATOM     11  O   UNL     1       2.158   4.589  21.314  0.00  0.00    +0.000 OA
ATOM     12  N   UNL     1       1.721   6.743  20.881  0.00  0.00    +0.000 N 
ATOM     13  C   UNL     1       1.740   7.861  20.104  0.00  0.00    +0.000 A 
ATOM     14  O   UNL     1       1.531   8.976  20.570  0.00  0.00    +0.000 OA
ATOM     15  H   UNL     1       1.561   6.870  21.865  0.00  0.00    +0.000 HD
ENDBRANCH   1   9
BRANCH   3  16
ATOM     16  O   UNL     1       4.999   5.303  18.100  0.00  0.00    +0.000 OA
BRANCH  16  17
ATOM     17  C   UNL     1       5.779   5.346  19.303  0.00  0.00    +0.000 C 
BRANCH  17  18
ATOM     18  P   UNL     1       7.521   5.605  19.025  0.00  0.00    +0.000 P 
ATOM     19  O   UNL     1       7.976   6.929  18.504  0.00  0.00    +0.000 OA
BRANCH  18  20
ATOM     20  O   UNL     1       8.117   5.381  20.506  0.00  0.00    +0.000 OA
ATOM     21  H   UNL     1       7.463   5.555  21.206  0.00  0.00    +0.000 HD
ENDBRANCH  18  20
BRANCH  18  22
ATOM     22  O   UNL     1       8.185   4.376  18.246  0.00  0.00    +0.000 OA
ATOM     23  H   UNL     1       8.248   4.528  17.283  0.00  0.00    +0.000 HD
ENDBRANCH  18  22
ENDBRANCH  17  18
ENDBRANCH  16  17
ENDBRANCH   3  16
TORSDOF 6
ENDMDL
MODEL 4
REMARK VINA RESULT:      -6.6      1.509      1.866
REMARK  Name = 
REMARK  7 active torsions:
REMARK  status: ('A' for Active; 'I' for Inactive)
REMARK    1  A    between atoms: C_1  and  C_2
REMARK    2  A    between atoms: N_4  and  C_5
REMARK    3  A    between atoms: C_7  and  O_8
REMARK    4  A    between atoms: O_8  and  C_9
REMARK    5  A    between atoms: C_9  and  P_10
REMARK    6  A    between atoms: P_10  and  O_12
REMARK    7  A    between atoms: P_10  and  O_13
REMARK                            x       y       z     vdW  Elec       q    Type
REMARK                         _______ _______ _______ _____ _____    ______ ____
ROOT
ATOM      1  C   UNL     1       3.336   6.327  17.324  0.00  0.00    +0.000 C 
ATOM      2  C   UNL     1       2.164   5.524  17.879  0.00  0.00    +0.000 C 
ATOM      3  C   UNL     1       2.167   5.905  19.338  0.00  0.00    +0.000 C 
ATOM      4  C   UNL     1       2.476   7.394  19.230  0.00  0.00    +0.000 C 
ATOM      5  O   UNL     1       3.253   7.591  18.031  0.00  0.00    +0.000 OA
ENDROOT
BRANCH   1   9
ATOM      6  C   UNL     1       8.141   6.921  18.501  0.00  0.00    +0.000 C 
ATOM      7  C   UNL     1       6.978   6.087  18.065  0.00  0.00    +0.000 A 
ATOM      8  C   UNL     1       5.725   6.540  17.937  0.00  0.00    +0.000 A 
ATOM      9  N   UNL     1       4.678   5.747  17.492  0.00  0.00    +0.000 N 
ATOM     10  C   UNL     1       4.919   4.461  17.024  0.00  0.00    +0.000 A 
ATOM     11  O   UNL     1       4.115   3.769  16.402  0.00  0.00    +0.000 OA
ATOM     12  N   UNL     1       6.172   3.963  17.269  0.00  0.00    +0.000 N 
ATOM     13  C   UNL     1       7.234   4.667  17.749  0.00  0.00    +0.000 A 
ATOM     14  O   UNL     1       8.343   4.160  17.873  0.00  0.00    +0.000 OA
ATOM     15  H   UNL     1       6.341   3.013  16.985  0.00  0.00    +0.000 HD
ENDBRANCH   1   9
BRANCH   3  16
ATOM     16  O   UNL     1       3.199   5.209  20.059  0.00  0.00    +0.000 OA
BRANCH  16  17
ATOM     17  C   UNL     1       2.634   4.492  21.165  0.00  0.00    +0.000 C 
BRANCH  17  18
ATOM     18  P   UNL     1       1.847   2.960  20.705  0.00  0.00    +0.000 P 
ATOM     19  O   UNL     1       2.547   2.052  19.747  0.00  0.00    +0.000 OA
BRANCH  18  20
ATOM     20  O   UNL     1       1.716   2.227  22.135  0.00  0.00    +0.000 OA
ATOM     21  H   UNL     1       1.503   2.845  22.857  0.00  0.00    +0.000 HD
ENDBRANCH  18  20
BRANCH  18  22
ATOM     22  O   UNL     1       0.306   3.174  20.336  0.00  0.00    +0.000 OA
ATOM     23  H   UNL     1       0.152   3.227  19.373  0.00  0.00    +0.000 HD
ENDBRANCH  18  22
ENDBRANCH  17  18
ENDBRANCH  16  17
ENDBRANCH   3  16
TORSDOF 6
ENDMDL
MODEL 5
REMARK VINA RESULT:      -6.5      2.376      4.865
REMARK  Name = 
REMARK  7 active torsions:
REMARK  status: ('A' for Active; 'I' for Inactive)
REMARK    1  A    between atoms: C_1  and  C_2
REMARK    2  A    between atoms: N_4  and  C_5
REMARK    3  A    between atoms: C_7  and  O_8
REMARK    4  A    between atoms: O_8  and  C_9
REMARK    5  A    between atoms: C_9  and  P_10
REMARK    6  A    between atoms: P_10  and  O_12
REMARK    7  A    between atoms: P_10  and  O_13
REMARK                            x       y       z     vdW  Elec       q    Type
REMARK                         _______ _______ _______ _____ _____    ______ ____
ROOT
ATOM      1  C   UNL     1       1.870   3.312  18.550  0.00  0.00    +0.000 C 
ATOM      2  C   UNL     1       2.681   3.060  17.281  0.00  0.00    +0.000 C 
ATOM      3  C   UNL     1       4.077   2.862  17.817  0.00  0.00    +0.000 C 
ATOM      4  C   UNL     1       3.776   2.039  19.065  0.00  0.00    +0.000 C 
ATOM      5  O   UNL     1       2.455   2.402  19.518  0.00  0.00    +0.000 OA
ENDROOT
BRANCH   1   9
ATOM      6  C   UNL     1       2.626   8.182  17.822  0.00  0.00    +0.000 C 
ATOM      7  C   UNL     1       2.259   7.013  18.681  0.00  0.00    +0.000 A 
ATOM      8  C   UNL     1       2.186   5.748  18.249  0.00  0.00    +0.000 A 
ATOM      9  N   UNL     1       1.880   4.683  19.082  0.00  0.00    +0.000 N 
ATOM     10  C   UNL     1       1.770   4.873  20.455  0.00  0.00    +0.000 A 
ATOM     11  O   UNL     1       1.732   3.977  21.295  0.00  0.00    +0.000 OA
ATOM     12  N   UNL     1       1.724   6.177  20.874  0.00  0.00    +0.000 N 
ATOM     13  C   UNL     1       1.965   7.274  20.105  0.00  0.00    +0.000 A 
ATOM     14  O   UNL     1       1.974   8.406  20.577  0.00  0.00    +0.000 OA
ATOM     15  H   UNL     1       1.587   6.328  21.858  0.00  0.00    +0.000 HD
ENDBRANCH   1   9
BRANCH   3  16
ATOM     16  O   UNL     1       4.689   4.119  18.157  0.00  0.00    +0.000 OA
BRANCH  16  17
ATOM     17  C   UNL     1       5.573   4.540  17.108  0.00  0.00    +0.000 C 
BRANCH  17  18
ATOM     18  P   UNL     1       7.128   5.188  17.691  0.00  0.00    +0.000 P 
ATOM     19  O   UNL     1       7.323   5.373  19.160  0.00  0.00    +0.000 OA
BRANCH  18  20
ATOM     20  O   UNL     1       8.160   4.074  17.151  0.00  0.00    +0.000 OA
ATOM     21  H   UNL     1       8.003   3.195  17.540  0.00  0.00    +0.000 HD
ENDBRANCH  18  20
BRANCH  18  22
ATOM     22  O   UNL     1       7.593   6.462  16.843  0.00  0.00    +0.000 OA
ATOM     23  H   UNL     1       6.853   7.063  16.628  0.00  0.00    +0.000 HD
ENDBRANCH  18  22
ENDBRANCH  17  18
ENDBRANCH  16  17
ENDBRANCH   3  16
TORSDOF 6
ENDMDL
MODEL 6
REMARK VINA RESULT:      -6.4      2.329      4.835
REMARK  Name = 
REMARK  7 active torsions:
REMARK  status: ('A' for Active; 'I' for Inactive)
REMARK    1  A    between atoms: C_1  and  C_2
REMARK    2  A    between atoms: N_4  and  C_5
REMARK    3  A    between atoms: C_7  and  O_8
REMARK    4  A    between atoms: O_8  and  C_9
REMARK    5  A    between atoms: C_9  and  P_10
REMARK    6  A    between atoms: P_10  and  O_12
REMARK    7  A    between atoms: P_10  and  O_13
REMARK                            x       y       z     vdW  Elec       q    Type
REMARK                         _______ _______ _______ _____ _____    ______ ____
ROOT
ATOM      1  C   UNL     1       2.256   3.620  18.446  0.00  0.00    +0.000 C 
ATOM      2  C   UNL     1       3.187   3.471  17.246  0.00  0.00    +0.000 C 
ATOM      3  C   UNL     1       4.544   3.357  17.895  0.00  0.00    +0.000 C 
ATOM      4  C   UNL     1       4.202   2.474  19.089  0.00  0.00    +0.000 C 
ATOM      5  O   UNL     1       2.825   2.724  19.436  0.00  0.00    +0.000 OA
ENDROOT
BRANCH   1   9
ATOM      6  C   UNL     1       2.373   8.561  17.821  0.00  0.00    +0.000 C 
ATOM      7  C   UNL     1       2.189   7.337  18.661  0.00  0.00    +0.000 A 
ATOM      8  C   UNL     1       2.255   6.083  18.199  0.00  0.00    +0.000 A 
ATOM      9  N   UNL     1       2.118   4.970  19.015  0.00  0.00    +0.000 N 
ATOM     10  C   UNL     1       2.041   5.115  20.395  0.00  0.00    +0.000 A 
ATOM     11  O   UNL     1       2.149   4.202  21.212  0.00  0.00    +0.000 OA
ATOM     12  N   UNL     1       1.851   6.394  20.850  0.00  0.00    +0.000 N 
ATOM     13  C   UNL     1       1.922   7.528  20.102  0.00  0.00    +0.000 A 
ATOM     14  O   UNL     1       1.811   8.642  20.603  0.00  0.00    +0.000 OA
ATOM     15  H   UNL     1       1.737   6.504  21.843  0.00  0.00    +0.000 HD
ENDBRANCH   1   9
BRANCH   3  16
ATOM     16  O   UNL     1       5.029   4.643  18.319  0.00  0.00    +0.000 OA
BRANCH  16  17
ATOM     17  C   UNL     1       5.435   5.420  17.184  0.00  0.00    +0.000 C 
BRANCH  17  18
ATOM     18  P   UNL     1       6.811   4.725  16.288  0.00  0.00    +0.000 P 
ATOM     19  O   UNL     1       6.532   3.824  15.130  0.00  0.00    +0.000 OA
BRANCH  18  20
ATOM     20  O   UNL     1       7.555   6.055  15.763  0.00  0.00    +0.000 OA
ATOM     21  H   UNL     1       7.883   6.615  16.490  0.00  0.00    +0.000 HD
ENDBRANCH  18  20
BRANCH  18  22
ATOM     22  O   UNL     1       7.921   4.132  17.276  0.00  0.00    +0.000 OA
ATOM     23  H   UNL     1       8.346   3.325  16.926  0.00  0.00    +0.000 HD
ENDBRANCH  18  22
ENDBRANCH  17  18
ENDBRANCH  16  17
ENDBRANCH   3  16
TORSDOF 6
ENDMDL
MODEL 7
REMARK VINA RESULT:      -6.4      2.163      3.692
REMARK  Name = 
REMARK  7 active torsions:
REMARK  status: ('A' for Active; 'I' for Inactive)
REMARK    1  A    between atoms: C_1  and  C_2
REMARK    2  A    between atoms: N_4  and  C_5
REMARK    3  A    between atoms: C_7  and  O_8
REMARK    4  A    between atoms: O_8  and  C_9
REMARK    5  A    between atoms: C_9  and  P_10
REMARK    6  A    between atoms: P_10  and  O_12
REMARK    7  A    between atoms: P_10  and  O_13
REMARK                            x       y       z     vdW  Elec       q    Type
REMARK                         _______ _______ _______ _____ _____    ______ ____
ROOT
ATOM      1  C   UNL     1       2.583   2.047  18.386  0.00  0.00    +0.000 C 
ATOM      2  C   UNL     1       2.143   1.644  19.790  0.00  0.00    +0.000 C 
ATOM      3  C   UNL     1       1.292   2.815  20.215  0.00  0.00    +0.000 C 
ATOM      4  C   UNL     1       0.553   3.102  18.913  0.00  0.00    +0.000 C 
ATOM      5  O   UNL     1       1.407   2.689  17.828  0.00  0.00    +0.000 OA
ENDROOT
BRANCH   1   9
ATOM      6  C   UNL     1       5.176   5.412  15.784  0.00  0.00    +0.000 C 
ATOM      7  C   UNL     1       4.951   4.561  16.993  0.00  0.00    +0.000 A 
ATOM      8  C   UNL     1       3.897   3.755  17.168  0.00  0.00    +0.000 A 
ATOM      9  N   UNL     1       3.740   2.949  18.286  0.00  0.00    +0.000 N 
ATOM     10  C   UNL     1       4.760   2.843  19.224  0.00  0.00    +0.000 A 
ATOM     11  O   UNL     1       4.820   1.997  20.114  0.00  0.00    +0.000 OA
ATOM     12  N   UNL     1       5.776   3.755  19.106  0.00  0.00    +0.000 N 
ATOM     13  C   UNL     1       5.968   4.609  18.064  0.00  0.00    +0.000 A 
ATOM     14  O   UNL     1       6.946   5.346  18.003  0.00  0.00    +0.000 OA
ATOM     15  H   UNL     1       6.491   3.724  19.812  0.00  0.00    +0.000 HD
ENDBRANCH   1   9
BRANCH   3  16
ATOM     16  O   UNL     1       2.103   3.935  20.612  0.00  0.00    +0.000 OA
BRANCH  16  17
ATOM     17  C   UNL     1       1.422   5.165  20.331  0.00  0.00    +0.000 C 
BRANCH  17  18
ATOM     18  P   UNL     1       2.462   6.413  19.596  0.00  0.00    +0.000 P 
ATOM     19  O   UNL     1       2.238   6.784  18.166  0.00  0.00    +0.000 OA
BRANCH  18  20
ATOM     20  O   UNL     1       2.144   7.686  20.534  0.00  0.00    +0.000 OA
ATOM     21  H   UNL     1       1.624   7.451  21.323  0.00  0.00    +0.000 HD
ENDBRANCH  18  20
BRANCH  18  22
ATOM     22  O   UNL     1       4.006   6.171  19.935  0.00  0.00    +0.000 OA
ATOM     23  H   UNL     1       4.179   5.278  20.291  0.00  0.00    +0.000 HD
ENDBRANCH  18  22
ENDBRANCH  17  18
ENDBRANCH  16  17
ENDBRANCH   3  16
TORSDOF 6
ENDMDL
MODEL 8
REMARK VINA RESULT:      -6.4      2.205      4.120
REMARK  Name = 
REMARK  7 active torsions:
REMARK  status: ('A' for Active; 'I' for Inactive)
REMARK    1  A    between atoms: C_1  and  C_2
REMARK    2  A    between atoms: N_4  and  C_5
REMARK    3  A    between atoms: C_7  and  O_8
REMARK    4  A    between atoms: O_8  and  C_9
REMARK    5  A    between atoms: C_9  and  P_10
REMARK    6  A    between atoms: P_10  and  O_12
REMARK    7  A    between atoms: P_10  and  O_13
REMARK                            x       y       z     vdW  Elec       q    Type
REMARK                         _______ _______ _______ _____ _____    ______ ____
ROOT
ATOM      1  C   UNL     1       4.342   2.986  18.935  0.00  0.00    +0.000 C 
ATOM      2  C   UNL     1       3.185   3.678  19.649  0.00  0.00    +0.000 C 
ATOM      3  C   UNL     1       2.104   3.682  18.597  0.00  0.00    +0.000 C 
ATOM      4  C   UNL     1       2.303   2.294  17.998  0.00  0.00    +0.000 C 
ATOM      5  O   UNL     1       3.693   1.946  18.158  0.00  0.00    +0.000 OA
ENDROOT
BRANCH   1   9
ATOM      6  C   UNL     1       6.122   3.964  14.386  0.00  0.00    +0.000 C 
ATOM      7  C   UNL     1       6.003   4.247  15.850  0.00  0.00    +0.000 A 
ATOM      8  C   UNL     1       5.229   3.556  16.696  0.00  0.00    +0.000 A 
ATOM      9  N   UNL     1       5.174   3.822  18.056  0.00  0.00    +0.000 N 
ATOM     10  C   UNL     1       6.040   4.746  18.627  0.00  0.00    +0.000 A 
ATOM     11  O   UNL     1       6.232   4.888  19.833  0.00  0.00    +0.000 OA
ATOM     12  N   UNL     1       6.738   5.532  17.748  0.00  0.00    +0.000 N 
ATOM     13  C   UNL     1       6.802   5.362  16.399  0.00  0.00    +0.000 A 
ATOM     14  O   UNL     1       7.510   6.069  15.690  0.00  0.00    +0.000 OA
ATOM     15  H   UNL     1       7.325   6.243  18.149  0.00  0.00    +0.000 HD
ENDBRANCH   1   9
BRANCH   3  16
ATOM     16  O   UNL     1       2.331   4.710  17.618  0.00  0.00    +0.000 OA
BRANCH  16  17
ATOM     17  C   UNL     1       1.579   5.886  17.950  0.00  0.00    +0.000 C 
BRANCH  17  18
ATOM     18  P   UNL     1       2.589   7.311  18.306  0.00  0.00    +0.000 P 
ATOM     19  O   UNL     1       2.007   8.673  18.106  0.00  0.00    +0.000 OA
BRANCH  18  20
ATOM     20  O   UNL     1       2.910   7.092  19.870  0.00  0.00    +0.000 OA
ATOM     21  H   UNL     1       2.351   6.406  20.277  0.00  0.00    +0.000 HD
ENDBRANCH  18  20
BRANCH  18  22
ATOM     22  O   UNL     1       4.054   7.170  17.678  0.00  0.00    +0.000 OA
ATOM     23  H   UNL     1       4.617   6.542  18.171  0.00  0.00    +0.000 HD
ENDBRANCH  18  22
ENDBRANCH  17  18
ENDBRANCH  16  17
ENDBRANCH   3  16
TORSDOF 6
ENDMDL
MODEL 9
REMARK VINA RESULT:      -6.3      2.540      4.634
REMARK  Name = 
REMARK  7 active torsions:
REMARK  status: ('A' for Active; 'I' for Inactive)
REMARK    1  A    between atoms: C_1  and  C_2
REMARK    2  A    between atoms: N_4  and  C_5
REMARK    3  A    between atoms: C_7  and  O_8
REMARK    4  A    between atoms: O_8  and  C_9
REMARK    5  A    between atoms: C_9  and  P_10
REMARK    6  A    between atoms: P_10  and  O_12
REMARK    7  A    between atoms: P_10  and  O_13
REMARK                            x       y       z     vdW  Elec       q    Type
REMARK                         _______ _______ _______ _____ _____    ______ ____
ROOT
ATOM      1  C   UNL     1       4.394   4.026  18.648  0.00  0.00    +0.000 C 
ATOM      2  C   UNL     1       3.840   5.172  19.490  0.00  0.00    +0.000 C 
ATOM      3  C   UNL     1       2.684   5.664  18.654  0.00  0.00    +0.000 C 
ATOM      4  C   UNL     1       2.117   4.336  18.164  0.00  0.00    +0.000 C 
ATOM      5  O   UNL     1       3.206   3.393  18.104  0.00  0.00    +0.000 OA
ENDROOT
BRANCH   1   9
ATOM      6  C   UNL     1       5.512   3.959  13.793  0.00  0.00    +0.000 C 
ATOM      7  C   UNL     1       5.804   4.325  15.214  0.00  0.00    +0.000 A 
ATOM      8  C   UNL     1       4.991   4.068  16.246  0.00  0.00    +0.000 A 
ATOM      9  N   UNL     1       5.312   4.388  17.557  0.00  0.00    +0.000 N 
ATOM     10  C   UNL     1       6.574   4.875  17.873  0.00  0.00    +0.000 A 
ATOM     11  O   UNL     1       7.035   4.970  19.009  0.00  0.00    +0.000 OA
ATOM     12  N   UNL     1       7.353   5.249  16.809  0.00  0.00    +0.000 N 
ATOM     13  C   UNL     1       7.081   5.013  15.496  0.00  0.00    +0.000 A 
ATOM     14  O   UNL     1       7.868   5.318  14.607  0.00  0.00    +0.000 OA
ATOM     15  H   UNL     1       8.246   5.655  17.027  0.00  0.00    +0.000 HD
ENDBRANCH   1   9
BRANCH   3  16
ATOM     16  O   UNL     1       3.140   6.473  17.556  0.00  0.00    +0.000 OA
BRANCH  16  17
ATOM     17  C   UNL     1       3.369   7.820  17.993  0.00  0.00    +0.000 C 
BRANCH  17  18
ATOM     18  P   UNL     1       1.903   8.834  18.001  0.00  0.00    +0.000 P 
ATOM     19  O   UNL     1       0.659   8.304  17.364  0.00  0.00    +0.000 OA
BRANCH  18  20
ATOM     20  O   UNL     1       1.654   9.023  19.582  0.00  0.00    +0.000 OA
ATOM     21  H   UNL     1       2.288   8.523  20.125  0.00  0.00    +0.000 HD
ENDBRANCH  18  20
BRANCH  18  22
ATOM     22  O   UNL     1       2.223  10.340  17.566  0.00  0.00    +0.000 OA
ATOM     23  H   UNL     1       2.496  10.900  18.319  0.00  0.00    +0.000 HD
ENDBRANCH  18  22
ENDBRANCH  17  18
ENDBRANCH  16  17
ENDBRANCH   3  16
TORSDOF 6
ENDMDL
