MODEL 1
REMARK VINA RESULT:      -7.7      0.000      0.000
REMARK  Name = 
REMARK  4 active torsions:
REMARK  status: ('A' for Active; 'I' for Inactive)
REMARK    1  A    between atoms: C_1  and  C_2
REMARK    2  A    between atoms: N_9  and  C_10
REMARK    3  A    between atoms: C_10  and  C_11
REMARK    4  A    between atoms: C_10  and  C_12
REMARK                            x       y       z     vdW  Elec       q    Type
REMARK                         _______ _______ _______ _____ _____    ______ ____
ROOT
ATOM      1  C   UNL     1       0.265   9.454  23.120  0.00  0.00    +0.000 C 
ATOM      2  C   UNL     1       0.707   9.224  21.704  0.00  0.00    +0.000 A 
ATOM      3  C   UNL     1       0.535  10.157  20.743  0.00  0.00    +0.000 A 
ATOM      4  C   UNL     1       1.017   9.891  19.359  0.00  0.00    +0.000 A 
ATOM      5  O   UNL     1       0.883  10.687  18.430  0.00  0.00    +0.000 OA
ATOM      6  N   UNL     1       1.643   8.654  19.200  0.00  0.00    +0.000 N 
ATOM      7  N   UNL     1       2.154   8.176  18.044  0.00  0.00    +0.000 NA
ATOM      8  C   UNL     1       2.631   6.991  18.430  0.00  0.00    +0.000 A 
ATOM      9  N   UNL     1       3.167   6.110  17.575  0.00  0.00    +0.000 N 
ATOM     10  N   UNL     1       2.436   6.676  19.747  0.00  0.00    +0.000 NA
ATOM     11  C   UNL     1       1.804   7.727  20.204  0.00  0.00    +0.000 A 
ATOM     12  N   UNL     1       1.321   8.013  21.427  0.00  0.00    +0.000 N 
ATOM     13  H   UNL     1       2.996   6.270  16.594  0.00  0.00    +0.000 HD
ATOM     14  H   UNL     1       1.412   7.335  22.177  0.00  0.00    +0.000 HD
ENDROOT
BRANCH   9  15
ATOM     15  C   UNL     1       4.177   5.133  17.945  0.00  0.00    +0.000 C 
ATOM     16  C   UNL     1       4.209   4.014  16.894  0.00  0.00    +0.000 C 
BRANCH  15  17
ATOM     17  C   UNL     1       5.566   5.767  18.118  0.00  0.00    +0.000 A 
ATOM     18  C   UNL     1       6.389   5.326  19.175  0.00  0.00    +0.000 A 
ATOM     19  C   UNL     1       7.667   5.860  19.381  0.00  0.00    +0.000 A 
ATOM     20  C   UNL     1       8.155   6.848  18.532  0.00  0.00    +0.000 A 
ATOM     21  C   UNL     1       7.370   7.291  17.472  0.00  0.00    +0.000 A 
ATOM     22  C   UNL     1       6.092   6.751  17.260  0.00  0.00    +0.000 A 
ENDBRANCH  15  17
ENDBRANCH   9  15
TORSDOF 2
ENDMDL
MODEL 2
REMARK VINA RESULT:      -7.7      2.602      4.501
REMARK  Name = 
REMARK  4 active torsions:
REMARK  status: ('A' for Active; 'I' for Inactive)
REMARK    1  A    between atoms: C_1  and  C_2
REMARK    2  A    between atoms: N_9  and  C_10
REMARK    3  A    between atoms: C_10  and  C_11
REMARK    4  A    between atoms: C_10  and  C_12
REMARK                            x       y       z     vdW  Elec       q    Type
REMARK                         _______ _______ _______ _____ _____    ______ ____
ROOT
ATOM      1  C   UNL     1      -1.918  12.814  20.184  0.00  0.00    +0.000 C 
ATOM      2  C   UNL     1      -1.063  11.693  20.702  0.00  0.00    +0.000 A 
ATOM      3  C   UNL     1      -0.970  11.420  22.021  0.00  0.00    +0.000 A 
ATOM      4  C   UNL     1      -0.130  10.279  22.482  0.00  0.00    +0.000 A 
ATOM      5  O   UNL     1       0.013   9.979  23.668  0.00  0.00    +0.000 OA
ATOM      6  N   UNL     1       0.483   9.567  21.451  0.00  0.00    +0.000 N 
ATOM      7  N   UNL     1       1.299   8.503  21.609  0.00  0.00    +0.000 NA
ATOM      8  C   UNL     1       1.598   8.202  20.344  0.00  0.00    +0.000 A 
ATOM      9  N   UNL     1       2.468   7.238  20.012  0.00  0.00    +0.000 N 
ATOM     10  N   UNL     1       1.045   9.018  19.396  0.00  0.00    +0.000 NA
ATOM     11  C   UNL     1       0.363   9.873  20.114  0.00  0.00    +0.000 A 
ATOM     12  N   UNL     1      -0.386  10.934  19.762  0.00  0.00    +0.000 N 
ATOM     13  H   UNL     1       3.065   6.894  20.749  0.00  0.00    +0.000 HD
ATOM     14  H   UNL     1      -0.472  11.188  18.782  0.00  0.00    +0.000 HD
ENDROOT
BRANCH   9  15
ATOM     15  C   UNL     1       2.412   6.488  18.769  0.00  0.00    +0.000 C 
ATOM     16  C   UNL     1       3.772   6.577  18.061  0.00  0.00    +0.000 C 
BRANCH  15  17
ATOM     17  C   UNL     1       2.000   5.024  18.988  0.00  0.00    +0.000 A 
ATOM     18  C   UNL     1       2.132   4.113  17.921  0.00  0.00    +0.000 A 
ATOM     19  C   UNL     1       1.779   2.765  18.061  0.00  0.00    +0.000 A 
ATOM     20  C   UNL     1       1.286   2.294  19.273  0.00  0.00    +0.000 A 
ATOM     21  C   UNL     1       1.159   3.170  20.347  0.00  0.00    +0.000 A 
ATOM     22  C   UNL     1       1.520   4.519  20.211  0.00  0.00    +0.000 A 
ENDBRANCH  15  17
ENDBRANCH   9  15
TORSDOF 2
ENDMDL
MODEL 3
REMARK VINA RESULT:      -7.6      4.563      7.799
REMARK  Name = 
REMARK  4 active torsions:
REMARK  status: ('A' for Active; 'I' for Inactive)
REMARK    1  A    between atoms: C_1  and  C_2
REMARK    2  A    between atoms: N_9  and  C_10
REMARK    3  A    between atoms: C_10  and  C_11
REMARK    4  A    between atoms: C_10  and  C_12
REMARK                            x       y       z     vdW  Elec       q    Type
REMARK                         _______ _______ _______ _____ _____    ______ ____
ROOT
ATOM      1  C   UNL     1       5.669   2.435  11.365  0.00  0.00    +0.000 C 
ATOM      2  C   UNL     1       6.185   3.363  12.426  0.00  0.00    +0.000 A 
ATOM      3  C   UNL     1       7.256   4.158  12.218  0.00  0.00    +0.000 A 
ATOM      4  C   UNL     1       7.712   5.082  13.294  0.00  0.00    +0.000 A 
ATOM      5  O   UNL     1       8.688   5.824  13.181  0.00  0.00    +0.000 OA
ATOM      6  N   UNL     1       6.933   5.040  14.451  0.00  0.00    +0.000 N 
ATOM      7  N   UNL     1       7.146   5.770  15.567  0.00  0.00    +0.000 NA
ATOM      8  C   UNL     1       6.141   5.368  16.348  0.00  0.00    +0.000 A 
ATOM      9  N   UNL     1       5.997   5.778  17.615  0.00  0.00    +0.000 N 
ATOM     10  N   UNL     1       5.320   4.416  15.810  0.00  0.00    +0.000 NA
ATOM     11  C   UNL     1       5.844   4.217  14.628  0.00  0.00    +0.000 A 
ATOM     12  N   UNL     1       5.499   3.383  13.629  0.00  0.00    +0.000 N 
ATOM     13  H   UNL     1       6.796   6.224  18.040  0.00  0.00    +0.000 HD
ATOM     14  H   UNL     1       4.710   2.755  13.747  0.00  0.00    +0.000 HD
ENDROOT
BRANCH   9  15
ATOM     15  C   UNL     1       4.717   5.870  18.297  0.00  0.00    +0.000 C 
ATOM     16  C   UNL     1       3.822   6.877  17.561  0.00  0.00    +0.000 C 
BRANCH  15  17
ATOM     17  C   UNL     1       4.024   4.505  18.424  0.00  0.00    +0.000 A 
ATOM     18  C   UNL     1       4.639   3.498  19.195  0.00  0.00    +0.000 A 
ATOM     19  C   UNL     1       4.053   2.235  19.353  0.00  0.00    +0.000 A 
ATOM     20  C   UNL     1       2.836   1.950  18.746  0.00  0.00    +0.000 A 
ATOM     21  C   UNL     1       2.200   2.930  17.990  0.00  0.00    +0.000 A 
ATOM     22  C   UNL     1       2.781   4.198  17.837  0.00  0.00    +0.000 A 
ENDBRANCH  15  17
ENDBRANCH   9  15
TORSDOF 2
ENDMDL
MODEL 4
REMARK VINA RESULT:      -7.6      4.537      7.802
REMARK  Name = 
REMARK  4 active torsions:
REMARK  status: ('A' for Active; 'I' for Inactive)
REMARK    1  A    between atoms: C_1  and  C_2
REMARK    2  A    between atoms: N_9  and  C_10
REMARK    3  A    between atoms: C_10  and  C_11
REMARK    4  A    between atoms: C_10  and  C_12
REMARK                            x       y       z     vdW  Elec       q    Type
REMARK                         _______ _______ _______ _____ _____    ______ ____
ROOT
ATOM      1  C   UNL     1       5.488   2.578  11.372  0.00  0.00    +0.000 C 
ATOM      2  C   UNL     1       6.050   3.458  12.451  0.00  0.00    +0.000 A 
ATOM      3  C   UNL     1       7.168   4.190  12.263  0.00  0.00    +0.000 A 
ATOM      4  C   UNL     1       7.669   5.070  13.356  0.00  0.00    +0.000 A 
ATOM      5  O   UNL     1       8.689   5.754  13.262  0.00  0.00    +0.000 OA
ATOM      6  N   UNL     1       6.878   5.060  14.505  0.00  0.00    +0.000 N 
ATOM      7  N   UNL     1       7.124   5.761  15.633  0.00  0.00    +0.000 NA
ATOM      8  C   UNL     1       6.089   5.410  16.399  0.00  0.00    +0.000 A 
ATOM      9  N   UNL     1       5.958   5.811  17.671  0.00  0.00    +0.000 N 
ATOM     10  N   UNL     1       5.217   4.517  15.841  0.00  0.00    +0.000 NA
ATOM     11  C   UNL     1       5.740   4.302  14.661  0.00  0.00    +0.000 A 
ATOM     12  N   UNL     1       5.354   3.504  13.648  0.00  0.00    +0.000 N 
ATOM     13  H   UNL     1       6.778   6.202  18.109  0.00  0.00    +0.000 HD
ATOM     14  H   UNL     1       4.528   2.923  13.750  0.00  0.00    +0.000 HD
ENDROOT
BRANCH   9  15
ATOM     15  C   UNL     1       4.680   5.971  18.343  0.00  0.00    +0.000 C 
ATOM     16  C   UNL     1       3.814   6.966  17.557  0.00  0.00    +0.000 C 
BRANCH  15  17
ATOM     17  C   UNL     1       3.948   4.633  18.533  0.00  0.00    +0.000 A 
ATOM     18  C   UNL     1       2.637   4.497  18.032  0.00  0.00    +0.000 A 
ATOM     19  C   UNL     1       1.921   3.302  18.167  0.00  0.00    +0.000 A 
ATOM     20  C   UNL     1       2.499   2.210  18.805  0.00  0.00    +0.000 A 
ATOM     21  C   UNL     1       3.797   2.312  19.296  0.00  0.00    +0.000 A 
ATOM     22  C   UNL     1       4.519   3.507  19.154  0.00  0.00    +0.000 A 
ENDBRANCH  15  17
ENDBRANCH   9  15
TORSDOF 2
ENDMDL
MODEL 5
REMARK VINA RESULT:      -7.3      2.283      4.196
REMARK  Name = 
REMARK  4 active torsions:
REMARK  status: ('A' for Active; 'I' for Inactive)
REMARK    1  A    between atoms: C_1  and  C_2
REMARK    2  A    between atoms: N_9  and  C_10
REMARK    3  A    between atoms: C_10  and  C_11
REMARK    4  A    between atoms: C_10  and  C_12
REMARK                            x       y       z     vdW  Elec       q    Type
REMARK                         _______ _______ _______ _____ _____    ______ ____
ROOT
ATOM      1  C   UNL     1      -0.742  12.883  18.322  0.00  0.00    +0.000 C 
ATOM      2  C   UNL     1      -0.162  11.697  19.038  0.00  0.00    +0.000 A 
ATOM      3  C   UNL     1      -0.370  11.488  20.355  0.00  0.00    +0.000 A 
ATOM      4  C   UNL     1       0.205  10.281  21.012  0.00  0.00    +0.000 A 
ATOM      5  O   UNL     1       0.068  10.032  22.210  0.00  0.00    +0.000 OA
ATOM      6  N   UNL     1       0.914   9.444  20.150  0.00  0.00    +0.000 N 
ATOM      7  N   UNL     1       1.537   8.299  20.504  0.00  0.00    +0.000 NA
ATOM      8  C   UNL     1       2.041   7.894  19.336  0.00  0.00    +0.000 A 
ATOM      9  N   UNL     1       2.826   6.816  19.219  0.00  0.00    +0.000 N 
ATOM     10  N   UNL     1       1.799   8.718  18.272  0.00  0.00    +0.000 NA
ATOM     11  C   UNL     1       1.104   9.688  18.809  0.00  0.00    +0.000 A 
ATOM     12  N   UNL     1       0.585  10.810  18.279  0.00  0.00    +0.000 N 
ATOM     13  H   UNL     1       3.214   6.443  20.072  0.00  0.00    +0.000 HD
ATOM     14  H   UNL     1       0.730  11.019  17.296  0.00  0.00    +0.000 HD
ENDROOT
BRANCH   9  15
ATOM     15  C   UNL     1       2.923   6.010  18.013  0.00  0.00    +0.000 C 
ATOM     16  C   UNL     1       4.367   6.047  17.493  0.00  0.00    +0.000 C 
BRANCH  15  17
ATOM     17  C   UNL     1       2.454   4.564  18.238  0.00  0.00    +0.000 A 
ATOM     18  C   UNL     1       1.474   4.311  19.219  0.00  0.00    +0.000 A 
ATOM     19  C   UNL     1       1.001   3.017  19.467  0.00  0.00    +0.000 A 
ATOM     20  C   UNL     1       1.497   1.942  18.737  0.00  0.00    +0.000 A 
ATOM     21  C   UNL     1       2.455   2.165  17.753  0.00  0.00    +0.000 A 
ATOM     22  C   UNL     1       2.923   3.463  17.498  0.00  0.00    +0.000 A 
ENDBRANCH  15  17
ENDBRANCH   9  15
TORSDOF 2
ENDMDL
MODEL 6
REMARK VINA RESULT:      -7.2      4.693      7.847
REMARK  Name = 
REMARK  4 active torsions:
REMARK  status: ('A' for Active; 'I' for Inactive)
REMARK    1  A    between atoms: C_1  and  C_2
REMARK    2  A    between atoms: N_9  and  C_10
REMARK    3  A    between atoms: C_10  and  C_11
REMARK    4  A    between atoms: C_10  and  C_12
REMARK                            x       y       z     vdW  Elec       q    Type
REMARK                         _______ _______ _______ _____ _____    ______ ____
ROOT
ATOM      1  C   UNL     1       5.313   2.292  11.332  0.00  0.00    +0.000 C 
ATOM      2  C   UNL     1       6.044   3.231  12.247  0.00  0.00    +0.000 A 
ATOM      3  C   UNL     1       6.821   4.228  11.773  0.00  0.00    +0.000 A 
ATOM      4  C   UNL     1       7.503   5.151  12.723  0.00  0.00    +0.000 A 
ATOM      5  O   UNL     1       8.237   6.072  12.364  0.00  0.00    +0.000 OA
ATOM      6  N   UNL     1       7.235   4.887  14.066  0.00  0.00    +0.000 N 
ATOM      7  N   UNL     1       7.739   5.572  15.116  0.00  0.00    +0.000 NA
ATOM      8  C   UNL     1       7.178   4.937  16.147  0.00  0.00    +0.000 A 
ATOM      9  N   UNL     1       7.463   5.229  17.423  0.00  0.00    +0.000 N 
ATOM     10  N   UNL     1       6.371   3.882  15.822  0.00  0.00    +0.000 NA
ATOM     11  C   UNL     1       6.433   3.862  14.515  0.00  0.00    +0.000 A 
ATOM     12  N   UNL     1       5.868   3.044  13.609  0.00  0.00    +0.000 N 
ATOM     13  H   UNL     1       8.285   5.791  17.586  0.00  0.00    +0.000 HD
ATOM     14  H   UNL     1       5.289   2.270  13.920  0.00  0.00    +0.000 HD
ENDROOT
BRANCH   9  15
ATOM     15  C   UNL     1       6.538   5.032  18.526  0.00  0.00    +0.000 C 
ATOM     16  C   UNL     1       7.158   5.592  19.814  0.00  0.00    +0.000 C 
BRANCH  15  17
ATOM     17  C   UNL     1       5.163   5.663  18.256  0.00  0.00    +0.000 A 
ATOM     18  C   UNL     1       4.003   4.933  18.584  0.00  0.00    +0.000 A 
ATOM     19  C   UNL     1       2.722   5.456  18.368  0.00  0.00    +0.000 A 
ATOM     20  C   UNL     1       2.570   6.724  17.820  0.00  0.00    +0.000 A 
ATOM     21  C   UNL     1       3.699   7.472  17.500  0.00  0.00    +0.000 A 
ATOM     22  C   UNL     1       4.983   6.953  17.723  0.00  0.00    +0.000 A 
ENDBRANCH  15  17
ENDBRANCH   9  15
TORSDOF 2
ENDMDL
MODEL 7
REMARK VINA RESULT:      -7.0      3.234      4.763
REMARK  Name = 
REMARK  4 active torsions:
REMARK  status: ('A' for Active; 'I' for Inactive)
REMARK    1  A    between atoms: C_1  and  C_2
REMARK    2  A    between atoms: N_9  and  C_10
REMARK    3  A    between atoms: C_10  and  C_11
REMARK    4  A    between atoms: C_10  and  C_12
REMARK                            x       y       z     vdW  Elec       q    Type
REMARK                         _______ _______ _______ _____ _____    ______ ____
ROOT
ATOM      1  C   UNL     1       1.779   3.094  21.157  0.00  0.00    +0.000 C 
ATOM      2  C   UNL     1       2.301   4.210  20.298  0.00  0.00    +0.000 A 
ATOM      3  C   UNL     1       1.923   5.492  20.489  0.00  0.00    +0.000 A 
ATOM      4  C   UNL     1       2.491   6.567  19.629  0.00  0.00    +0.000 A 
ATOM      5  O   UNL     1       2.183   7.754  19.735  0.00  0.00    +0.000 OA
ATOM      6  N   UNL     1       3.414   6.115  18.685  0.00  0.00    +0.000 N 
ATOM      7  N   UNL     1       4.058   6.889  17.784  0.00  0.00    +0.000 NA
ATOM      8  C   UNL     1       4.809   5.990  17.145  0.00  0.00    +0.000 A 
ATOM      9  N   UNL     1       5.572   6.299  16.088  0.00  0.00    +0.000 N 
ATOM     10  N   UNL     1       4.667   4.696  17.565  0.00  0.00    +0.000 NA
ATOM     11  C   UNL     1       3.779   4.798  18.520  0.00  0.00    +0.000 A 
ATOM     12  N   UNL     1       3.208   3.869  19.309  0.00  0.00    +0.000 N 
ATOM     13  H   UNL     1       5.392   7.188  15.645  0.00  0.00    +0.000 HD
ATOM     14  H   UNL     1       3.449   2.890  19.190  0.00  0.00    +0.000 HD
ENDROOT
BRANCH   9  15
ATOM     15  C   UNL     1       6.788   5.588  15.729  0.00  0.00    +0.000 C 
ATOM     16  C   UNL     1       7.156   4.612  16.855  0.00  0.00    +0.000 C 
BRANCH  15  17
ATOM     17  C   UNL     1       6.659   4.856  14.384  0.00  0.00    +0.000 A 
ATOM     18  C   UNL     1       7.598   5.129  13.368  0.00  0.00    +0.000 A 
ATOM     19  C   UNL     1       7.538   4.489  12.124  0.00  0.00    +0.000 A 
ATOM     20  C   UNL     1       6.538   3.559  11.865  0.00  0.00    +0.000 A 
ATOM     21  C   UNL     1       5.606   3.261  12.855  0.00  0.00    +0.000 A 
ATOM     22  C   UNL     1       5.670   3.894  14.105  0.00  0.00    +0.000 A 
ENDBRANCH  15  17
ENDBRANCH   9  15
TORSDOF 2
ENDMDL
MODEL 8
REMARK VINA RESULT:      -7.0      2.493      4.012
REMARK  Name = 
REMARK  4 active torsions:
REMARK  status: ('A' for Active; 'I' for Inactive)
REMARK    1  A    between atoms: C_1  and  C_2
REMARK    2  A    between atoms: N_9  and  C_10
REMARK    3  A    between atoms: C_10  and  C_11
REMARK    4  A    between atoms: C_10  and  C_12
REMARK                            x       y       z     vdW  Elec       q    Type
REMARK                         _______ _______ _______ _____ _____    ______ ____
ROOT
ATOM      1  C   UNL     1      -1.836  12.778  20.980  0.00  0.00    +0.000 C 
ATOM      2  C   UNL     1      -0.984  11.578  21.277  0.00  0.00    +0.000 A 
ATOM      3  C   UNL     1      -0.880  11.069  22.523  0.00  0.00    +0.000 A 
ATOM      4  C   UNL     1      -0.044   9.859  22.762  0.00  0.00    +0.000 A 
ATOM      5  O   UNL     1       0.109   9.349  23.871  0.00  0.00    +0.000 OA
ATOM      6  N   UNL     1       0.555   9.343  21.612  0.00  0.00    +0.000 N 
ATOM      7  N   UNL     1       1.365   8.264  21.566  0.00  0.00    +0.000 NA
ATOM      8  C   UNL     1       1.650   8.196  20.264  0.00  0.00    +0.000 A 
ATOM      9  N   UNL     1       2.510   7.305  19.754  0.00  0.00    +0.000 N 
ATOM     10  N   UNL     1       1.094   9.174  19.486  0.00  0.00    +0.000 NA
ATOM     11  C   UNL     1       0.424   9.888  20.354  0.00  0.00    +0.000 A 
ATOM     12  N   UNL     1      -0.321  10.998  20.208  0.00  0.00    +0.000 N 
ATOM     13  H   UNL     1       3.112   6.830  20.410  0.00  0.00    +0.000 HD
ATOM     14  H   UNL     1      -0.415  11.426  19.292  0.00  0.00    +0.000 HD
ENDROOT
BRANCH   9  15
ATOM     15  C   UNL     1       2.438   6.793  18.395  0.00  0.00    +0.000 C 
ATOM     16  C   UNL     1       3.512   7.477  17.538  0.00  0.00    +0.000 C 
BRANCH  15  17
ATOM     17  C   UNL     1       2.579   5.264  18.340  0.00  0.00    +0.000 A 
ATOM     18  C   UNL     1       3.870   4.699  18.337  0.00  0.00    +0.000 A 
ATOM     19  C   UNL     1       4.064   3.313  18.294  0.00  0.00    +0.000 A 
ATOM     20  C   UNL     1       2.970   2.456  18.255  0.00  0.00    +0.000 A 
ATOM     21  C   UNL     1       1.683   2.987  18.271  0.00  0.00    +0.000 A 
ATOM     22  C   UNL     1       1.487   4.375  18.322  0.00  0.00    +0.000 A 
ENDBRANCH  15  17
ENDBRANCH   9  15
TORSDOF 2
ENDMDL
MODEL 9
REMARK VINA RESULT:      -7.0      3.205      4.671
REMARK  Name = 
REMARK  4 active torsions:
REMARK  status: ('A' for Active; 'I' for Inactive)
REMARK    1  A    between atoms: C_1  and  C_2
REMARK    2  A    between atoms: N_9  and  C_10
REMARK    3  A    between atoms: C_10  and  C_11
REMARK    4  A    between atoms: C_10  and  C_12
REMARK                            x       y       z     vdW  Elec       q    Type
REMARK                         _______ _______ _______ _____ _____    ______ ____
ROOT
ATOM      1  C   UNL     1       1.830   2.988  21.281  0.00  0.00    +0.000 C 
ATOM      2  C   UNL     1       2.314   4.115  20.414  0.00  0.00    +0.000 A 
ATOM      3  C   UNL     1       1.883   5.382  20.586  0.00  0.00    +0.000 A 
ATOM      4  C   UNL     1       2.415   6.470  19.718  0.00  0.00    +0.000 A 
ATOM      5  O   UNL     1       2.058   7.644  19.808  0.00  0.00    +0.000 OA
ATOM      6  N   UNL     1       3.364   6.044  18.788  0.00  0.00    +0.000 N 
ATOM      7  N   UNL     1       3.985   6.833  17.884  0.00  0.00    +0.000 NA
ATOM      8  C   UNL     1       4.778   5.958  17.262  0.00  0.00    +0.000 A 
ATOM      9  N   UNL     1       5.538   6.287  16.209  0.00  0.00    +0.000 N 
ATOM     10  N   UNL     1       4.685   4.665  17.696  0.00  0.00    +0.000 NA
ATOM     11  C   UNL     1       3.784   4.742  18.642  0.00  0.00    +0.000 A 
ATOM     12  N   UNL     1       3.244   3.799  19.437  0.00  0.00    +0.000 N 
ATOM     13  H   UNL     1       5.326   7.162  15.753  0.00  0.00    +0.000 HD
ATOM     14  H   UNL     1       3.526   2.829  19.332  0.00  0.00    +0.000 HD
ENDROOT
BRANCH   9  15
ATOM     15  C   UNL     1       6.784   5.622  15.869  0.00  0.00    +0.000 C 
ATOM     16  C   UNL     1       7.143   4.619  16.976  0.00  0.00    +0.000 C 
BRANCH  15  17
ATOM     17  C   UNL     1       6.722   4.930  14.498  0.00  0.00    +0.000 A 
ATOM     18  C   UNL     1       5.683   4.012  14.246  0.00  0.00    +0.000 A 
ATOM     19  C   UNL     1       5.568   3.355  13.015  0.00  0.00    +0.000 A 
ATOM     20  C   UNL     1       6.490   3.602  12.004  0.00  0.00    +0.000 A 
ATOM     21  C   UNL     1       7.518   4.515  12.221  0.00  0.00    +0.000 A 
ATOM     22  C   UNL     1       7.629   5.180  13.451  0.00  0.00    +0.000 A 
ENDBRANCH  15  17
ENDBRANCH   9  15
TORSDOF 2
ENDMDL
