MODEL 1
REMARK VINA RESULT:      -8.4      0.000      0.000
REMARK  Name = 
REMARK  5 active torsions:
REMARK  status: ('A' for Active; 'I' for Inactive)
REMARK    1  A    between atoms: C_2  and  C_3
REMARK    2  A    between atoms: C_3  and  C_4
REMARK    3  A    between atoms: C_4  and  C_5
REMARK    4  A    between atoms: C_5  and  N_6
REMARK    5  A    between atoms: N_22  and  O_23
REMARK                            x       y       z     vdW  Elec       q    Type
REMARK                         _______ _______ _______ _____ _____    ______ ____
ROOT
ATOM      1  N   UNL     1       5.319   4.330  16.919  0.00  0.00    +0.000 N 
ATOM      2  C   UNL     1       6.220   4.389  17.938  0.00  0.00    +0.000 C 
ATOM      3  O   UNL     1       7.299   4.955  17.945  0.00  0.00    +0.000 OA
ATOM      4  N   UNL     1       5.681   3.763  19.040  0.00  0.00    +0.000 N 
ATOM      5  C   UNL     1       4.277   3.450  18.854  0.00  0.00    +0.000 C 
ATOM      6  C   UNL     1       3.998   2.021  19.325  0.00  0.00    +0.000 C 
ATOM      7  C   UNL     1       2.510   1.696  19.327  0.00  0.00    +0.000 C 
ATOM      8  C   UNL     1       1.728   2.655  20.217  0.00  0.00    +0.000 C 
ATOM      9  C   UNL     1       2.118   4.104  20.057  0.00  0.00    +0.000 A 
ATOM     10  C   UNL     1       1.230   5.086  20.530  0.00  0.00    +0.000 A 
ATOM     11  C   UNL     1       1.534   6.441  20.422  0.00  0.00    +0.000 A 
ATOM     12  C   UNL     1       2.740   6.835  19.860  0.00  0.00    +0.000 A 
ATOM     13  C   UNL     1       3.640   5.872  19.408  0.00  0.00    +0.000 A 
ATOM     14  C   UNL     1       3.349   4.492  19.492  0.00  0.00    +0.000 A 
ATOM     15  C   UNL     1       4.203   3.631  17.312  0.00  0.00    +0.000 C 
ATOM     16  O   UNL     1       3.264   3.328  16.588  0.00  0.00    +0.000 OA
ATOM     17  H   UNL     1       6.122   3.879  19.943  0.00  0.00    +0.000 HD
ENDROOT
BRANCH   1  18
ATOM     18  C   UNL     1       5.336   5.219  15.777  0.00  0.00    +0.000 C 
BRANCH  18  19
ATOM     19  C   UNL     1       6.219   4.775  14.624  0.00  0.00    +0.000 C 
BRANCH  19  20
ATOM     20  C   UNL     1       5.437   4.059  13.527  0.00  0.00    +0.000 C 
BRANCH  20  22
ATOM     21  O   UNL     1       7.260   4.154  11.920  0.00  0.00    +0.000 OA
ATOM     22  C   UNL     1       6.356   3.518  12.458  0.00  0.00    +0.000 C 
ATOM     23  N   UNL     1       6.088   2.216  12.113  0.00  0.00    +0.000 N 
ATOM     24  H   UNL     1       5.394   1.623  12.550  0.00  0.00    +0.000 HD
BRANCH  23  25
ATOM     25  O   UNL     1       6.927   1.637  11.137  0.00  0.00    +0.000 OA
ATOM     26  H   UNL     1       7.539   1.099  11.684  0.00  0.00    +0.000 HD
ENDBRANCH  23  25
ENDBRANCH  20  22
ENDBRANCH  19  20
ENDBRANCH  18  19
ENDBRANCH   1  18
TORSDOF 5
ENDMDL
MODEL 2
REMARK VINA RESULT:      -8.0      1.203      1.528
REMARK  Name = 
REMARK  5 active torsions:
REMARK  status: ('A' for Active; 'I' for Inactive)
REMARK    1  A    between atoms: C_2  and  C_3
REMARK    2  A    between atoms: C_3  and  C_4
REMARK    3  A    between atoms: C_4  and  C_5
REMARK    4  A    between atoms: C_5  and  N_6
REMARK    5  A    between atoms: N_22  and  O_23
REMARK                            x       y       z     vdW  Elec       q    Type
REMARK                         _______ _______ _______ _____ _____    ______ ____
ROOT
ATOM      1  N   UNL     1       5.311   4.438  17.123  0.00  0.00    +0.000 N 
ATOM      2  C   UNL     1       6.143   4.329  18.195  0.00  0.00    +0.000 C 
ATOM      3  O   UNL     1       7.235   4.850  18.345  0.00  0.00    +0.000 OA
ATOM      4  N   UNL     1       5.514   3.583  19.167  0.00  0.00    +0.000 N 
ATOM      5  C   UNL     1       4.118   3.351  18.853  0.00  0.00    +0.000 C 
ATOM      6  C   UNL     1       3.768   1.883  19.110  0.00  0.00    +0.000 C 
ATOM      7  C   UNL     1       2.274   1.616  18.975  0.00  0.00    +0.000 C 
ATOM      8  C   UNL     1       1.461   2.477  19.936  0.00  0.00    +0.000 C 
ATOM      9  C   UNL     1       1.902   3.919  19.996  0.00  0.00    +0.000 A 
ATOM     10  C   UNL     1       1.012   4.862  20.540  0.00  0.00    +0.000 A 
ATOM     11  C   UNL     1       1.361   6.208  20.633  0.00  0.00    +0.000 A 
ATOM     12  C   UNL     1       2.613   6.627  20.205  0.00  0.00    +0.000 A 
ATOM     13  C   UNL     1       3.514   5.700  19.686  0.00  0.00    +0.000 A 
ATOM     14  C   UNL     1       3.179   4.332  19.566  0.00  0.00    +0.000 A 
ATOM     15  C   UNL     1       4.152   3.735  17.348  0.00  0.00    +0.000 C 
ATOM     16  O   UNL     1       3.255   3.565  16.533  0.00  0.00    +0.000 OA
ATOM     17  H   UNL     1       5.897   3.563  20.103  0.00  0.00    +0.000 HD
ENDROOT
BRANCH   1  18
ATOM     18  C   UNL     1       5.430   5.469  16.113  0.00  0.00    +0.000 C 
BRANCH  18  19
ATOM     19  C   UNL     1       5.216   5.003  14.683  0.00  0.00    +0.000 C 
BRANCH  19  20
ATOM     20  C   UNL     1       6.265   3.992  14.232  0.00  0.00    +0.000 C 
BRANCH  20  22
ATOM     21  O   UNL     1       7.344   4.374  12.085  0.00  0.00    +0.000 OA
ATOM     22  C   UNL     1       7.263   4.619  13.288  0.00  0.00    +0.000 C 
ATOM     23  N   UNL     1       8.112   5.508  13.900  0.00  0.00    +0.000 N 
ATOM     24  H   UNL     1       8.068   5.790  14.870  0.00  0.00    +0.000 HD
BRANCH  23  25
ATOM     25  O   UNL     1       9.055   6.152  13.070  0.00  0.00    +0.000 OA
ATOM     26  H   UNL     1       9.400   5.406  12.533  0.00  0.00    +0.000 HD
ENDBRANCH  23  25
ENDBRANCH  20  22
ENDBRANCH  19  20
ENDBRANCH  18  19
ENDBRANCH   1  18
TORSDOF 5
ENDMDL
MODEL 3
REMARK VINA RESULT:      -8.0      1.197      1.421
REMARK  Name = 
REMARK  5 active torsions:
REMARK  status: ('A' for Active; 'I' for Inactive)
REMARK    1  A    between atoms: C_2  and  C_3
REMARK    2  A    between atoms: C_3  and  C_4
REMARK    3  A    between atoms: C_4  and  C_5
REMARK    4  A    between atoms: C_5  and  N_6
REMARK    5  A    between atoms: N_22  and  O_23
REMARK                            x       y       z     vdW  Elec       q    Type
REMARK                         _______ _______ _______ _____ _____    ______ ____
ROOT
ATOM      1  N   UNL     1       5.520   4.051  16.314  0.00  0.00    +0.000 N 
ATOM      2  C   UNL     1       6.556   4.486  17.083  0.00  0.00    +0.000 C 
ATOM      3  O   UNL     1       7.618   4.950  16.707  0.00  0.00    +0.000 OA
ATOM      4  N   UNL     1       6.186   4.403  18.407  0.00  0.00    +0.000 N 
ATOM      5  C   UNL     1       4.774   4.111  18.560  0.00  0.00    +0.000 C 
ATOM      6  C   UNL     1       4.583   3.023  19.619  0.00  0.00    +0.000 C 
ATOM      7  C   UNL     1       3.114   2.801  19.957  0.00  0.00    +0.000 C 
ATOM      8  C   UNL     1       2.454   4.081  20.459  0.00  0.00    +0.000 C 
ATOM      9  C   UNL     1       2.800   5.310  19.655  0.00  0.00    +0.000 A 
ATOM     10  C   UNL     1       1.976   6.442  19.787  0.00  0.00    +0.000 A 
ATOM     11  C   UNL     1       2.245   7.612  19.080  0.00  0.00    +0.000 A 
ATOM     12  C   UNL     1       3.355   7.677  18.249  0.00  0.00    +0.000 A 
ATOM     13  C   UNL     1       4.193   6.570  18.126  0.00  0.00    +0.000 A 
ATOM     14  C   UNL     1       3.934   5.367  18.820  0.00  0.00    +0.000 A 
ATOM     15  C   UNL     1       4.480   3.635  17.110  0.00  0.00    +0.000 C 
ATOM     16  O   UNL     1       3.451   3.104  16.712  0.00  0.00    +0.000 OA
ATOM     17  H   UNL     1       6.750   4.864  19.110  0.00  0.00    +0.000 HD
ENDROOT
BRANCH   1  18
ATOM     18  C   UNL     1       5.364   4.381  14.913  0.00  0.00    +0.000 C 
BRANCH  18  19
ATOM     19  C   UNL     1       6.319   3.671  13.970  0.00  0.00    +0.000 C 
BRANCH  19  20
ATOM     20  C   UNL     1       6.027   3.972  12.503  0.00  0.00    +0.000 C 
BRANCH  20  22
ATOM     21  O   UNL     1       4.503   2.541  11.259  0.00  0.00    +0.000 OA
ATOM     22  C   UNL     1       5.611   2.726  11.758  0.00  0.00    +0.000 C 
ATOM     23  N   UNL     1       6.600   1.775  11.687  0.00  0.00    +0.000 N 
ATOM     24  H   UNL     1       7.545   1.883  12.032  0.00  0.00    +0.000 HD
BRANCH  23  25
ATOM     25  O   UNL     1       6.288   0.593  10.982  0.00  0.00    +0.000 OA
ATOM     26  H   UNL     1       6.054  -0.025  11.707  0.00  0.00    +0.000 HD
ENDBRANCH  23  25
ENDBRANCH  20  22
ENDBRANCH  19  20
ENDBRANCH  18  19
ENDBRANCH   1  18
TORSDOF 5
ENDMDL
MODEL 4
REMARK VINA RESULT:      -7.8      3.206      6.682
REMARK  Name = 
REMARK  5 active torsions:
REMARK  status: ('A' for Active; 'I' for Inactive)
REMARK    1  A    between atoms: C_2  and  C_3
REMARK    2  A    between atoms: C_3  and  C_4
REMARK    3  A    between atoms: C_4  and  C_5
REMARK    4  A    between atoms: C_5  and  N_6
REMARK    5  A    between atoms: N_22  and  O_23
REMARK                            x       y       z     vdW  Elec       q    Type
REMARK                         _______ _______ _______ _____ _____    ______ ____
ROOT
ATOM      1  N   UNL     1       3.267   3.835  18.283  0.00  0.00    +0.000 N 
ATOM      2  C   UNL     1       4.056   2.795  18.668  0.00  0.00    +0.000 C 
ATOM      3  O   UNL     1       3.719   1.643  18.876  0.00  0.00    +0.000 OA
ATOM      4  N   UNL     1       5.364   3.226  18.711  0.00  0.00    +0.000 N 
ATOM      5  C   UNL     1       5.520   4.543  18.127  0.00  0.00    +0.000 C 
ATOM      6  C   UNL     1       6.402   5.408  19.030  0.00  0.00    +0.000 C 
ATOM      7  C   UNL     1       6.755   6.742  18.383  0.00  0.00    +0.000 C 
ATOM      8  C   UNL     1       7.476   6.547  17.054  0.00  0.00    +0.000 C 
ATOM      9  C   UNL     1       6.864   5.490  16.168  0.00  0.00    +0.000 A 
ATOM     10  C   UNL     1       7.202   5.491  14.803  0.00  0.00    +0.000 A 
ATOM     11  C   UNL     1       6.679   4.538  13.933  0.00  0.00    +0.000 A 
ATOM     12  C   UNL     1       5.827   3.554  14.417  0.00  0.00    +0.000 A 
ATOM     13  C   UNL     1       5.501   3.528  15.772  0.00  0.00    +0.000 A 
ATOM     14  C   UNL     1       6.006   4.492  16.673  0.00  0.00    +0.000 A 
ATOM     15  C   UNL     1       4.026   4.968  18.112  0.00  0.00    +0.000 C 
ATOM     16  O   UNL     1       3.588   6.084  17.862  0.00  0.00    +0.000 OA
ATOM     17  H   UNL     1       6.109   2.546  18.786  0.00  0.00    +0.000 HD
ENDROOT
BRANCH   1  18
ATOM     18  C   UNL     1       1.942   3.676  17.722  0.00  0.00    +0.000 C 
BRANCH  18  19
ATOM     19  C   UNL     1       0.886   3.167  18.687  0.00  0.00    +0.000 C 
BRANCH  19  20
ATOM     20  C   UNL     1       0.675   4.104  19.873  0.00  0.00    +0.000 C 
BRANCH  20  22
ATOM     21  O   UNL     1       2.359   4.708  21.522  0.00  0.00    +0.000 OA
ATOM     22  C   UNL     1       1.683   3.843  20.967  0.00  0.00    +0.000 C 
ATOM     23  N   UNL     1       1.800   2.515  21.298  0.00  0.00    +0.000 N 
ATOM     24  H   UNL     1       1.242   1.763  20.917  0.00  0.00    +0.000 HD
BRANCH  23  25
ATOM     25  O   UNL     1       2.707   2.202  22.333  0.00  0.00    +0.000 OA
ATOM     26  H   UNL     1       3.012   3.091  22.616  0.00  0.00    +0.000 HD
ENDBRANCH  23  25
ENDBRANCH  20  22
ENDBRANCH  19  20
ENDBRANCH  18  19
ENDBRANCH   1  18
TORSDOF 5
ENDMDL
MODEL 5
REMARK VINA RESULT:      -7.7      2.035      3.409
REMARK  Name = 
REMARK  5 active torsions:
REMARK  status: ('A' for Active; 'I' for Inactive)
REMARK    1  A    between atoms: C_2  and  C_3
REMARK    2  A    between atoms: C_3  and  C_4
REMARK    3  A    between atoms: C_4  and  C_5
REMARK    4  A    between atoms: C_5  and  N_6
REMARK    5  A    between atoms: N_22  and  O_23
REMARK                            x       y       z     vdW  Elec       q    Type
REMARK                         _______ _______ _______ _____ _____    ______ ____
ROOT
ATOM      1  N   UNL     1       5.513   6.172  17.648  0.00  0.00    +0.000 N 
ATOM      2  C   UNL     1       4.674   6.722  16.727  0.00  0.00    +0.000 C 
ATOM      3  O   UNL     1       4.939   7.054  15.585  0.00  0.00    +0.000 OA
ATOM      4  N   UNL     1       3.406   6.775  17.262  0.00  0.00    +0.000 N 
ATOM      5  C   UNL     1       3.312   6.040  18.508  0.00  0.00    +0.000 C 
ATOM      6  C   UNL     1       2.550   6.872  19.543  0.00  0.00    +0.000 C 
ATOM      7  C   UNL     1       2.258   6.083  20.813  0.00  0.00    +0.000 C 
ATOM      8  C   UNL     1       1.448   4.825  20.518  0.00  0.00    +0.000 C 
ATOM      9  C   UNL     1       1.929   4.048  19.317  0.00  0.00    +0.000 A 
ATOM     10  C   UNL     1       1.512   2.712  19.182  0.00  0.00    +0.000 A 
ATOM     11  C   UNL     1       1.913   1.942  18.093  0.00  0.00    +0.000 A 
ATOM     12  C   UNL     1       2.718   2.502  17.110  0.00  0.00    +0.000 A 
ATOM     13  C   UNL     1       3.120   3.832  17.220  0.00  0.00    +0.000 A 
ATOM     14  C   UNL     1       2.740   4.630  18.322  0.00  0.00    +0.000 A 
ATOM     15  C   UNL     1       4.830   5.900  18.808  0.00  0.00    +0.000 C 
ATOM     16  O   UNL     1       5.332   5.493  19.848  0.00  0.00    +0.000 OA
ATOM     17  H   UNL     1       2.619   6.970  16.657  0.00  0.00    +0.000 HD
ENDROOT
BRANCH   1  18
ATOM     18  C   UNL     1       6.788   5.571  17.318  0.00  0.00    +0.000 C 
BRANCH  18  19
ATOM     19  C   UNL     1       6.715   4.154  16.776  0.00  0.00    +0.000 C 
BRANCH  19  20
ATOM     20  C   UNL     1       5.879   4.055  15.503  0.00  0.00    +0.000 C 
BRANCH  20  22
ATOM     21  O   UNL     1       6.631   3.780  13.206  0.00  0.00    +0.000 OA
ATOM     22  C   UNL     1       6.702   4.377  14.278  0.00  0.00    +0.000 C 
ATOM     23  N   UNL     1       7.577   5.419  14.465  0.00  0.00    +0.000 N 
ATOM     24  H   UNL     1       7.650   5.982  15.302  0.00  0.00    +0.000 HD
BRANCH  23  25
ATOM     25  O   UNL     1       8.360   5.791  13.352  0.00  0.00    +0.000 OA
ATOM     26  H   UNL     1       9.223   6.003  13.768  0.00  0.00    +0.000 HD
ENDBRANCH  23  25
ENDBRANCH  20  22
ENDBRANCH  19  20
ENDBRANCH  18  19
ENDBRANCH   1  18
TORSDOF 5
ENDMDL
MODEL 6
REMARK VINA RESULT:      -7.7      3.177      5.864
REMARK  Name = 
REMARK  5 active torsions:
REMARK  status: ('A' for Active; 'I' for Inactive)
REMARK    1  A    between atoms: C_2  and  C_3
REMARK    2  A    between atoms: C_3  and  C_4
REMARK    3  A    between atoms: C_4  and  C_5
REMARK    4  A    between atoms: C_5  and  N_6
REMARK    5  A    between atoms: N_22  and  O_23
REMARK                            x       y       z     vdW  Elec       q    Type
REMARK                         _______ _______ _______ _____ _____    ______ ____
ROOT
ATOM      1  N   UNL     1       4.698   2.824  19.276  0.00  0.00    +0.000 N 
ATOM      2  C   UNL     1       4.160   2.329  18.127  0.00  0.00    +0.000 C 
ATOM      3  O   UNL     1       3.430   1.362  18.004  0.00  0.00    +0.000 OA
ATOM      4  N   UNL     1       4.504   3.163  17.085  0.00  0.00    +0.000 N 
ATOM      5  C   UNL     1       5.113   4.393  17.552  0.00  0.00    +0.000 C 
ATOM      6  C   UNL     1       6.352   4.709  16.712  0.00  0.00    +0.000 C 
ATOM      7  C   UNL     1       6.930   6.080  17.032  0.00  0.00    +0.000 C 
ATOM      8  C   UNL     1       5.905   7.187  16.809  0.00  0.00    +0.000 C 
ATOM      9  C   UNL     1       4.531   6.874  17.348  0.00  0.00    +0.000 A 
ATOM     10  C   UNL     1       3.634   7.940  17.535  0.00  0.00    +0.000 A 
ATOM     11  C   UNL     1       2.347   7.718  18.021  0.00  0.00    +0.000 A 
ATOM     12  C   UNL     1       1.930   6.426  18.305  0.00  0.00    +0.000 A 
ATOM     13  C   UNL     1       2.801   5.357  18.102  0.00  0.00    +0.000 A 
ATOM     14  C   UNL     1       4.116   5.556  17.626  0.00  0.00    +0.000 A 
ATOM     15  C   UNL     1       5.435   3.952  19.007  0.00  0.00    +0.000 C 
ATOM     16  O   UNL     1       6.116   4.565  19.820  0.00  0.00    +0.000 OA
ATOM     17  H   UNL     1       4.034   3.064  16.194  0.00  0.00    +0.000 HD
ENDROOT
BRANCH   1  18
ATOM     18  C   UNL     1       4.219   2.486  20.599  0.00  0.00    +0.000 C 
BRANCH  18  19
ATOM     19  C   UNL     1       3.177   3.431  21.173  0.00  0.00    +0.000 C 
BRANCH  19  20
ATOM     20  C   UNL     1       1.827   2.753  21.389  0.00  0.00    +0.000 C 
BRANCH  20  22
ATOM     21  O   UNL     1       0.249   3.821  19.877  0.00  0.00    +0.000 OA
ATOM     22  C   UNL     1       0.956   2.856  20.160  0.00  0.00    +0.000 C 
ATOM     23  N   UNL     1       1.009   1.743  19.357  0.00  0.00    +0.000 N 
ATOM     24  H   UNL     1       1.605   0.939  19.506  0.00  0.00    +0.000 HD
BRANCH  23  25
ATOM     25  O   UNL     1       0.238   1.781  18.176  0.00  0.00    +0.000 OA
ATOM     26  H   UNL     1      -0.118   2.695  18.191  0.00  0.00    +0.000 HD
ENDBRANCH  23  25
ENDBRANCH  20  22
ENDBRANCH  19  20
ENDBRANCH  18  19
ENDBRANCH   1  18
TORSDOF 5
ENDMDL
MODEL 7
REMARK VINA RESULT:      -7.6      1.945      2.695
REMARK  Name = 
REMARK  5 active torsions:
REMARK  status: ('A' for Active; 'I' for Inactive)
REMARK    1  A    between atoms: C_2  and  C_3
REMARK    2  A    between atoms: C_3  and  C_4
REMARK    3  A    between atoms: C_4  and  C_5
REMARK    4  A    between atoms: C_5  and  N_6
REMARK    5  A    between atoms: N_22  and  O_23
REMARK                            x       y       z     vdW  Elec       q    Type
REMARK                         _______ _______ _______ _____ _____    ______ ____
ROOT
ATOM      1  N   UNL     1       4.694   3.740  17.697  0.00  0.00    +0.000 N 
ATOM      2  C   UNL     1       5.702   4.251  18.455  0.00  0.00    +0.000 C 
ATOM      3  O   UNL     1       6.894   4.256  18.202  0.00  0.00    +0.000 OA
ATOM      4  N   UNL     1       5.155   4.867  19.559  0.00  0.00    +0.000 N 
ATOM      5  C   UNL     1       3.713   4.981  19.457  0.00  0.00    +0.000 C 
ATOM      6  C   UNL     1       3.067   4.571  20.783  0.00  0.00    +0.000 C 
ATOM      7  C   UNL     1       1.569   4.843  20.801  0.00  0.00    +0.000 C 
ATOM      8  C   UNL     1       1.263   6.317  20.555  0.00  0.00    +0.000 C 
ATOM      9  C   UNL     1       2.064   6.935  19.435  0.00  0.00    +0.000 A 
ATOM     10  C   UNL     1       1.607   8.144  18.883  0.00  0.00    +0.000 A 
ATOM     11  C   UNL     1       2.305   8.772  17.853  0.00  0.00    +0.000 A 
ATOM     12  C   UNL     1       3.482   8.212  17.375  0.00  0.00    +0.000 A 
ATOM     13  C   UNL     1       3.958   7.025  17.929  0.00  0.00    +0.000 A 
ATOM     14  C   UNL     1       3.262   6.361  18.963  0.00  0.00    +0.000 A 
ATOM     15  C   UNL     1       3.482   3.965  18.304  0.00  0.00    +0.000 C 
ATOM     16  O   UNL     1       2.402   3.541  17.913  0.00  0.00    +0.000 OA
ATOM     17  H   UNL     1       5.733   5.469  20.130  0.00  0.00    +0.000 HD
ENDROOT
BRANCH   1  18
ATOM     18  C   UNL     1       4.829   3.412  16.293  0.00  0.00    +0.000 C 
BRANCH  18  19
ATOM     19  C   UNL     1       4.982   4.602  15.362  0.00  0.00    +0.000 C 
BRANCH  19  20
ATOM     20  C   UNL     1       5.934   4.320  14.203  0.00  0.00    +0.000 C 
BRANCH  20  22
ATOM     21  O   UNL     1       7.677   5.532  15.391  0.00  0.00    +0.000 OA
ATOM     22  C   UNL     1       7.209   5.120  14.332  0.00  0.00    +0.000 C 
ATOM     23  N   UNL     1       7.822   5.371  13.128  0.00  0.00    +0.000 N 
ATOM     24  H   UNL     1       7.517   5.020  12.229  0.00  0.00    +0.000 HD
BRANCH  23  25
ATOM     25  O   UNL     1       9.033   6.092  13.176  0.00  0.00    +0.000 OA
ATOM     26  H   UNL     1       8.719   7.022  13.198  0.00  0.00    +0.000 HD
ENDBRANCH  23  25
ENDBRANCH  20  22
ENDBRANCH  19  20
ENDBRANCH  18  19
ENDBRANCH   1  18
TORSDOF 5
ENDMDL
MODEL 8
REMARK VINA RESULT:      -7.6      1.479      1.824
REMARK  Name = 
REMARK  5 active torsions:
REMARK  status: ('A' for Active; 'I' for Inactive)
REMARK    1  A    between atoms: C_2  and  C_3
REMARK    2  A    between atoms: C_3  and  C_4
REMARK    3  A    between atoms: C_4  and  C_5
REMARK    4  A    between atoms: C_5  and  N_6
REMARK    5  A    between atoms: N_22  and  O_23
REMARK                            x       y       z     vdW  Elec       q    Type
REMARK                         _______ _______ _______ _____ _____    ______ ____
ROOT
ATOM      1  N   UNL     1       5.604   4.131  16.317  0.00  0.00    +0.000 N 
ATOM      2  C   UNL     1       6.618   4.621  17.082  0.00  0.00    +0.000 C 
ATOM      3  O   UNL     1       7.689   5.061  16.704  0.00  0.00    +0.000 OA
ATOM      4  N   UNL     1       6.212   4.628  18.398  0.00  0.00    +0.000 N 
ATOM      5  C   UNL     1       4.797   4.343  18.532  0.00  0.00    +0.000 C 
ATOM      6  C   UNL     1       4.578   3.331  19.659  0.00  0.00    +0.000 C 
ATOM      7  C   UNL     1       3.101   3.129  19.971  0.00  0.00    +0.000 C 
ATOM      8  C   UNL     1       2.426   4.439  20.365  0.00  0.00    +0.000 C 
ATOM      9  C   UNL     1       2.793   5.610  19.488  0.00  0.00    +0.000 A 
ATOM     10  C   UNL     1       1.965   6.746  19.518  0.00  0.00    +0.000 A 
ATOM     11  C   UNL     1       2.252   7.865  18.740  0.00  0.00    +0.000 A 
ATOM     12  C   UNL     1       3.383   7.875  17.937  0.00  0.00    +0.000 A 
ATOM     13  C   UNL     1       4.226   6.765  17.914  0.00  0.00    +0.000 A 
ATOM     14  C   UNL     1       3.949   5.612  18.681  0.00  0.00    +0.000 A 
ATOM     15  C   UNL     1       4.543   3.768  17.111  0.00  0.00    +0.000 C 
ATOM     16  O   UNL     1       3.526   3.208  16.724  0.00  0.00    +0.000 OA
ATOM     17  H   UNL     1       6.756   5.138  19.083  0.00  0.00    +0.000 HD
ENDROOT
BRANCH   1  18
ATOM     18  C   UNL     1       5.486   4.363  14.893  0.00  0.00    +0.000 C 
BRANCH  18  19
ATOM     19  C   UNL     1       6.232   3.376  14.012  0.00  0.00    +0.000 C 
BRANCH  19  20
ATOM     20  C   UNL     1       6.237   3.788  12.543  0.00  0.00    +0.000 C 
BRANCH  20  22
ATOM     21  O   UNL     1       5.522   1.767  11.394  0.00  0.00    +0.000 OA
ATOM     22  C   UNL     1       5.300   2.929  11.727  0.00  0.00    +0.000 C 
ATOM     23  N   UNL     1       4.142   3.573  11.364  0.00  0.00    +0.000 N 
ATOM     24  H   UNL     1       3.877   4.508  11.646  0.00  0.00    +0.000 HD
BRANCH  23  25
ATOM     25  O   UNL     1       3.208   2.821  10.621  0.00  0.00    +0.000 OA
ATOM     26  H   UNL     1       3.707   1.995  10.440  0.00  0.00    +0.000 HD
ENDBRANCH  23  25
ENDBRANCH  20  22
ENDBRANCH  19  20
ENDBRANCH  18  19
ENDBRANCH   1  18
TORSDOF 5
ENDMDL
MODEL 9
REMARK VINA RESULT:      -7.5      1.350      1.667
REMARK  Name = 
REMARK  5 active torsions:
REMARK  status: ('A' for Active; 'I' for Inactive)
REMARK    1  A    between atoms: C_2  and  C_3
REMARK    2  A    between atoms: C_3  and  C_4
REMARK    3  A    between atoms: C_4  and  C_5
REMARK    4  A    between atoms: C_5  and  N_6
REMARK    5  A    between atoms: N_22  and  O_23
REMARK                            x       y       z     vdW  Elec       q    Type
REMARK                         _______ _______ _______ _____ _____    ______ ____
ROOT
ATOM      1  N   UNL     1       4.773   3.653  17.151  0.00  0.00    +0.000 N 
ATOM      2  C   UNL     1       5.844   4.020  17.907  0.00  0.00    +0.000 C 
ATOM      3  O   UNL     1       6.906   4.476  17.520  0.00  0.00    +0.000 OA
ATOM      4  N   UNL     1       5.514   3.876  19.236  0.00  0.00    +0.000 N 
ATOM      5  C   UNL     1       4.101   3.612  19.420  0.00  0.00    +0.000 C 
ATOM      6  C   UNL     1       3.913   2.476  20.427  0.00  0.00    +0.000 C 
ATOM      7  C   UNL     1       2.450   2.274  20.801  0.00  0.00    +0.000 C 
ATOM      8  C   UNL     1       1.842   3.542  21.391  0.00  0.00    +0.000 C 
ATOM      9  C   UNL     1       2.196   4.802  20.641  0.00  0.00    +0.000 A 
ATOM     10  C   UNL     1       1.408   5.946  20.859  0.00  0.00    +0.000 A 
ATOM     11  C   UNL     1       1.686   7.145  20.205  0.00  0.00    +0.000 A 
ATOM     12  C   UNL     1       2.770   7.225  19.342  0.00  0.00    +0.000 A 
ATOM     13  C   UNL     1       3.573   6.106  19.135  0.00  0.00    +0.000 A 
ATOM     14  C   UNL     1       3.304   4.874  19.773  0.00  0.00    +0.000 A 
ATOM     15  C   UNL     1       3.748   3.222  17.958  0.00  0.00    +0.000 C 
ATOM     16  O   UNL     1       2.692   2.739  17.568  0.00  0.00    +0.000 OA
ATOM     17  H   UNL     1       6.112   4.284  19.943  0.00  0.00    +0.000 HD
ENDROOT
BRANCH   1  18
ATOM     18  C   UNL     1       4.581   4.060  15.775  0.00  0.00    +0.000 C 
BRANCH  18  19
ATOM     19  C   UNL     1       5.821   4.595  15.079  0.00  0.00    +0.000 C 
BRANCH  19  20
ATOM     20  C   UNL     1       6.034   3.975  13.701  0.00  0.00    +0.000 C 
BRANCH  20  22
ATOM     21  O   UNL     1       7.440   4.476  11.781  0.00  0.00    +0.000 OA
ATOM     22  C   UNL     1       7.180   4.635  12.972  0.00  0.00    +0.000 C 
ATOM     23  N   UNL     1       7.944   5.447  13.774  0.00  0.00    +0.000 N 
ATOM     24  H   UNL     1       7.756   5.659  14.745  0.00  0.00    +0.000 HD
BRANCH  23  25
ATOM     25  O   UNL     1       9.018   6.117  13.151  0.00  0.00    +0.000 OA
ATOM     26  H   UNL     1       8.896   7.039  13.464  0.00  0.00    +0.000 HD
ENDBRANCH  23  25
ENDBRANCH  20  22
ENDBRANCH  19  20
ENDBRANCH  18  19
ENDBRANCH   1  18
TORSDOF 5
ENDMDL
