MODEL 1
REMARK VINA RESULT:      -7.3      0.000      0.000
REMARK  Name = 
REMARK  7 active torsions:
REMARK  status: ('A' for Active; 'I' for Inactive)
REMARK    1  A    between atoms: C_1  and  C_2
REMARK    2  A    between atoms: C_2  and  C_3
REMARK    3  A    between atoms: C_7  and  C_8
REMARK    4  A    between atoms: C_8  and  N_9
REMARK    5  A    between atoms: C_12  and  O_13
REMARK    6  A    between atoms: C_15  and  C_16
REMARK    7  A    between atoms: C_15  and  C_17
REMARK                            x       y       z     vdW  Elec       q    Type
REMARK                         _______ _______ _______ _____ _____    ______ ____
ROOT
ATOM      1  N   UNL     1       4.315   3.878  19.104  0.00  0.00    +0.000 NA
ATOM      2  C   UNL     1       3.871   2.591  19.672  0.00  0.00    +0.000 C 
ATOM      3  C   UNL     1       2.388   2.368  19.977  0.00  0.00    +0.000 C 
ATOM      4  C   UNL     1       1.872   3.294  21.067  0.00  0.00    +0.000 C 
ATOM      5  C   UNL     1       1.395   4.655  20.565  0.00  0.00    +0.000 C 
ATOM      6  C   UNL     1       2.293   5.405  19.552  0.00  0.00    +0.000 C 
ATOM      7  C   UNL     1       2.071   6.922  19.787  0.00  0.00    +0.000 C 
ATOM      8  C   UNL     1       1.850   5.134  18.096  0.00  0.00    +0.000 C 
ATOM      9  C   UNL     1       3.801   5.097  19.752  0.00  0.00    +0.000 C 
ENDROOT
BRANCH   4  10
ATOM     10  O   UNL     1       0.774   2.664  21.736  0.00  0.00    +0.000 OA
ATOM     11  H   UNL     1       1.138   2.001  22.350  0.00  0.00    +0.000 HD
ENDBRANCH   4  10
BRANCH   1  12
ATOM     12  C   UNL     1       5.807   3.931  19.138  0.00  0.00    +0.000 C 
BRANCH  12  17
ATOM     13  C   UNL     1       6.998   5.224  15.903  0.00  0.00    +0.000 A 
ATOM     14  N   UNL     1       7.587   6.401  16.183  0.00  0.00    +0.000 NA
ATOM     15  C   UNL     1       7.583   6.777  17.474  0.00  0.00    +0.000 A 
ATOM     16  C   UNL     1       7.018   6.032  18.481  0.00  0.00    +0.000 A 
ATOM     17  C   UNL     1       6.438   4.838  18.102  0.00  0.00    +0.000 A 
ATOM     18  N   UNL     1       6.418   4.420  16.815  0.00  0.00    +0.000 NA
BRANCH  13  20
ATOM     19  C   UNL     1       5.568   4.155  14.179  0.00  0.00    +0.000 C 
ATOM     20  C   UNL     1       6.908   4.814  14.460  0.00  0.00    +0.000 C 
ENDBRANCH  13  20
ENDBRANCH  12  17
ENDBRANCH   1  12
TORSDOF 4
ENDMDL
MODEL 2
REMARK VINA RESULT:      -7.2      1.293      1.976
REMARK  Name = 
REMARK  7 active torsions:
REMARK  status: ('A' for Active; 'I' for Inactive)
REMARK    1  A    between atoms: C_1  and  C_2
REMARK    2  A    between atoms: C_2  and  C_3
REMARK    3  A    between atoms: C_7  and  C_8
REMARK    4  A    between atoms: C_8  and  N_9
REMARK    5  A    between atoms: C_12  and  O_13
REMARK    6  A    between atoms: C_15  and  C_16
REMARK    7  A    between atoms: C_15  and  C_17
REMARK                            x       y       z     vdW  Elec       q    Type
REMARK                         _______ _______ _______ _____ _____    ______ ____
ROOT
ATOM      1  N   UNL     1       4.028   3.935  19.016  0.00  0.00    +0.000 NA
ATOM      2  C   UNL     1       3.378   3.545  17.749  0.00  0.00    +0.000 C 
ATOM      3  C   UNL     1       1.854   3.419  17.687  0.00  0.00    +0.000 C 
ATOM      4  C   UNL     1       1.326   2.302  18.572  0.00  0.00    +0.000 C 
ATOM      5  C   UNL     1       1.068   2.712  20.020  0.00  0.00    +0.000 C 
ATOM      6  C   UNL     1       2.155   3.548  20.737  0.00  0.00    +0.000 C 
ATOM      7  C   UNL     1       2.082   3.187  22.245  0.00  0.00    +0.000 C 
ATOM      8  C   UNL     1       1.853   5.062  20.650  0.00  0.00    +0.000 C 
ATOM      9  C   UNL     1       3.585   3.226  20.228  0.00  0.00    +0.000 C 
ENDROOT
BRANCH   4  10
ATOM     10  O   UNL     1       0.095   1.815  18.028  0.00  0.00    +0.000 OA
ATOM     11  H   UNL     1      -0.095   2.320  17.217  0.00  0.00    +0.000 HD
ENDBRANCH   4  10
BRANCH   1  12
ATOM     12  C   UNL     1       5.502   3.742  18.880  0.00  0.00    +0.000 C 
BRANCH  12  17
ATOM     13  C   UNL     1       6.971   5.199  15.834  0.00  0.00    +0.000 A 
ATOM     14  N   UNL     1       7.452   6.400  16.208  0.00  0.00    +0.000 NA
ATOM     15  C   UNL     1       7.278   6.736  17.498  0.00  0.00    +0.000 A 
ATOM     16  C   UNL     1       6.649   5.930  18.415  0.00  0.00    +0.000 A 
ATOM     17  C   UNL     1       6.191   4.716  17.944  0.00  0.00    +0.000 A 
ATOM     18  N   UNL     1       6.342   4.336  16.655  0.00  0.00    +0.000 NA
BRANCH  13  20
ATOM     19  C   UNL     1       5.856   4.021  13.956  0.00  0.00    +0.000 C 
ATOM     20  C   UNL     1       7.071   4.828  14.381  0.00  0.00    +0.000 C 
ENDBRANCH  13  20
ENDBRANCH  12  17
ENDBRANCH   1  12
TORSDOF 4
ENDMDL
MODEL 3
REMARK VINA RESULT:      -7.1      3.223      5.739
REMARK  Name = 
REMARK  7 active torsions:
REMARK  status: ('A' for Active; 'I' for Inactive)
REMARK    1  A    between atoms: C_1  and  C_2
REMARK    2  A    between atoms: C_2  and  C_3
REMARK    3  A    between atoms: C_7  and  C_8
REMARK    4  A    between atoms: C_8  and  N_9
REMARK    5  A    between atoms: C_12  and  O_13
REMARK    6  A    between atoms: C_15  and  C_16
REMARK    7  A    between atoms: C_15  and  C_17
REMARK                            x       y       z     vdW  Elec       q    Type
REMARK                         _______ _______ _______ _____ _____    ______ ____
ROOT
ATOM      1  N   UNL     1       2.739   5.160  18.535  0.00  0.00    +0.000 NA
ATOM      2  C   UNL     1       3.236   4.338  17.414  0.00  0.00    +0.000 C 
ATOM      3  C   UNL     1       2.965   2.832  17.399  0.00  0.00    +0.000 C 
ATOM      4  C   UNL     1       3.653   2.105  18.544  0.00  0.00    +0.000 C 
ATOM      5  C   UNL     1       2.850   2.070  19.843  0.00  0.00    +0.000 C 
ATOM      6  C   UNL     1       2.185   3.385  20.315  0.00  0.00    +0.000 C 
ATOM      7  C   UNL     1       2.137   3.336  21.865  0.00  0.00    +0.000 C 
ATOM      8  C   UNL     1       0.714   3.473  19.849  0.00  0.00    +0.000 C 
ATOM      9  C   UNL     1       2.989   4.643  19.892  0.00  0.00    +0.000 C 
ENDROOT
BRANCH   4  10
ATOM     10  O   UNL     1       3.912   0.753  18.152  0.00  0.00    +0.000 OA
ATOM     11  H   UNL     1       3.658   0.173  18.892  0.00  0.00    +0.000 HD
ENDBRANCH   4  10
BRANCH   1  12
ATOM     12  C   UNL     1       3.343   6.521  18.440  0.00  0.00    +0.000 C 
BRANCH  12  17
ATOM     13  C   UNL     1       1.248   8.793  20.442  0.00  0.00    +0.000 A 
ATOM     14  N   UNL     1       0.722   9.664  19.561  0.00  0.00    +0.000 NA
ATOM     15  C   UNL     1       1.077   9.498  18.275  0.00  0.00    +0.000 A 
ATOM     16  C   UNL     1       1.926   8.509  17.842  0.00  0.00    +0.000 A 
ATOM     17  C   UNL     1       2.416   7.660  18.814  0.00  0.00    +0.000 A 
ATOM     18  N   UNL     1       2.087   7.789  20.120  0.00  0.00    +0.000 NA
BRANCH  13  20
ATOM     19  C   UNL     1      -0.550   8.873  22.149  0.00  0.00    +0.000 C 
ATOM     20  C   UNL     1       0.943   9.001  21.898  0.00  0.00    +0.000 C 
ENDBRANCH  13  20
ENDBRANCH  12  17
ENDBRANCH   1  12
TORSDOF 4
ENDMDL
MODEL 4
REMARK VINA RESULT:      -7.0      0.884      2.165
REMARK  Name = 
REMARK  7 active torsions:
REMARK  status: ('A' for Active; 'I' for Inactive)
REMARK    1  A    between atoms: C_1  and  C_2
REMARK    2  A    between atoms: C_2  and  C_3
REMARK    3  A    between atoms: C_7  and  C_8
REMARK    4  A    between atoms: C_8  and  N_9
REMARK    5  A    between atoms: C_12  and  O_13
REMARK    6  A    between atoms: C_15  and  C_16
REMARK    7  A    between atoms: C_15  and  C_17
REMARK                            x       y       z     vdW  Elec       q    Type
REMARK                         _______ _______ _______ _____ _____    ______ ____
ROOT
ATOM      1  N   UNL     1       4.355   3.925  19.200  0.00  0.00    +0.000 NA
ATOM      2  C   UNL     1       3.986   2.646  19.837  0.00  0.00    +0.000 C 
ATOM      3  C   UNL     1       2.524   2.374  20.200  0.00  0.00    +0.000 C 
ATOM      4  C   UNL     1       2.003   3.324  21.266  0.00  0.00    +0.000 C 
ATOM      5  C   UNL     1       1.451   4.641  20.724  0.00  0.00    +0.000 C 
ATOM      6  C   UNL     1       2.282   5.383  19.650  0.00  0.00    +0.000 C 
ATOM      7  C   UNL     1       2.002   6.898  19.829  0.00  0.00    +0.000 C 
ATOM      8  C   UNL     1       1.807   5.030  18.222  0.00  0.00    +0.000 C 
ATOM      9  C   UNL     1       3.808   5.148  19.813  0.00  0.00    +0.000 C 
ENDROOT
BRANCH   4  10
ATOM     10  O   UNL     1       0.955   2.678  21.998  0.00  0.00    +0.000 OA
ATOM     11  H   UNL     1       0.107   2.930  21.591  0.00  0.00    +0.000 HD
ENDBRANCH   4  10
BRANCH   1  12
ATOM     12  C   UNL     1       5.843   4.043  19.182  0.00  0.00    +0.000 C 
BRANCH  12  17
ATOM     13  C   UNL     1       7.256   6.776  17.160  0.00  0.00    +0.000 A 
ATOM     14  N   UNL     1       7.405   6.266  15.923  0.00  0.00    +0.000 NA
ATOM     15  C   UNL     1       7.035   4.984  15.760  0.00  0.00    +0.000 A 
ATOM     16  C   UNL     1       6.531   4.203  16.770  0.00  0.00    +0.000 A 
ATOM     17  C   UNL     1       6.410   4.810  18.004  0.00  0.00    +0.000 A 
ATOM     18  N   UNL     1       6.770   6.096  18.217  0.00  0.00    +0.000 NA
BRANCH  13  20
ATOM     19  C   UNL     1       8.537   8.250  18.691  0.00  0.00    +0.000 C 
ATOM     20  C   UNL     1       7.739   8.179  17.400  0.00  0.00    +0.000 C 
ENDBRANCH  13  20
ENDBRANCH  12  17
ENDBRANCH   1  12
TORSDOF 4
ENDMDL
MODEL 5
REMARK VINA RESULT:      -6.9      1.953      3.249
REMARK  Name = 
REMARK  7 active torsions:
REMARK  status: ('A' for Active; 'I' for Inactive)
REMARK    1  A    between atoms: C_1  and  C_2
REMARK    2  A    between atoms: C_2  and  C_3
REMARK    3  A    between atoms: C_7  and  C_8
REMARK    4  A    between atoms: C_8  and  N_9
REMARK    5  A    between atoms: C_12  and  O_13
REMARK    6  A    between atoms: C_15  and  C_16
REMARK    7  A    between atoms: C_15  and  C_17
REMARK                            x       y       z     vdW  Elec       q    Type
REMARK                         _______ _______ _______ _____ _____    ______ ____
ROOT
ATOM      1  N   UNL     1       2.756   4.858  17.999  0.00  0.00    +0.000 NA
ATOM      2  C   UNL     1       3.210   3.794  17.082  0.00  0.00    +0.000 C 
ATOM      3  C   UNL     1       2.963   2.327  17.441  0.00  0.00    +0.000 C 
ATOM      4  C   UNL     1       3.719   1.897  18.688  0.00  0.00    +0.000 C 
ATOM      5  C   UNL     1       2.983   2.171  19.998  0.00  0.00    +0.000 C 
ATOM      6  C   UNL     1       2.321   3.557  20.177  0.00  0.00    +0.000 C 
ATOM      7  C   UNL     1       2.352   3.880  21.695  0.00  0.00    +0.000 C 
ATOM      8  C   UNL     1       0.827   3.527  19.782  0.00  0.00    +0.000 C 
ATOM      9  C   UNL     1       3.082   4.681  19.425  0.00  0.00    +0.000 C 
ENDROOT
BRANCH   4  10
ATOM     10  O   UNL     1       3.980   0.492  18.617  0.00  0.00    +0.000 OA
ATOM     11  H   UNL     1       3.789   0.107  19.491  0.00  0.00    +0.000 HD
ENDBRANCH   4  10
BRANCH   1  12
ATOM     12  C   UNL     1       3.333   6.159  17.550  0.00  0.00    +0.000 C 
BRANCH  12  17
ATOM     13  C   UNL     1       6.977   6.655  17.376  0.00  0.00    +0.000 A 
ATOM     14  N   UNL     1       7.368   6.040  16.244  0.00  0.00    +0.000 NA
ATOM     15  C   UNL     1       6.401   5.442  15.527  0.00  0.00    +0.000 A 
ATOM     16  C   UNL     1       5.077   5.434  15.893  0.00  0.00    +0.000 A 
ATOM     17  C   UNL     1       4.768   6.090  17.067  0.00  0.00    +0.000 A 
ATOM     18  N   UNL     1       5.707   6.705  17.822  0.00  0.00    +0.000 NA
BRANCH  13  20
ATOM     19  C   UNL     1       8.173   8.746  17.968  0.00  0.00    +0.000 C 
ATOM     20  C   UNL     1       8.043   7.259  18.247  0.00  0.00    +0.000 C 
ENDBRANCH  13  20
ENDBRANCH  12  17
ENDBRANCH   1  12
TORSDOF 4
ENDMDL
MODEL 6
REMARK VINA RESULT:      -6.9      0.852      1.028
REMARK  Name = 
REMARK  7 active torsions:
REMARK  status: ('A' for Active; 'I' for Inactive)
REMARK    1  A    between atoms: C_1  and  C_2
REMARK    2  A    between atoms: C_2  and  C_3
REMARK    3  A    between atoms: C_7  and  C_8
REMARK    4  A    between atoms: C_8  and  N_9
REMARK    5  A    between atoms: C_12  and  O_13
REMARK    6  A    between atoms: C_15  and  C_16
REMARK    7  A    between atoms: C_15  and  C_17
REMARK                            x       y       z     vdW  Elec       q    Type
REMARK                         _______ _______ _______ _____ _____    ______ ____
ROOT
ATOM      1  N   UNL     1       4.338   3.936  18.860  0.00  0.00    +0.000 NA
ATOM      2  C   UNL     1       4.045   2.654  19.530  0.00  0.00    +0.000 C 
ATOM      3  C   UNL     1       2.649   2.401  20.104  0.00  0.00    +0.000 C 
ATOM      4  C   UNL     1       2.309   3.344  21.247  0.00  0.00    +0.000 C 
ATOM      5  C   UNL     1       1.707   4.677  20.807  0.00  0.00    +0.000 C 
ATOM      6  C   UNL     1       2.382   5.421  19.631  0.00  0.00    +0.000 C 
ATOM      7  C   UNL     1       2.159   6.938  19.866  0.00  0.00    +0.000 C 
ATOM      8  C   UNL     1       1.693   5.095  18.286  0.00  0.00    +0.000 C 
ATOM      9  C   UNL     1       3.911   5.159  19.561  0.00  0.00    +0.000 C 
ENDROOT
BRANCH   4  10
ATOM     10  O   UNL     1       1.371   2.705  22.119  0.00  0.00    +0.000 OA
ATOM     11  H   UNL     1       0.483   2.810  21.732  0.00  0.00    +0.000 HD
ENDBRANCH   4  10
BRANCH   1  12
ATOM     12  C   UNL     1       5.809   4.030  18.622  0.00  0.00    +0.000 C 
BRANCH  12  17
ATOM     13  C   UNL     1       6.117   4.469  14.979  0.00  0.00    +0.000 A 
ATOM     14  N   UNL     1       6.901   5.552  14.814  0.00  0.00    +0.000 NA
ATOM     15  C   UNL     1       7.330   6.153  15.938  0.00  0.00    +0.000 A 
ATOM     16  C   UNL     1       7.009   5.721  17.202  0.00  0.00    +0.000 A 
ATOM     17  C   UNL     1       6.204   4.602  17.275  0.00  0.00    +0.000 A 
ATOM     18  N   UNL     1       5.747   3.965  16.172  0.00  0.00    +0.000 NA
BRANCH  13  20
ATOM     19  C   UNL     1       6.591   3.786  12.642  0.00  0.00    +0.000 C 
ATOM     20  C   UNL     1       5.549   3.824  13.747  0.00  0.00    +0.000 C 
ENDBRANCH  13  20
ENDBRANCH  12  17
ENDBRANCH   1  12
TORSDOF 4
ENDMDL
MODEL 7
REMARK VINA RESULT:      -6.9      1.566      2.941
REMARK  Name = 
REMARK  7 active torsions:
REMARK  status: ('A' for Active; 'I' for Inactive)
REMARK    1  A    between atoms: C_1  and  C_2
REMARK    2  A    between atoms: C_2  and  C_3
REMARK    3  A    between atoms: C_7  and  C_8
REMARK    4  A    between atoms: C_8  and  N_9
REMARK    5  A    between atoms: C_12  and  O_13
REMARK    6  A    between atoms: C_15  and  C_16
REMARK    7  A    between atoms: C_15  and  C_17
REMARK                            x       y       z     vdW  Elec       q    Type
REMARK                         _______ _______ _______ _____ _____    ______ ____
ROOT
ATOM      1  N   UNL     1       4.041   3.914  19.012  0.00  0.00    +0.000 NA
ATOM      2  C   UNL     1       3.389   3.539  17.742  0.00  0.00    +0.000 C 
ATOM      3  C   UNL     1       1.864   3.429  17.677  0.00  0.00    +0.000 C 
ATOM      4  C   UNL     1       1.323   2.312  18.554  0.00  0.00    +0.000 C 
ATOM      5  C   UNL     1       1.067   2.717  20.005  0.00  0.00    +0.000 C 
ATOM      6  C   UNL     1       2.161   3.538  20.728  0.00  0.00    +0.000 C 
ATOM      7  C   UNL     1       2.081   3.169  22.233  0.00  0.00    +0.000 C 
ATOM      8  C   UNL     1       1.876   5.055  20.649  0.00  0.00    +0.000 C 
ATOM      9  C   UNL     1       3.589   3.203  20.220  0.00  0.00    +0.000 C 
ENDROOT
BRANCH   4  10
ATOM     10  O   UNL     1       0.087   1.842  18.006  0.00  0.00    +0.000 OA
ATOM     11  H   UNL     1      -0.012   2.227  17.117  0.00  0.00    +0.000 HD
ENDBRANCH   4  10
BRANCH   1  12
ATOM     12  C   UNL     1       5.514   3.706  18.877  0.00  0.00    +0.000 C 
BRANCH  12  17
ATOM     13  C   UNL     1       7.471   6.621  17.767  0.00  0.00    +0.000 A 
ATOM     14  N   UNL     1       7.485   6.552  16.423  0.00  0.00    +0.000 NA
ATOM     15  C   UNL     1       6.835   5.510  15.874  0.00  0.00    +0.000 A 
ATOM     16  C   UNL     1       6.184   4.548  16.606  0.00  0.00    +0.000 A 
ATOM     17  C   UNL     1       6.220   4.701  17.978  0.00  0.00    +0.000 A 
ATOM     18  N   UNL     1       6.861   5.731  18.575  0.00  0.00    +0.000 NA
BRANCH  13  20
ATOM     19  C   UNL     1       7.953   9.055  17.755  0.00  0.00    +0.000 C 
ATOM     20  C   UNL     1       8.259   7.722  18.418  0.00  0.00    +0.000 C 
ENDBRANCH  13  20
ENDBRANCH  12  17
ENDBRANCH   1  12
TORSDOF 4
ENDMDL
MODEL 8
REMARK VINA RESULT:      -6.8      1.810      2.421
REMARK  Name = 
REMARK  7 active torsions:
REMARK  status: ('A' for Active; 'I' for Inactive)
REMARK    1  A    between atoms: C_1  and  C_2
REMARK    2  A    between atoms: C_2  and  C_3
REMARK    3  A    between atoms: C_7  and  C_8
REMARK    4  A    between atoms: C_8  and  N_9
REMARK    5  A    between atoms: C_12  and  O_13
REMARK    6  A    between atoms: C_15  and  C_16
REMARK    7  A    between atoms: C_15  and  C_17
REMARK                            x       y       z     vdW  Elec       q    Type
REMARK                         _______ _______ _______ _____ _____    ______ ____
ROOT
ATOM      1  N   UNL     1       2.879   4.896  17.979  0.00  0.00    +0.000 NA
ATOM      2  C   UNL     1       3.326   3.823  17.070  0.00  0.00    +0.000 C 
ATOM      3  C   UNL     1       3.028   2.363  17.417  0.00  0.00    +0.000 C 
ATOM      4  C   UNL     1       3.740   1.908  18.681  0.00  0.00    +0.000 C 
ATOM      5  C   UNL     1       2.979   2.198  19.973  0.00  0.00    +0.000 C 
ATOM      6  C   UNL     1       2.352   3.602  20.141  0.00  0.00    +0.000 C 
ATOM      7  C   UNL     1       2.353   3.920  21.659  0.00  0.00    +0.000 C 
ATOM      8  C   UNL     1       0.868   3.615  19.707  0.00  0.00    +0.000 C 
ATOM      9  C   UNL     1       3.164   4.707  19.412  0.00  0.00    +0.000 C 
ENDROOT
BRANCH   4  10
ATOM     10  O   UNL     1       3.963   0.496  18.611  0.00  0.00    +0.000 OA
ATOM     11  H   UNL     1       4.442   0.308  17.784  0.00  0.00    +0.000 HD
ENDBRANCH   4  10
BRANCH   1  12
ATOM     12  C   UNL     1       3.504   6.183  17.550  0.00  0.00    +0.000 C 
BRANCH  12  17
ATOM     13  C   UNL     1       6.488   5.373  15.552  0.00  0.00    +0.000 A 
ATOM     14  N   UNL     1       7.534   5.816  16.275  0.00  0.00    +0.000 NA
ATOM     15  C   UNL     1       7.241   6.402  17.448  0.00  0.00    +0.000 A 
ATOM     16  C   UNL     1       5.961   6.563  17.920  0.00  0.00    +0.000 A 
ATOM     17  C   UNL     1       4.951   6.076  17.113  0.00  0.00    +0.000 A 
ATOM     18  N   UNL     1       5.198   5.479  15.925  0.00  0.00    +0.000 NA
BRANCH  13  20
ATOM     19  C   UNL     1       5.612   3.923  13.739  0.00  0.00    +0.000 C 
ATOM     20  C   UNL     1       6.773   4.790  14.196  0.00  0.00    +0.000 C 
ENDBRANCH  13  20
ENDBRANCH  12  17
ENDBRANCH   1  12
TORSDOF 4
ENDMDL
MODEL 9
REMARK VINA RESULT:      -6.8      1.305      2.592
REMARK  Name = 
REMARK  7 active torsions:
REMARK  status: ('A' for Active; 'I' for Inactive)
REMARK    1  A    between atoms: C_1  and  C_2
REMARK    2  A    between atoms: C_2  and  C_3
REMARK    3  A    between atoms: C_7  and  C_8
REMARK    4  A    between atoms: C_8  and  N_9
REMARK    5  A    between atoms: C_12  and  O_13
REMARK    6  A    between atoms: C_15  and  C_16
REMARK    7  A    between atoms: C_15  and  C_17
REMARK                            x       y       z     vdW  Elec       q    Type
REMARK                         _______ _______ _______ _____ _____    ______ ____
ROOT
ATOM      1  N   UNL     1       3.689   4.840  19.175  0.00  0.00    +0.000 NA
ATOM      2  C   UNL     1       2.365   5.344  19.589  0.00  0.00    +0.000 C 
ATOM      3  C   UNL     1       1.373   4.399  20.271  0.00  0.00    +0.000 C 
ATOM      4  C   UNL     1       0.917   3.275  19.355  0.00  0.00    +0.000 C 
ATOM      5  C   UNL     1       1.830   2.051  19.354  0.00  0.00    +0.000 C 
ATOM      6  C   UNL     1       3.356   2.289  19.256  0.00  0.00    +0.000 C 
ATOM      7  C   UNL     1       3.959   1.062  18.523  0.00  0.00    +0.000 C 
ATOM      8  C   UNL     1       4.016   2.314  20.653  0.00  0.00    +0.000 C 
ATOM      9  C   UNL     1       3.707   3.563  18.441  0.00  0.00    +0.000 C 
ENDROOT
BRANCH   4  10
ATOM     10  O   UNL     1      -0.390   2.847  19.752  0.00  0.00    +0.000 OA
ATOM     11  H   UNL     1      -0.788   2.366  19.005  0.00  0.00    +0.000 HD
ENDBRANCH   4  10
BRANCH   1  12
ATOM     12  C   UNL     1       4.353   5.872  18.325  0.00  0.00    +0.000 C 
BRANCH  12  17
ATOM     13  C   UNL     1       6.734   4.938  15.676  0.00  0.00    +0.000 A 
ATOM     14  N   UNL     1       7.854   4.558  16.319  0.00  0.00    +0.000 NA
ATOM     15  C   UNL     1       7.819   4.620  17.662  0.00  0.00    +0.000 A 
ATOM     16  C   UNL     1       6.725   5.043  18.376  0.00  0.00    +0.000 A 
ATOM     17  C   UNL     1       5.621   5.411  17.633  0.00  0.00    +0.000 A 
ATOM     18  N   UNL     1       5.609   5.366  16.281  0.00  0.00    +0.000 NA
BRANCH  13  20
ATOM     19  C   UNL     1       5.998   3.781  13.608  0.00  0.00    +0.000 C 
ATOM     20  C   UNL     1       6.766   4.964  14.174  0.00  0.00    +0.000 C 
ENDBRANCH  13  20
ENDBRANCH  12  17
ENDBRANCH   1  12
TORSDOF 4
ENDMDL
