MODEL 1
REMARK VINA RESULT:      -8.0      0.000      0.000
REMARK  Name = 
REMARK  12 active torsions:
REMARK  status: ('A' for Active; 'I' for Inactive)
REMARK    1  A    between atoms: C_2  and  C_3
REMARK    2  A    between atoms: C_2  and  C_15
REMARK    3  A    between atoms: C_3  and  C_4
REMARK    4  A    between atoms: C_4  and  C_5
REMARK    5  A    between atoms: C_16  and  O_17
REMARK    6  A    between atoms: C_22  and  O_23
REMARK    7  A    between atoms: O_23  and  C_24
REMARK    8  A    between atoms: C_26  and  C_27
REMARK    9  A    between atoms: C_27  and  O_28
REMARK   10  A    between atoms: C_29  and  O_30
REMARK   11  A    between atoms: C_31  and  O_32
REMARK   12  A    between atoms: C_33  and  O_34
REMARK                            x       y       z     vdW  Elec       q    Type
REMARK                         _______ _______ _______ _____ _____    ______ ____
ROOT
ATOM      1  C   UNL     1       0.151  12.277  20.648  0.00  0.00    +0.000 A 
ATOM      2  C   UNL     1       1.210  13.202  20.736  0.00  0.00    +0.000 A 
ATOM      3  C   UNL     1       1.129  14.448  20.121  0.00  0.00    +0.000 A 
ATOM      4  C   UNL     1      -0.041  14.804  19.470  0.00  0.00    +0.000 A 
ATOM      5 CL   UNL     1      -0.159  16.325  18.673  0.00  0.00    +0.000 Cl
ATOM      6  C   UNL     1      -1.125  13.931  19.435  0.00  0.00    +0.000 A 
ATOM      7  C   UNL     1      -1.035  12.643  19.986  0.00  0.00    +0.000 A 
ENDROOT
BRANCH   1   9
ATOM      8  O   UNL     1       0.396  10.815  22.454  0.00  0.00    +0.000 OA
ATOM      9  C   UNL     1       0.396  10.924  21.232  0.00  0.00    +0.000 C 
BRANCH   9  10
ATOM     10  C   UNL     1       0.724   9.749  20.332  0.00  0.00    +0.000 C 
BRANCH  10  11
ATOM     11  C   UNL     1       1.592   8.682  21.003  0.00  0.00    +0.000 C 
BRANCH  11  12
ATOM     12  C   UNL     1       1.804   7.430  20.190  0.00  0.00    +0.000 A 
ATOM     13  C   UNL     1       2.372   7.502  18.907  0.00  0.00    +0.000 A 
ATOM     14  C   UNL     1       2.549   6.347  18.147  0.00  0.00    +0.000 A 
ATOM     15  C   UNL     1       2.162   5.094  18.643  0.00  0.00    +0.000 A 
ATOM     16  C   UNL     1       2.334   3.922  17.889  0.00  0.00    +0.000 A 
ATOM     17  C   UNL     1       1.941   2.683  18.399  0.00  0.00    +0.000 A 
ATOM     18  C   UNL     1       1.371   2.602  19.666  0.00  0.00    +0.000 A 
ATOM     19  C   UNL     1       1.193   3.758  20.427  0.00  0.00    +0.000 A 
ATOM     20  C   UNL     1       1.584   5.011  19.929  0.00  0.00    +0.000 A 
ATOM     21  C   UNL     1       1.411   6.181  20.684  0.00  0.00    +0.000 A 
ENDBRANCH  11  12
ENDBRANCH  10  11
ENDBRANCH   9  10
ENDBRANCH   1   9
BRANCH   2  22
ATOM     22  O   UNL     1       2.390  12.941  21.383  0.00  0.00    +0.000 OA
ATOM     23  H   UNL     1       2.629  11.998  21.226  0.00  0.00    +0.000 HD
ENDBRANCH   2  22
BRANCH   7  24
ATOM     24  O   UNL     1      -2.074  11.743  19.900  0.00  0.00    +0.000 OA
BRANCH  24  25
ATOM     25  C   UNL     1      -3.147  12.101  19.004  0.00  0.00    +0.000 C 
ATOM     26  O   UNL     1      -4.392  12.016  19.697  0.00  0.00    +0.000 OA
ATOM     27  C   UNL     1      -5.515  12.463  18.925  0.00  0.00    +0.000 C 
ATOM     28  C   UNL     1      -5.677  11.629  17.645  0.00  0.00    +0.000 C 
ATOM     29  C   UNL     1      -4.348  11.566  16.876  0.00  0.00    +0.000 C 
ATOM     30  C   UNL     1      -3.171  11.170  17.779  0.00  0.00    +0.000 C 
BRANCH  28  31
ATOM     31  O   UNL     1      -6.716  12.157  16.816  0.00  0.00    +0.000 OA
ATOM     32  H   UNL     1      -6.331  12.717  16.121  0.00  0.00    +0.000 HD
ENDBRANCH  28  31
BRANCH  29  33
ATOM     33  O   UNL     1      -4.416  10.673  15.756  0.00  0.00    +0.000 OA
ATOM     34  H   UNL     1      -3.817  11.000  15.061  0.00  0.00    +0.000 HD
ENDBRANCH  29  33
BRANCH  30  35
ATOM     35  O   UNL     1      -1.932  11.283  17.061  0.00  0.00    +0.000 OA
ATOM     36  H   UNL     1      -1.220  10.910  17.614  0.00  0.00    +0.000 HD
ENDBRANCH  30  35
BRANCH  27  37
ATOM     37  C   UNL     1      -6.732  12.328  19.851  0.00  0.00    +0.000 C 
BRANCH  37  38
ATOM     38  O   UNL     1      -7.482  11.166  19.493  0.00  0.00    +0.000 OA
ATOM     39  H   UNL     1      -7.529  11.171  18.517  0.00  0.00    +0.000 HD
ENDBRANCH  37  38
ENDBRANCH  27  37
ENDBRANCH  24  25
ENDBRANCH   7  24
TORSDOF 12
ENDMDL
MODEL 2
REMARK VINA RESULT:      -8.0      2.846      3.859
REMARK  Name = 
REMARK  12 active torsions:
REMARK  status: ('A' for Active; 'I' for Inactive)
REMARK    1  A    between atoms: C_2  and  C_3
REMARK    2  A    between atoms: C_2  and  C_15
REMARK    3  A    between atoms: C_3  and  C_4
REMARK    4  A    between atoms: C_4  and  C_5
REMARK    5  A    between atoms: C_16  and  O_17
REMARK    6  A    between atoms: C_22  and  O_23
REMARK    7  A    between atoms: O_23  and  C_24
REMARK    8  A    between atoms: C_26  and  C_27
REMARK    9  A    between atoms: C_27  and  O_28
REMARK   10  A    between atoms: C_29  and  O_30
REMARK   11  A    between atoms: C_31  and  O_32
REMARK   12  A    between atoms: C_33  and  O_34
REMARK                            x       y       z     vdW  Elec       q    Type
REMARK                         _______ _______ _______ _____ _____    ______ ____
ROOT
ATOM      1  C   UNL     1       1.034  11.205  19.670  0.00  0.00    +0.000 A 
ATOM      2  C   UNL     1       1.743  11.307  18.456  0.00  0.00    +0.000 A 
ATOM      3  C   UNL     1       2.495  12.438  18.156  0.00  0.00    +0.000 A 
ATOM      4  C   UNL     1       2.598  13.450  19.097  0.00  0.00    +0.000 A 
ATOM      5 CL   UNL     1       3.494  14.875  18.741  0.00  0.00    +0.000 Cl
ATOM      6  C   UNL     1       1.963  13.335  20.331  0.00  0.00    +0.000 A 
ATOM      7  C   UNL     1       1.142  12.235  20.623  0.00  0.00    +0.000 A 
ENDROOT
BRANCH   1   9
ATOM      8  O   UNL     1      -0.799   9.886  19.071  0.00  0.00    +0.000 OA
ATOM      9  C   UNL     1       0.156  10.008  19.832  0.00  0.00    +0.000 C 
BRANCH   9  10
ATOM     10  C   UNL     1       0.397   9.029  20.963  0.00  0.00    +0.000 C 
BRANCH  10  11
ATOM     11  C   UNL     1       1.794   8.406  20.953  0.00  0.00    +0.000 C 
BRANCH  11  12
ATOM     12  C   UNL     1       1.931   7.161  20.111  0.00  0.00    +0.000 A 
ATOM     13  C   UNL     1       2.408   7.242  18.793  0.00  0.00    +0.000 A 
ATOM     14  C   UNL     1       2.515   6.095  18.008  0.00  0.00    +0.000 A 
ATOM     15  C   UNL     1       2.145   4.841  18.515  0.00  0.00    +0.000 A 
ATOM     16  C   UNL     1       2.247   3.677  17.737  0.00  0.00    +0.000 A 
ATOM     17  C   UNL     1       1.873   2.437  18.258  0.00  0.00    +0.000 A 
ATOM     18  C   UNL     1       1.391   2.347  19.560  0.00  0.00    +0.000 A 
ATOM     19  C   UNL     1       1.284   3.495  20.346  0.00  0.00    +0.000 A 
ATOM     20  C   UNL     1       1.658   4.750  19.838  0.00  0.00    +0.000 A 
ATOM     21  C   UNL     1       1.555   5.911  20.617  0.00  0.00    +0.000 A 
ENDBRANCH  11  12
ENDBRANCH  10  11
ENDBRANCH   9  10
ENDBRANCH   1   9
BRANCH   2  22
ATOM     22  O   UNL     1       1.718  10.342  17.483  0.00  0.00    +0.000 OA
ATOM     23  H   UNL     1       2.132   9.525  17.845  0.00  0.00    +0.000 HD
ENDBRANCH   2  22
BRANCH   7  24
ATOM     24  O   UNL     1       0.453  12.139  21.811  0.00  0.00    +0.000 OA
BRANCH  24  25
ATOM     25  C   UNL     1      -0.965  12.397  21.742  0.00  0.00    +0.000 C 
ATOM     26  O   UNL     1      -1.183  13.782  21.473  0.00  0.00    +0.000 OA
ATOM     27  C   UNL     1      -2.561  14.122  21.272  0.00  0.00    +0.000 C 
ATOM     28  C   UNL     1      -3.404  13.786  22.512  0.00  0.00    +0.000 C 
ATOM     29  C   UNL     1      -3.155  12.335  22.950  0.00  0.00    +0.000 C 
ATOM     30  C   UNL     1      -1.658  12.009  23.060  0.00  0.00    +0.000 C 
BRANCH  28  31
ATOM     31  O   UNL     1      -4.795  14.006  22.262  0.00  0.00    +0.000 OA
ATOM     32  H   UNL     1      -5.026  13.681  21.375  0.00  0.00    +0.000 HD
ENDBRANCH  28  31
BRANCH  29  33
ATOM     33  O   UNL     1      -3.804  12.029  24.192  0.00  0.00    +0.000 OA
ATOM     34  H   UNL     1      -3.154  11.618  24.789  0.00  0.00    +0.000 HD
ENDBRANCH  29  33
BRANCH  30  35
ATOM     35  O   UNL     1      -1.470  10.608  23.312  0.00  0.00    +0.000 OA
ATOM     36  H   UNL     1      -0.516  10.409  23.255  0.00  0.00    +0.000 HD
ENDBRANCH  30  35
BRANCH  27  37
ATOM     37  C   UNL     1      -2.574  15.626  20.965  0.00  0.00    +0.000 C 
BRANCH  37  38
ATOM     38  O   UNL     1      -1.845  16.329  21.972  0.00  0.00    +0.000 OA
ATOM     39  H   UNL     1      -2.181  17.246  21.950  0.00  0.00    +0.000 HD
ENDBRANCH  37  38
ENDBRANCH  27  37
ENDBRANCH  24  25
ENDBRANCH   7  24
TORSDOF 12
ENDMDL
MODEL 3
REMARK VINA RESULT:      -7.8      2.872      4.228
REMARK  Name = 
REMARK  12 active torsions:
REMARK  status: ('A' for Active; 'I' for Inactive)
REMARK    1  A    between atoms: C_2  and  C_3
REMARK    2  A    between atoms: C_2  and  C_15
REMARK    3  A    between atoms: C_3  and  C_4
REMARK    4  A    between atoms: C_4  and  C_5
REMARK    5  A    between atoms: C_16  and  O_17
REMARK    6  A    between atoms: C_22  and  O_23
REMARK    7  A    between atoms: O_23  and  C_24
REMARK    8  A    between atoms: C_26  and  C_27
REMARK    9  A    between atoms: C_27  and  O_28
REMARK   10  A    between atoms: C_29  and  O_30
REMARK   11  A    between atoms: C_31  and  O_32
REMARK   12  A    between atoms: C_33  and  O_34
REMARK                            x       y       z     vdW  Elec       q    Type
REMARK                         _______ _______ _______ _____ _____    ______ ____
ROOT
ATOM      1  C   UNL     1      -1.071  11.053  19.445  0.00  0.00    +0.000 A 
ATOM      2  C   UNL     1      -1.176  10.496  18.156  0.00  0.00    +0.000 A 
ATOM      3  C   UNL     1      -2.316  10.685  17.381  0.00  0.00    +0.000 A 
ATOM      4  C   UNL     1      -3.335  11.490  17.866  0.00  0.00    +0.000 A 
ATOM      5 CL   UNL     1      -4.772  11.716  16.946  0.00  0.00    +0.000 Cl
ATOM      6  C   UNL     1      -3.218  12.107  19.108  0.00  0.00    +0.000 A 
ATOM      7  C   UNL     1      -2.108  11.870  19.933  0.00  0.00    +0.000 A 
ENDROOT
BRANCH   1   9
ATOM      8  O   UNL     1       1.161  11.338  20.075  0.00  0.00    +0.000 OA
ATOM      9  C   UNL     1       0.138  10.679  20.238  0.00  0.00    +0.000 C 
BRANCH   9  10
ATOM     10  C   UNL     1       0.115   9.465  21.144  0.00  0.00    +0.000 C 
BRANCH  10  11
ATOM     11  C   UNL     1       1.478   8.786  21.300  0.00  0.00    +0.000 C 
BRANCH  11  12
ATOM     12  C   UNL     1       1.701   7.592  20.405  0.00  0.00    +0.000 A 
ATOM     13  C   UNL     1       2.248   7.756  19.123  0.00  0.00    +0.000 A 
ATOM     14  C   UNL     1       2.435   6.655  18.288  0.00  0.00    +0.000 A 
ATOM     15  C   UNL     1       2.078   5.366  18.708  0.00  0.00    +0.000 A 
ATOM     16  C   UNL     1       2.260   4.248  17.879  0.00  0.00    +0.000 A 
ATOM     17  C   UNL     1       1.898   2.972  18.314  0.00  0.00    +0.000 A 
ATOM     18  C   UNL     1       1.348   2.799  19.581  0.00  0.00    +0.000 A 
ATOM     19  C   UNL     1       1.160   3.901  20.417  0.00  0.00    +0.000 A 
ATOM     20  C   UNL     1       1.521   5.191  19.995  0.00  0.00    +0.000 A 
ATOM     21  C   UNL     1       1.338   6.306  20.825  0.00  0.00    +0.000 A 
ENDBRANCH  11  12
ENDBRANCH  10  11
ENDBRANCH   9  10
ENDBRANCH   1   9
BRANCH   2  22
ATOM     22  O   UNL     1      -0.204   9.711  17.590  0.00  0.00    +0.000 OA
ATOM     23  H   UNL     1      -0.508   9.440  16.693  0.00  0.00    +0.000 HD
ENDBRANCH   2  22
BRANCH   7  24
ATOM     24  O   UNL     1      -2.009  12.418  21.192  0.00  0.00    +0.000 OA
BRANCH  24  25
ATOM     25  C   UNL     1      -3.256  12.657  21.877  0.00  0.00    +0.000 C 
ATOM     26  O   UNL     1      -3.690  13.993  21.623  0.00  0.00    +0.000 OA
ATOM     27  C   UNL     1      -4.982  14.295  22.168  0.00  0.00    +0.000 C 
ATOM     28  C   UNL     1      -4.996  14.120  23.695  0.00  0.00    +0.000 C 
ATOM     29  C   UNL     1      -4.439  12.741  24.080  0.00  0.00    +0.000 C 
ATOM     30  C   UNL     1      -3.098  12.442  23.393  0.00  0.00    +0.000 C 
BRANCH  28  31
ATOM     31  O   UNL     1      -6.315  14.297  24.219  0.00  0.00    +0.000 OA
ATOM     32  H   UNL     1      -6.973  14.074  23.538  0.00  0.00    +0.000 HD
ENDBRANCH  28  31
BRANCH  29  33
ATOM     33  O   UNL     1      -4.292  12.598  25.500  0.00  0.00    +0.000 OA
ATOM     34  H   UNL     1      -5.016  12.036  25.831  0.00  0.00    +0.000 HD
ENDBRANCH  29  33
BRANCH  30  35
ATOM     35  O   UNL     1      -2.697  11.087  23.651  0.00  0.00    +0.000 OA
ATOM     36  H   UNL     1      -2.880  10.885  24.589  0.00  0.00    +0.000 HD
ENDBRANCH  30  35
BRANCH  27  37
ATOM     37  C   UNL     1      -5.273  15.744  21.758  0.00  0.00    +0.000 C 
BRANCH  37  38
ATOM     38  O   UNL     1      -4.170  16.578  22.116  0.00  0.00    +0.000 OA
ATOM     39  H   UNL     1      -4.309  16.814  23.053  0.00  0.00    +0.000 HD
ENDBRANCH  37  38
ENDBRANCH  27  37
ENDBRANCH  24  25
ENDBRANCH   7  24
TORSDOF 12
ENDMDL
MODEL 4
REMARK VINA RESULT:      -7.8      0.926      1.142
REMARK  Name = 
REMARK  12 active torsions:
REMARK  status: ('A' for Active; 'I' for Inactive)
REMARK    1  A    between atoms: C_2  and  C_3
REMARK    2  A    between atoms: C_2  and  C_15
REMARK    3  A    between atoms: C_3  and  C_4
REMARK    4  A    between atoms: C_4  and  C_5
REMARK    5  A    between atoms: C_16  and  O_17
REMARK    6  A    between atoms: C_22  and  O_23
REMARK    7  A    between atoms: O_23  and  C_24
REMARK    8  A    between atoms: C_26  and  C_27
REMARK    9  A    between atoms: C_27  and  O_28
REMARK   10  A    between atoms: C_29  and  O_30
REMARK   11  A    between atoms: C_31  and  O_32
REMARK   12  A    between atoms: C_33  and  O_34
REMARK                            x       y       z     vdW  Elec       q    Type
REMARK                         _______ _______ _______ _____ _____    ______ ____
ROOT
ATOM      1  C   UNL     1       0.395  12.256  20.439  0.00  0.00    +0.000 A 
ATOM      2  C   UNL     1       1.457  13.164  20.615  0.00  0.00    +0.000 A 
ATOM      3  C   UNL     1       1.449  14.409  19.993  0.00  0.00    +0.000 A 
ATOM      4  C   UNL     1       0.345  14.781  19.242  0.00  0.00    +0.000 A 
ATOM      5 CL   UNL     1       0.320  16.299  18.434  0.00  0.00    +0.000 Cl
ATOM      6  C   UNL     1      -0.745  13.924  19.116  0.00  0.00    +0.000 A 
ATOM      7  C   UNL     1      -0.724  12.637  19.675  0.00  0.00    +0.000 A 
ENDROOT
BRANCH   1   9
ATOM      8  O   UNL     1       0.492  10.802  22.266  0.00  0.00    +0.000 OA
ATOM      9  C   UNL     1       0.568  10.901  21.045  0.00  0.00    +0.000 C 
BRANCH   9  10
ATOM     10  C   UNL     1       0.915   9.711  20.175  0.00  0.00    +0.000 C 
BRANCH  10  11
ATOM     11  C   UNL     1       1.591   8.567  20.935  0.00  0.00    +0.000 C 
BRANCH  11  12
ATOM     12  C   UNL     1       1.813   7.311  20.130  0.00  0.00    +0.000 A 
ATOM     13  C   UNL     1       2.363   7.379  18.840  0.00  0.00    +0.000 A 
ATOM     14  C   UNL     1       2.548   6.220  18.088  0.00  0.00    +0.000 A 
ATOM     15  C   UNL     1       2.187   4.966  18.600  0.00  0.00    +0.000 A 
ATOM     16  C   UNL     1       2.368   3.790  17.855  0.00  0.00    +0.000 A 
ATOM     17  C   UNL     1       2.001   2.550  18.382  0.00  0.00    +0.000 A 
ATOM     18  C   UNL     1       1.448   2.472  19.656  0.00  0.00    +0.000 A 
ATOM     19  C   UNL     1       1.262   3.632  20.409  0.00  0.00    +0.000 A 
ATOM     20  C   UNL     1       1.627   4.887  19.895  0.00  0.00    +0.000 A 
ATOM     21  C   UNL     1       1.446   6.060  20.641  0.00  0.00    +0.000 A 
ENDBRANCH  11  12
ENDBRANCH  10  11
ENDBRANCH   9  10
ENDBRANCH   1   9
BRANCH   2  22
ATOM     22  O   UNL     1       2.573  12.888  21.363  0.00  0.00    +0.000 OA
ATOM     23  H   UNL     1       2.941  12.025  21.063  0.00  0.00    +0.000 HD
ENDBRANCH   2  22
BRANCH   7  24
ATOM     24  O   UNL     1      -1.765  11.753  19.503  0.00  0.00    +0.000 OA
BRANCH  24  25
ATOM     25  C   UNL     1      -3.076  12.340  19.365  0.00  0.00    +0.000 C 
ATOM     26  O   UNL     1      -3.765  12.263  20.612  0.00  0.00    +0.000 OA
ATOM     27  C   UNL     1      -5.038  12.923  20.612  0.00  0.00    +0.000 C 
ATOM     28  C   UNL     1      -5.980  12.315  19.562  0.00  0.00    +0.000 C 
ATOM     29  C   UNL     1      -5.285  12.252  18.193  0.00  0.00    +0.000 C 
ATOM     30  C   UNL     1      -3.889  11.616  18.277  0.00  0.00    +0.000 C 
BRANCH  28  31
ATOM     31  O   UNL     1      -7.199  13.057  19.475  0.00  0.00    +0.000 OA
ATOM     32  H   UNL     1      -7.385  13.486  20.327  0.00  0.00    +0.000 HD
ENDBRANCH  28  31
BRANCH  29  33
ATOM     33  O   UNL     1      -6.073  11.551  17.221  0.00  0.00    +0.000 OA
ATOM     34  H   UNL     1      -7.008  11.591  17.492  0.00  0.00    +0.000 HD
ENDBRANCH  29  33
BRANCH  30  35
ATOM     35  O   UNL     1      -3.214  11.725  17.014  0.00  0.00    +0.000 OA
ATOM     36  H   UNL     1      -2.323  12.091  17.171  0.00  0.00    +0.000 HD
ENDBRANCH  30  35
BRANCH  27  37
ATOM     37  C   UNL     1      -5.588  12.758  22.035  0.00  0.00    +0.000 C 
BRANCH  37  38
ATOM     38  O   UNL     1      -6.675  11.831  22.026  0.00  0.00    +0.000 OA
ATOM     39  H   UNL     1      -7.342  12.198  22.639  0.00  0.00    +0.000 HD
ENDBRANCH  37  38
ENDBRANCH  27  37
ENDBRANCH  24  25
ENDBRANCH   7  24
TORSDOF 12
ENDMDL
MODEL 5
REMARK VINA RESULT:      -7.8      3.083      4.669
REMARK  Name = 
REMARK  12 active torsions:
REMARK  status: ('A' for Active; 'I' for Inactive)
REMARK    1  A    between atoms: C_2  and  C_3
REMARK    2  A    between atoms: C_2  and  C_15
REMARK    3  A    between atoms: C_3  and  C_4
REMARK    4  A    between atoms: C_4  and  C_5
REMARK    5  A    between atoms: C_16  and  O_17
REMARK    6  A    between atoms: C_22  and  O_23
REMARK    7  A    between atoms: O_23  and  C_24
REMARK    8  A    between atoms: C_26  and  C_27
REMARK    9  A    between atoms: C_27  and  O_28
REMARK   10  A    between atoms: C_29  and  O_30
REMARK   11  A    between atoms: C_31  and  O_32
REMARK   12  A    between atoms: C_33  and  O_34
REMARK                            x       y       z     vdW  Elec       q    Type
REMARK                         _______ _______ _______ _____ _____    ______ ____
ROOT
ATOM      1  C   UNL     1      -0.475  11.448  21.412  0.00  0.00    +0.000 A 
ATOM      2  C   UNL     1      -1.082  11.130  22.642  0.00  0.00    +0.000 A 
ATOM      3  C   UNL     1      -2.212  11.812  23.085  0.00  0.00    +0.000 A 
ATOM      4  C   UNL     1      -2.781  12.775  22.267  0.00  0.00    +0.000 A 
ATOM      5 CL   UNL     1      -4.158  13.659  22.800  0.00  0.00    +0.000 Cl
ATOM      6  C   UNL     1      -2.236  13.053  21.016  0.00  0.00    +0.000 A 
ATOM      7  C   UNL     1      -1.057  12.426  20.585  0.00  0.00    +0.000 A 
ENDROOT
BRANCH   1   9
ATOM      8  O   UNL     1       1.856  11.285  21.426  0.00  0.00    +0.000 OA
ATOM      9  C   UNL     1       0.804  10.744  21.097  0.00  0.00    +0.000 C 
BRANCH   9  10
ATOM     10  C   UNL     1       0.793   9.446  20.315  0.00  0.00    +0.000 C 
BRANCH  10  11
ATOM     11  C   UNL     1       1.491   8.288  21.032  0.00  0.00    +0.000 C 
BRANCH  11  12
ATOM     12  C   UNL     1       1.788   7.089  20.165  0.00  0.00    +0.000 A 
ATOM     13  C   UNL     1       2.375   7.253  18.900  0.00  0.00    +0.000 A 
ATOM     14  C   UNL     1       2.630   6.147  18.091  0.00  0.00    +0.000 A 
ATOM     15  C   UNL     1       2.304   4.853  18.520  0.00  0.00    +0.000 A 
ATOM     16  C   UNL     1       2.555   3.729  17.717  0.00  0.00    +0.000 A 
ATOM     17  C   UNL     1       2.222   2.447  18.160  0.00  0.00    +0.000 A 
ATOM     18  C   UNL     1       1.633   2.275  19.409  0.00  0.00    +0.000 A 
ATOM     19  C   UNL     1       1.378   3.382  20.219  0.00  0.00    +0.000 A 
ATOM     20  C   UNL     1       1.708   4.677  19.789  0.00  0.00    +0.000 A 
ATOM     21  C   UNL     1       1.456   5.798  20.593  0.00  0.00    +0.000 A 
ENDBRANCH  11  12
ENDBRANCH  10  11
ENDBRANCH   9  10
ENDBRANCH   1   9
BRANCH   2  22
ATOM     22  O   UNL     1      -0.601  10.173  23.499  0.00  0.00    +0.000 OA
ATOM     23  H   UNL     1      -1.095   9.336  23.339  0.00  0.00    +0.000 HD
ENDBRANCH   2  22
BRANCH   7  24
ATOM     24  O   UNL     1      -0.468  12.738  19.380  0.00  0.00    +0.000 OA
BRANCH  24  25
ATOM     25  C   UNL     1       0.405  13.887  19.383  0.00  0.00    +0.000 C 
ATOM     26  O   UNL     1      -0.341  15.052  19.029  0.00  0.00    +0.000 OA
ATOM     27  C   UNL     1       0.413  16.269  19.114  0.00  0.00    +0.000 C 
ATOM     28  C   UNL     1       1.630  16.236  18.177  0.00  0.00    +0.000 C 
ATOM     29  C   UNL     1       2.445  14.954  18.405  0.00  0.00    +0.000 C 
ATOM     30  C   UNL     1       1.567  13.695  18.392  0.00  0.00    +0.000 C 
BRANCH  28  31
ATOM     31  O   UNL     1       2.448  17.395  18.358  0.00  0.00    +0.000 OA
ATOM     32  H   UNL     1       2.482  17.630  19.301  0.00  0.00    +0.000 HD
ENDBRANCH  28  31
BRANCH  29  33
ATOM     33  O   UNL     1       3.502  14.812  17.446  0.00  0.00    +0.000 OA
ATOM     34  H   UNL     1       3.148  15.013  16.561  0.00  0.00    +0.000 HD
ENDBRANCH  29  33
BRANCH  30  35
ATOM     35  O   UNL     1       2.340  12.544  18.769  0.00  0.00    +0.000 OA
ATOM     36  H   UNL     1       2.091  11.802  18.186  0.00  0.00    +0.000 HD
ENDBRANCH  30  35
BRANCH  27  37
ATOM     37  C   UNL     1      -0.568  17.388  18.736  0.00  0.00    +0.000 C 
BRANCH  37  38
ATOM     38  O   UNL     1      -1.907  16.961  18.991  0.00  0.00    +0.000 OA
ATOM     39  H   UNL     1      -2.244  17.551  19.693  0.00  0.00    +0.000 HD
ENDBRANCH  37  38
ENDBRANCH  27  37
ENDBRANCH  24  25
ENDBRANCH   7  24
TORSDOF 12
ENDMDL
MODEL 6
REMARK VINA RESULT:      -7.7      0.969      1.137
REMARK  Name = 
REMARK  12 active torsions:
REMARK  status: ('A' for Active; 'I' for Inactive)
REMARK    1  A    between atoms: C_2  and  C_3
REMARK    2  A    between atoms: C_2  and  C_15
REMARK    3  A    between atoms: C_3  and  C_4
REMARK    4  A    between atoms: C_4  and  C_5
REMARK    5  A    between atoms: C_16  and  O_17
REMARK    6  A    between atoms: C_22  and  O_23
REMARK    7  A    between atoms: O_23  and  C_24
REMARK    8  A    between atoms: C_26  and  C_27
REMARK    9  A    between atoms: C_27  and  O_28
REMARK   10  A    between atoms: C_29  and  O_30
REMARK   11  A    between atoms: C_31  and  O_32
REMARK   12  A    between atoms: C_33  and  O_34
REMARK                            x       y       z     vdW  Elec       q    Type
REMARK                         _______ _______ _______ _____ _____    ______ ____
ROOT
ATOM      1  C   UNL     1       0.338  12.174  20.372  0.00  0.00    +0.000 A 
ATOM      2  C   UNL     1       1.329  13.159  20.548  0.00  0.00    +0.000 A 
ATOM      3  C   UNL     1       1.199  14.420  19.971  0.00  0.00    +0.000 A 
ATOM      4  C   UNL     1       0.045  14.725  19.269  0.00  0.00    +0.000 A 
ATOM      5 CL   UNL     1      -0.130  16.262  18.517  0.00  0.00    +0.000 Cl
ATOM      6  C   UNL     1      -0.977  13.786  19.146  0.00  0.00    +0.000 A 
ATOM      7  C   UNL     1      -0.834  12.488  19.659  0.00  0.00    +0.000 A 
ENDROOT
BRANCH   1   9
ATOM      8  O   UNL     1       0.905  10.729  22.119  0.00  0.00    +0.000 OA
ATOM      9  C   UNL     1       0.639  10.819  20.924  0.00  0.00    +0.000 C 
BRANCH   9  10
ATOM     10  C   UNL     1       0.701   9.614  20.007  0.00  0.00    +0.000 C 
BRANCH  10  11
ATOM     11  C   UNL     1       1.326   8.377  20.655  0.00  0.00    +0.000 C 
BRANCH  11  12
ATOM     12  C   UNL     1       2.092   7.482  19.712  0.00  0.00    +0.000 A 
ATOM     13  C   UNL     1       2.621   7.994  18.516  0.00  0.00    +0.000 A 
ATOM     14  C   UNL     1       3.311   7.163  17.635  0.00  0.00    +0.000 A 
ATOM     15  C   UNL     1       3.486   5.802  17.920  0.00  0.00    +0.000 A 
ATOM     16  C   UNL     1       4.179   4.953  17.042  0.00  0.00    +0.000 A 
ATOM     17  C   UNL     1       4.343   3.599  17.343  0.00  0.00    +0.000 A 
ATOM     18  C   UNL     1       3.815   3.079  18.521  0.00  0.00    +0.000 A 
ATOM     19  C   UNL     1       3.125   3.911  19.403  0.00  0.00    +0.000 A 
ATOM     20  C   UNL     1       2.952   5.275  19.117  0.00  0.00    +0.000 A 
ATOM     21  C   UNL     1       2.261   6.122  19.996  0.00  0.00    +0.000 A 
ENDBRANCH  11  12
ENDBRANCH  10  11
ENDBRANCH   9  10
ENDBRANCH   1   9
BRANCH   2  22
ATOM     22  O   UNL     1       2.488  12.950  21.249  0.00  0.00    +0.000 OA
ATOM     23  H   UNL     1       3.248  13.053  20.631  0.00  0.00    +0.000 HD
ENDBRANCH   2  22
BRANCH   7  24
ATOM     24  O   UNL     1      -1.806  11.528  19.487  0.00  0.00    +0.000 OA
BRANCH  24  25
ATOM     25  C   UNL     1      -2.989  11.948  18.777  0.00  0.00    +0.000 C 
ATOM     26  O   UNL     1      -4.137  11.738  19.600  0.00  0.00    +0.000 OA
ATOM     27  C   UNL     1      -5.356  12.230  19.029  0.00  0.00    +0.000 C 
ATOM     28  C   UNL     1      -5.658  11.545  17.687  0.00  0.00    +0.000 C 
ATOM     29  C   UNL     1      -4.434  11.621  16.761  0.00  0.00    +0.000 C 
ATOM     30  C   UNL     1      -3.145  11.166  17.461  0.00  0.00    +0.000 C 
BRANCH  28  31
ATOM     31  O   UNL     1      -6.803  12.128  17.059  0.00  0.00    +0.000 OA
ATOM     32  H   UNL     1      -6.580  13.013  16.723  0.00  0.00    +0.000 HD
ENDBRANCH  28  31
BRANCH  29  33
ATOM     33  O   UNL     1      -4.621  10.862  15.559  0.00  0.00    +0.000 OA
ATOM     34  H   UNL     1      -4.250   9.971  15.694  0.00  0.00    +0.000 HD
ENDBRANCH  29  33
BRANCH  30  35
ATOM     35  O   UNL     1      -2.008  11.406  16.617  0.00  0.00    +0.000 OA
ATOM     36  H   UNL     1      -1.329  11.873  17.140  0.00  0.00    +0.000 HD
ENDBRANCH  30  35
BRANCH  27  37
ATOM     37  C   UNL     1      -6.445  11.944  20.072  0.00  0.00    +0.000 C 
BRANCH  37  38
ATOM     38  O   UNL     1      -5.887  12.019  21.384  0.00  0.00    +0.000 OA
ATOM     39  H   UNL     1      -5.191  12.703  21.338  0.00  0.00    +0.000 HD
ENDBRANCH  37  38
ENDBRANCH  27  37
ENDBRANCH  24  25
ENDBRANCH   7  24
TORSDOF 12
ENDMDL
MODEL 7
REMARK VINA RESULT:      -7.7      2.890      4.418
REMARK  Name = 
REMARK  12 active torsions:
REMARK  status: ('A' for Active; 'I' for Inactive)
REMARK    1  A    between atoms: C_2  and  C_3
REMARK    2  A    between atoms: C_2  and  C_15
REMARK    3  A    between atoms: C_3  and  C_4
REMARK    4  A    between atoms: C_4  and  C_5
REMARK    5  A    between atoms: C_16  and  O_17
REMARK    6  A    between atoms: C_22  and  O_23
REMARK    7  A    between atoms: O_23  and  C_24
REMARK    8  A    between atoms: C_26  and  C_27
REMARK    9  A    between atoms: C_27  and  O_28
REMARK   10  A    between atoms: C_29  and  O_30
REMARK   11  A    between atoms: C_31  and  O_32
REMARK   12  A    between atoms: C_33  and  O_34
REMARK                            x       y       z     vdW  Elec       q    Type
REMARK                         _______ _______ _______ _____ _____    ______ ____
ROOT
ATOM      1  C   UNL     1       0.553  11.549  20.187  0.00  0.00    +0.000 A 
ATOM      2  C   UNL     1       1.293  11.814  19.018  0.00  0.00    +0.000 A 
ATOM      3  C   UNL     1       1.912  13.046  18.823  0.00  0.00    +0.000 A 
ATOM      4  C   UNL     1       1.850  13.998  19.828  0.00  0.00    +0.000 A 
ATOM      5 CL   UNL     1       2.576  15.542  19.603  0.00  0.00    +0.000 Cl
ATOM      6  C   UNL     1       1.183  13.727  21.020  0.00  0.00    +0.000 A 
ATOM      7  C   UNL     1       0.493  12.519  21.204  0.00  0.00    +0.000 A 
ENDROOT
BRANCH   1   9
ATOM      8  O   UNL     1      -1.124  10.088  19.469  0.00  0.00    +0.000 OA
ATOM      9  C   UNL     1      -0.176  10.246  20.234  0.00  0.00    +0.000 C 
BRANCH   9  10
ATOM     10  C   UNL     1       0.196   9.195  21.260  0.00  0.00    +0.000 C 
BRANCH  10  11
ATOM     11  C   UNL     1       1.636   8.692  21.134  0.00  0.00    +0.000 C 
BRANCH  11  12
ATOM     12  C   UNL     1       1.806   7.457  20.284  0.00  0.00    +0.000 A 
ATOM     13  C   UNL     1       2.352   7.550  18.994  0.00  0.00    +0.000 A 
ATOM     14  C   UNL     1       2.491   6.411  18.202  0.00  0.00    +0.000 A 
ATOM     15  C   UNL     1       2.086   5.155  18.673  0.00  0.00    +0.000 A 
ATOM     16  C   UNL     1       2.220   3.999  17.887  0.00  0.00    +0.000 A 
ATOM     17  C   UNL     1       1.810   2.756  18.372  0.00  0.00    +0.000 A 
ATOM     18  C   UNL     1       1.260   2.654  19.647  0.00  0.00    +0.000 A 
ATOM     19  C   UNL     1       1.121   3.793  20.440  0.00  0.00    +0.000 A 
ATOM     20  C   UNL     1       1.530   5.051  19.967  0.00  0.00    +0.000 A 
ATOM     21  C   UNL     1       1.396   6.204  20.755  0.00  0.00    +0.000 A 
ENDBRANCH  11  12
ENDBRANCH  10  11
ENDBRANCH   9  10
ENDBRANCH   1   9
BRANCH   2  22
ATOM     22  O   UNL     1       1.428  10.919  17.988  0.00  0.00    +0.000 OA
ATOM     23  H   UNL     1       2.290  10.454  18.092  0.00  0.00    +0.000 HD
ENDBRANCH   2  22
BRANCH   7  24
ATOM     24  O   UNL     1      -0.227  12.262  22.349  0.00  0.00    +0.000 OA
BRANCH  24  25
ATOM     25  C   UNL     1      -1.231  13.239  22.696  0.00  0.00    +0.000 C 
ATOM     26  O   UNL     1      -0.905  13.830  23.954  0.00  0.00    +0.000 OA
ATOM     27  C   UNL     1      -1.782  14.898  24.336  0.00  0.00    +0.000 C 
ATOM     28  C   UNL     1      -3.235  14.410  24.454  0.00  0.00    +0.000 C 
ATOM     29  C   UNL     1      -3.650  13.657  23.181  0.00  0.00    +0.000 C 
ATOM     30  C   UNL     1      -2.624  12.589  22.775  0.00  0.00    +0.000 C 
BRANCH  28  31
ATOM     31  O   UNL     1      -4.123  15.501  24.709  0.00  0.00    +0.000 OA
ATOM     32  H   UNL     1      -4.825  15.518  24.036  0.00  0.00    +0.000 HD
ENDBRANCH  28  31
BRANCH  29  33
ATOM     33  O   UNL     1      -4.944  13.054  23.311  0.00  0.00    +0.000 OA
ATOM     34  H   UNL     1      -4.881  12.121  23.040  0.00  0.00    +0.000 HD
ENDBRANCH  29  33
BRANCH  30  35
ATOM     35  O   UNL     1      -2.969  12.026  21.499  0.00  0.00    +0.000 OA
ATOM     36  H   UNL     1      -3.716  11.411  21.625  0.00  0.00    +0.000 HD
ENDBRANCH  30  35
BRANCH  27  37
ATOM     37  C   UNL     1      -1.244  15.413  25.678  0.00  0.00    +0.000 C 
BRANCH  37  38
ATOM     38  O   UNL     1      -0.024  16.126  25.466  0.00  0.00    +0.000 OA
ATOM     39  H   UNL     1      -0.112  16.547  24.589  0.00  0.00    +0.000 HD
ENDBRANCH  37  38
ENDBRANCH  27  37
ENDBRANCH  24  25
ENDBRANCH   7  24
TORSDOF 12
ENDMDL
MODEL 8
REMARK VINA RESULT:      -7.7      2.780      4.635
REMARK  Name = 
REMARK  12 active torsions:
REMARK  status: ('A' for Active; 'I' for Inactive)
REMARK    1  A    between atoms: C_2  and  C_3
REMARK    2  A    between atoms: C_2  and  C_15
REMARK    3  A    between atoms: C_3  and  C_4
REMARK    4  A    between atoms: C_4  and  C_5
REMARK    5  A    between atoms: C_16  and  O_17
REMARK    6  A    between atoms: C_22  and  O_23
REMARK    7  A    between atoms: O_23  and  C_24
REMARK    8  A    between atoms: C_26  and  C_27
REMARK    9  A    between atoms: C_27  and  O_28
REMARK   10  A    between atoms: C_29  and  O_30
REMARK   11  A    between atoms: C_31  and  O_32
REMARK   12  A    between atoms: C_33  and  O_34
REMARK                            x       y       z     vdW  Elec       q    Type
REMARK                         _______ _______ _______ _____ _____    ______ ____
ROOT
ATOM      1  C   UNL     1      -0.923  10.845  19.529  0.00  0.00    +0.000 A 
ATOM      2  C   UNL     1      -0.955  10.471  18.171  0.00  0.00    +0.000 A 
ATOM      3  C   UNL     1      -2.059  10.755  17.372  0.00  0.00    +0.000 A 
ATOM      4  C   UNL     1      -3.114  11.475  17.911  0.00  0.00    +0.000 A 
ATOM      5 CL   UNL     1      -4.507  11.812  16.959  0.00  0.00    +0.000 Cl
ATOM      6  C   UNL     1      -3.068  11.914  19.232  0.00  0.00    +0.000 A 
ATOM      7  C   UNL     1      -1.997  11.576  20.071  0.00  0.00    +0.000 A 
ENDROOT
BRANCH   1   9
ATOM      8  O   UNL     1       1.284  11.039  20.271  0.00  0.00    +0.000 OA
ATOM      9  C   UNL     1       0.252  10.376  20.323  0.00  0.00    +0.000 C 
BRANCH   9  10
ATOM     10  C   UNL     1       0.187   9.072  21.091  0.00  0.00    +0.000 C 
BRANCH  10  11
ATOM     11  C   UNL     1       1.543   8.383  21.253  0.00  0.00    +0.000 C 
BRANCH  11  12
ATOM     12  C   UNL     1       1.774   7.209  20.335  0.00  0.00    +0.000 A 
ATOM     13  C   UNL     1       2.331   7.400  19.060  0.00  0.00    +0.000 A 
ATOM     14  C   UNL     1       2.526   6.318  18.204  0.00  0.00    +0.000 A 
ATOM     15  C   UNL     1       2.168   5.020  18.594  0.00  0.00    +0.000 A 
ATOM     16  C   UNL     1       2.358   3.920  17.743  0.00  0.00    +0.000 A 
ATOM     17  C   UNL     1       1.993   2.634  18.148  0.00  0.00    +0.000 A 
ATOM     18  C   UNL     1       1.433   2.435  19.406  0.00  0.00    +0.000 A 
ATOM     19  C   UNL     1       1.238   3.518  20.264  0.00  0.00    +0.000 A 
ATOM     20  C   UNL     1       1.601   4.817  19.872  0.00  0.00    +0.000 A 
ATOM     21  C   UNL     1       1.410   5.914  20.724  0.00  0.00    +0.000 A 
ENDBRANCH  11  12
ENDBRANCH  10  11
ENDBRANCH   9  10
ENDBRANCH   1   9
BRANCH   2  22
ATOM     22  O   UNL     1       0.056   9.783  17.552  0.00  0.00    +0.000 OA
ATOM     23  H   UNL     1       0.771  10.420  17.323  0.00  0.00    +0.000 HD
ENDBRANCH   2  22
BRANCH   7  24
ATOM     24  O   UNL     1      -1.968  11.945  21.397  0.00  0.00    +0.000 OA
BRANCH  24  25
ATOM     25  C   UNL     1      -2.499  13.252  21.700  0.00  0.00    +0.000 C 
ATOM     26  O   UNL     1      -1.426  14.139  22.016  0.00  0.00    +0.000 OA
ATOM     27  C   UNL     1      -1.840  15.497  22.222  0.00  0.00    +0.000 C 
ATOM     28  C   UNL     1      -2.842  15.603  23.382  0.00  0.00    +0.000 C 
ATOM     29  C   UNL     1      -3.990  14.601  23.190  0.00  0.00    +0.000 C 
ATOM     30  C   UNL     1      -3.481  13.184  22.883  0.00  0.00    +0.000 C 
BRANCH  28  31
ATOM     31  O   UNL     1      -3.349  16.935  23.501  0.00  0.00    +0.000 OA
ATOM     32  H   UNL     1      -2.780  17.550  23.006  0.00  0.00    +0.000 HD
ENDBRANCH  28  31
BRANCH  29  33
ATOM     33  O   UNL     1      -4.864  14.560  24.326  0.00  0.00    +0.000 OA
ATOM     34  H   UNL     1      -4.411  14.093  25.050  0.00  0.00    +0.000 HD
ENDBRANCH  29  33
BRANCH  30  35
ATOM     35  O   UNL     1      -4.580  12.321  22.552  0.00  0.00    +0.000 OA
ATOM     36  H   UNL     1      -4.462  12.009  21.635  0.00  0.00    +0.000 HD
ENDBRANCH  30  35
BRANCH  27  37
ATOM     37  C   UNL     1      -0.552  16.281  22.508  0.00  0.00    +0.000 C 
BRANCH  37  38
ATOM     38  O   UNL     1       0.157  15.666  23.586  0.00  0.00    +0.000 OA
ATOM     39  H   UNL     1       1.080  15.975  23.506  0.00  0.00    +0.000 HD
ENDBRANCH  37  38
ENDBRANCH  27  37
ENDBRANCH  24  25
ENDBRANCH   7  24
TORSDOF 12
ENDMDL
MODEL 9
REMARK VINA RESULT:      -7.6      2.108      2.768
REMARK  Name = 
REMARK  12 active torsions:
REMARK  status: ('A' for Active; 'I' for Inactive)
REMARK    1  A    between atoms: C_2  and  C_3
REMARK    2  A    between atoms: C_2  and  C_15
REMARK    3  A    between atoms: C_3  and  C_4
REMARK    4  A    between atoms: C_4  and  C_5
REMARK    5  A    between atoms: C_16  and  O_17
REMARK    6  A    between atoms: C_22  and  O_23
REMARK    7  A    between atoms: O_23  and  C_24
REMARK    8  A    between atoms: C_26  and  C_27
REMARK    9  A    between atoms: C_27  and  O_28
REMARK   10  A    between atoms: C_29  and  O_30
REMARK   11  A    between atoms: C_31  and  O_32
REMARK   12  A    between atoms: C_33  and  O_34
REMARK                            x       y       z     vdW  Elec       q    Type
REMARK                         _______ _______ _______ _____ _____    ______ ____
ROOT
ATOM      1  C   UNL     1      -0.836  11.074  21.280  0.00  0.00    +0.000 A 
ATOM      2  C   UNL     1      -0.773  11.296  22.670  0.00  0.00    +0.000 A 
ATOM      3  C   UNL     1      -1.295  12.455  23.238  0.00  0.00    +0.000 A 
ATOM      4  C   UNL     1      -1.943  13.371  22.425  0.00  0.00    +0.000 A 
ATOM      5 CL   UNL     1      -2.569  14.828  23.092  0.00  0.00    +0.000 Cl
ATOM      6  C   UNL     1      -2.078  13.134  21.060  0.00  0.00    +0.000 A 
ATOM      7  C   UNL     1      -1.496  12.008  20.459  0.00  0.00    +0.000 A 
ENDROOT
BRANCH   1   9
ATOM      8  O   UNL     1      -0.599   8.762  21.042  0.00  0.00    +0.000 OA
ATOM      9  C   UNL     1      -0.131   9.863  20.765  0.00  0.00    +0.000 C 
BRANCH   9  10
ATOM     10  C   UNL     1       1.171  10.000  20.002  0.00  0.00    +0.000 C 
BRANCH  10  11
ATOM     11  C   UNL     1       1.193   9.235  18.677  0.00  0.00    +0.000 C 
BRANCH  11  12
ATOM     12  C   UNL     1       2.140   8.061  18.636  0.00  0.00    +0.000 A 
ATOM     13  C   UNL     1       2.157   7.122  19.680  0.00  0.00    +0.000 A 
ATOM     14  C   UNL     1       3.046   6.049  19.651  0.00  0.00    +0.000 A 
ATOM     15  C   UNL     1       3.942   5.887  18.586  0.00  0.00    +0.000 A 
ATOM     16  C   UNL     1       4.844   4.811  18.543  0.00  0.00    +0.000 A 
ATOM     17  C   UNL     1       5.730   4.667  17.474  0.00  0.00    +0.000 A 
ATOM     18  C   UNL     1       5.728   5.596  16.438  0.00  0.00    +0.000 A 
ATOM     19  C   UNL     1       4.838   6.671  16.466  0.00  0.00    +0.000 A 
ATOM     20  C   UNL     1       3.939   6.829  17.533  0.00  0.00    +0.000 A 
ATOM     21  C   UNL     1       3.039   7.905  17.573  0.00  0.00    +0.000 A 
ENDBRANCH  11  12
ENDBRANCH  10  11
ENDBRANCH   9  10
ENDBRANCH   1   9
BRANCH   2  22
ATOM     22  O   UNL     1      -0.175  10.429  23.548  0.00  0.00    +0.000 OA
ATOM     23  H   UNL     1       0.623  10.049  23.113  0.00  0.00    +0.000 HD
ENDBRANCH   2  22
BRANCH   7  24
ATOM     24  O   UNL     1      -1.562  11.794  19.101  0.00  0.00    +0.000 OA
BRANCH  24  25
ATOM     25  C   UNL     1      -2.834  12.069  18.479  0.00  0.00    +0.000 C 
ATOM     26  O   UNL     1      -3.885  11.794  19.405  0.00  0.00    +0.000 OA
ATOM     27  C   UNL     1      -5.189  12.145  18.921  0.00  0.00    +0.000 C 
ATOM     28  C   UNL     1      -5.533  11.372  17.638  0.00  0.00    +0.000 C 
ATOM     29  C   UNL     1      -4.401  11.517  16.608  0.00  0.00    +0.000 C 
ATOM     30  C   UNL     1      -3.021  11.215  17.212  0.00  0.00    +0.000 C 
BRANCH  28  31
ATOM     31  O   UNL     1      -6.775  11.818  17.089  0.00  0.00    +0.000 OA
ATOM     32  H   UNL     1      -6.801  12.790  17.076  0.00  0.00    +0.000 HD
ENDBRANCH  28  31
BRANCH  29  33
ATOM     33  O   UNL     1      -4.612  10.688  15.457  0.00  0.00    +0.000 OA
ATOM     34  H   UNL     1      -5.361  11.048  14.949  0.00  0.00    +0.000 HD
ENDBRANCH  29  33
BRANCH  30  35
ATOM     35  O   UNL     1      -1.986  11.519  16.265  0.00  0.00    +0.000 OA
ATOM     36  H   UNL     1      -1.425  10.728  16.157  0.00  0.00    +0.000 HD
ENDBRANCH  30  35
BRANCH  27  37
ATOM     37  C   UNL     1      -6.156  11.809  20.064  0.00  0.00    +0.000 C 
BRANCH  37  38
ATOM     38  O   UNL     1      -6.896  10.631  19.739  0.00  0.00    +0.000 OA
ATOM     39  H   UNL     1      -6.614   9.954  20.384  0.00  0.00    +0.000 HD
ENDBRANCH  37  38
ENDBRANCH  27  37
ENDBRANCH  24  25
ENDBRANCH   7  24
TORSDOF 12
ENDMDL
