MODEL 1
REMARK VINA RESULT:      -7.1      0.000      0.000
REMARK  Name = 
REMARK  10 active torsions:
REMARK  status: ('A' for Active; 'I' for Inactive)
REMARK    1  A    between atoms: C_1  and  O_2
REMARK    2  A    between atoms: O_2  and  C_3
REMARK    3  A    between atoms: C_9  and  N_10
REMARK    4  A    between atoms: N_10  and  C_11
REMARK    5  A    between atoms: N_10  and  S_22
REMARK    6  A    between atoms: C_11  and  C_12
REMARK    7  A    between atoms: N_14  and  C_15
REMARK    8  A    between atoms: C_15  and  C_16
REMARK    9  A    between atoms: S_22  and  C_25
REMARK   10  A    between atoms: C_28  and  C_29
REMARK                            x       y       z     vdW  Elec       q    Type
REMARK                         _______ _______ _______ _____ _____    ______ ____
ROOT
ATOM      1  N   UNL     1      -0.507  10.875  19.185  0.00  0.00    +0.000 N 
ENDROOT
BRANCH   1   8
ATOM      2  C   UNL     1       0.304   9.127  20.824  0.00  0.00    +0.000 A 
ATOM      3  C   UNL     1       1.178   8.052  21.078  0.00  0.00    +0.000 A 
ATOM      4  C   UNL     1       2.079   7.618  20.100  0.00  0.00    +0.000 A 
ATOM      5  C   UNL     1       2.101   8.243  18.860  0.00  0.00    +0.000 A 
ATOM      6 CL   UNL     1       3.194   7.692  17.649  0.00  0.00    +0.000 Cl
ATOM      7  C   UNL     1       1.238   9.303  18.591  0.00  0.00    +0.000 A 
ATOM      8  C   UNL     1       0.352   9.776  19.573  0.00  0.00    +0.000 A 
BRANCH   2  10
ATOM      9  C   UNL     1      -0.168   9.711  23.076  0.00  0.00    +0.000 C 
ATOM     10  O   UNL     1      -0.623   9.559  21.732  0.00  0.00    +0.000 OA
ENDBRANCH   2  10
ENDBRANCH   1   8
BRANCH   1  11
ATOM     11  S   UNL     1      -0.047  12.434  19.739  0.00  0.00    +0.000 S 
ATOM     12  O   UNL     1       1.265  12.298  20.348  0.00  0.00    +0.000 OA
ATOM     13  O   UNL     1      -0.237  13.391  18.665  0.00  0.00    +0.000 OA
BRANCH  11  14
ATOM     14  C   UNL     1      -1.162  12.891  21.067  0.00  0.00    +0.000 A 
ATOM     15  C   UNL     1      -2.522  12.577  20.965  0.00  0.00    +0.000 A 
ATOM     16  C   UNL     1      -3.373  12.732  22.068  0.00  0.00    +0.000 A 
ATOM     17  C   UNL     1      -2.869  13.184  23.293  0.00  0.00    +0.000 A 
ATOM     18  C   UNL     1      -3.768  13.329  24.491  0.00  0.00    +0.000 C 
ATOM     19  C   UNL     1      -1.503  13.482  23.395  0.00  0.00    +0.000 A 
ATOM     20  C   UNL     1      -0.650  13.330  22.292  0.00  0.00    +0.000 A 
ENDBRANCH  11  14
ENDBRANCH   1  11
BRANCH   1  21
ATOM     21  C   UNL     1      -1.185  10.861  17.868  0.00  0.00    +0.000 C 
BRANCH  21  22
ATOM     22  C   UNL     1      -2.694  10.724  17.776  0.00  0.00    +0.000 C 
ATOM     23  O   UNL     1      -3.208   9.602  17.758  0.00  0.00    +0.000 OA
ATOM     24  N   UNL     1      -3.452  11.855  17.575  0.00  0.00    +0.000 N 
ATOM     25  H   UNL     1      -3.019  12.767  17.477  0.00  0.00    +0.000 HD
BRANCH  24  26
ATOM     26  C   UNL     1      -4.872  11.751  17.262  0.00  0.00    +0.000 C 
BRANCH  26  27
ATOM     27  C   UNL     1      -5.775  11.760  18.479  0.00  0.00    +0.000 A 
ATOM     28  C   UNL     1      -6.474  10.600  18.825  0.00  0.00    +0.000 A 
ATOM     29  C   UNL     1      -7.310  10.617  19.939  0.00  0.00    +0.000 A 
ATOM     30  C   UNL     1      -7.438  11.793  20.667  0.00  0.00    +0.000 A 
ATOM     31  C   UNL     1      -6.737  12.906  20.242  0.00  0.00    +0.000 A 
ATOM     32  N   UNL     1      -5.915  12.923  19.167  0.00  0.00    +0.000 NA
ENDBRANCH  26  27
ENDBRANCH  24  26
ENDBRANCH  21  22
ENDBRANCH   1  21
TORSDOF 8
ENDMDL
MODEL 2
REMARK VINA RESULT:      -6.7      0.814      1.053
REMARK  Name = 
REMARK  10 active torsions:
REMARK  status: ('A' for Active; 'I' for Inactive)
REMARK    1  A    between atoms: C_1  and  O_2
REMARK    2  A    between atoms: O_2  and  C_3
REMARK    3  A    between atoms: C_9  and  N_10
REMARK    4  A    between atoms: N_10  and  C_11
REMARK    5  A    between atoms: N_10  and  S_22
REMARK    6  A    between atoms: C_11  and  C_12
REMARK    7  A    between atoms: N_14  and  C_15
REMARK    8  A    between atoms: C_15  and  C_16
REMARK    9  A    between atoms: S_22  and  C_25
REMARK   10  A    between atoms: C_28  and  C_29
REMARK                            x       y       z     vdW  Elec       q    Type
REMARK                         _______ _______ _______ _____ _____    ______ ____
ROOT
ATOM      1  N   UNL     1      -0.190  11.143  19.509  0.00  0.00    +0.000 N 
ENDROOT
BRANCH   1   8
ATOM      2  C   UNL     1       0.380   9.101  20.889  0.00  0.00    +0.000 A 
ATOM      3  C   UNL     1       1.124   7.910  20.997  0.00  0.00    +0.000 A 
ATOM      4  C   UNL     1       2.001   7.522  19.980  0.00  0.00    +0.000 A 
ATOM      5  C   UNL     1       2.127   8.311  18.843  0.00  0.00    +0.000 A 
ATOM      6 CL   UNL     1       3.190   7.820  17.580  0.00  0.00    +0.000 Cl
ATOM      7  C   UNL     1       1.392   9.488  18.718  0.00  0.00    +0.000 A 
ATOM      8  C   UNL     1       0.534   9.911  19.746  0.00  0.00    +0.000 A 
BRANCH   2  10
ATOM      9  C   UNL     1      -0.009   9.694  23.154  0.00  0.00    +0.000 C 
ATOM     10  O   UNL     1      -0.522   9.499  21.838  0.00  0.00    +0.000 OA
ENDBRANCH   2  10
ENDBRANCH   1   8
BRANCH   1  11
ATOM     11  S   UNL     1       0.426  12.549  20.277  0.00  0.00    +0.000 S 
ATOM     12  O   UNL     1       1.576  12.134  21.063  0.00  0.00    +0.000 OA
ATOM     13  O   UNL     1       0.583  13.598  19.287  0.00  0.00    +0.000 OA
BRANCH  11  14
ATOM     14  C   UNL     1      -0.803  13.107  21.459  0.00  0.00    +0.000 A 
ATOM     15  C   UNL     1      -2.103  12.593  21.396  0.00  0.00    +0.000 A 
ATOM     16  C   UNL     1      -3.019  12.850  22.425  0.00  0.00    +0.000 A 
ATOM     17  C   UNL     1      -2.639  13.607  23.540  0.00  0.00    +0.000 A 
ATOM     18  C   UNL     1      -3.607  13.865  24.663  0.00  0.00    +0.000 C 
ATOM     19  C   UNL     1      -1.331  14.105  23.606  0.00  0.00    +0.000 A 
ATOM     20  C   UNL     1      -0.413  13.852  22.576  0.00  0.00    +0.000 A 
ENDBRANCH  11  14
ENDBRANCH   1  11
BRANCH   1  21
ATOM     21  C   UNL     1      -0.836  11.386  18.199  0.00  0.00    +0.000 C 
BRANCH  21  22
ATOM     22  C   UNL     1      -2.211  10.820  17.897  0.00  0.00    +0.000 C 
ATOM     23  O   UNL     1      -2.321   9.834  17.163  0.00  0.00    +0.000 OA
ATOM     24  N   UNL     1      -3.322  11.503  18.338  0.00  0.00    +0.000 N 
ATOM     25  H   UNL     1      -3.234  12.377  18.846  0.00  0.00    +0.000 HD
BRANCH  24  26
ATOM     26  C   UNL     1      -4.655  11.122  17.889  0.00  0.00    +0.000 C 
BRANCH  26  27
ATOM     27  C   UNL     1      -5.712  11.178  18.973  0.00  0.00    +0.000 A 
ATOM     28  C   UNL     1      -5.747  12.270  19.846  0.00  0.00    +0.000 A 
ATOM     29  C   UNL     1      -6.715  12.310  20.845  0.00  0.00    +0.000 A 
ATOM     30  C   UNL     1      -7.611  11.255  20.959  0.00  0.00    +0.000 A 
ATOM     31  C   UNL     1      -7.492  10.197  20.077  0.00  0.00    +0.000 A 
ATOM     32  N   UNL     1      -6.565  10.128  19.093  0.00  0.00    +0.000 NA
ENDBRANCH  26  27
ENDBRANCH  24  26
ENDBRANCH  21  22
ENDBRANCH   1  21
TORSDOF 8
ENDMDL
MODEL 3
REMARK VINA RESULT:      -6.5      1.017      1.430
REMARK  Name = 
REMARK  10 active torsions:
REMARK  status: ('A' for Active; 'I' for Inactive)
REMARK    1  A    between atoms: C_1  and  O_2
REMARK    2  A    between atoms: O_2  and  C_3
REMARK    3  A    between atoms: C_9  and  N_10
REMARK    4  A    between atoms: N_10  and  C_11
REMARK    5  A    between atoms: N_10  and  S_22
REMARK    6  A    between atoms: C_11  and  C_12
REMARK    7  A    between atoms: N_14  and  C_15
REMARK    8  A    between atoms: C_15  and  C_16
REMARK    9  A    between atoms: S_22  and  C_25
REMARK   10  A    between atoms: C_28  and  C_29
REMARK                            x       y       z     vdW  Elec       q    Type
REMARK                         _______ _______ _______ _____ _____    ______ ____
ROOT
ATOM      1  N   UNL     1      -0.811  10.888  18.897  0.00  0.00    +0.000 N 
ENDROOT
BRANCH   1   8
ATOM      2  C   UNL     1       0.146   9.414  20.717  0.00  0.00    +0.000 A 
ATOM      3  C   UNL     1       1.094   8.437  21.077  0.00  0.00    +0.000 A 
ATOM      4  C   UNL     1       2.004   7.943  20.138  0.00  0.00    +0.000 A 
ATOM      5  C   UNL     1       1.961   8.409  18.830  0.00  0.00    +0.000 A 
ATOM      6 CL   UNL     1       3.067   7.783  17.667  0.00  0.00    +0.000 Cl
ATOM      7  C   UNL     1       1.025   9.370  18.455  0.00  0.00    +0.000 A 
ATOM      8  C   UNL     1       0.128   9.903  19.395  0.00  0.00    +0.000 A 
BRANCH   2  10
ATOM      9  C   UNL     1      -0.445   9.858  22.972  0.00  0.00    +0.000 C 
ATOM     10  O   UNL     1      -0.791   9.895  21.589  0.00  0.00    +0.000 OA
ENDBRANCH   2  10
ENDBRANCH   1   8
BRANCH   1  11
ATOM     11  S   UNL     1      -0.390  12.534  19.145  0.00  0.00    +0.000 S 
ATOM     12  O   UNL     1       0.942  12.550  19.725  0.00  0.00    +0.000 OA
ATOM     13  O   UNL     1      -0.642  13.275  17.923  0.00  0.00    +0.000 OA
BRANCH  11  14
ATOM     14  C   UNL     1      -1.483  13.192  20.406  0.00  0.00    +0.000 A 
ATOM     15  C   UNL     1      -1.452  14.560  20.700  0.00  0.00    +0.000 A 
ATOM     16  C   UNL     1      -2.432  15.132  21.523  0.00  0.00    +0.000 A 
ATOM     17  C   UNL     1      -3.466  14.347  22.045  0.00  0.00    +0.000 A 
ATOM     18  C   UNL     1      -4.537  14.957  22.908  0.00  0.00    +0.000 C 
ATOM     19  C   UNL     1      -3.502  12.981  21.734  0.00  0.00    +0.000 A 
ATOM     20  C   UNL     1      -2.521  12.405  20.913  0.00  0.00    +0.000 A 
ENDBRANCH  11  14
ENDBRANCH   1  11
BRANCH   1  21
ATOM     21  C   UNL     1      -1.578  10.626  17.658  0.00  0.00    +0.000 C 
BRANCH  21  22
ATOM     22  C   UNL     1      -3.095  10.675  17.663  0.00  0.00    +0.000 C 
ATOM     23  O   UNL     1      -3.743   9.629  17.758  0.00  0.00    +0.000 OA
ATOM     24  N   UNL     1      -3.722  11.877  17.422  0.00  0.00    +0.000 N 
ATOM     25  H   UNL     1      -3.188  12.718  17.232  0.00  0.00    +0.000 HD
BRANCH  24  26
ATOM     26  C   UNL     1      -5.161  11.933  17.200  0.00  0.00    +0.000 C 
BRANCH  26  27
ATOM     27  C   UNL     1      -5.975  12.110  18.465  0.00  0.00    +0.000 A 
ATOM     28  C   UNL     1      -6.010  13.359  19.093  0.00  0.00    +0.000 A 
ATOM     29  C   UNL     1      -6.753  13.512  20.260  0.00  0.00    +0.000 A 
ATOM     30  C   UNL     1      -7.427  12.414  20.779  0.00  0.00    +0.000 A 
ATOM     31  C   UNL     1      -7.318  11.206  20.117  0.00  0.00    +0.000 A 
ATOM     32  N   UNL     1      -6.607  11.023  18.980  0.00  0.00    +0.000 NA
ENDBRANCH  26  27
ENDBRANCH  24  26
ENDBRANCH  21  22
ENDBRANCH   1  21
TORSDOF 8
ENDMDL
MODEL 4
REMARK VINA RESULT:      -6.5      2.112      2.882
REMARK  Name = 
REMARK  10 active torsions:
REMARK  status: ('A' for Active; 'I' for Inactive)
REMARK    1  A    between atoms: C_1  and  O_2
REMARK    2  A    between atoms: O_2  and  C_3
REMARK    3  A    between atoms: C_9  and  N_10
REMARK    4  A    between atoms: N_10  and  C_11
REMARK    5  A    between atoms: N_10  and  S_22
REMARK    6  A    between atoms: C_11  and  C_12
REMARK    7  A    between atoms: N_14  and  C_15
REMARK    8  A    between atoms: C_15  and  C_16
REMARK    9  A    between atoms: S_22  and  C_25
REMARK   10  A    between atoms: C_28  and  C_29
REMARK                            x       y       z     vdW  Elec       q    Type
REMARK                         _______ _______ _______ _____ _____    ______ ____
ROOT
ATOM      1  N   UNL     1      -0.295  11.167  19.844  0.00  0.00    +0.000 N 
ENDROOT
BRANCH   1   8
ATOM      2  C   UNL     1       0.344   9.050  21.074  0.00  0.00    +0.000 A 
ATOM      3  C   UNL     1       1.103   7.863  21.080  0.00  0.00    +0.000 A 
ATOM      4  C   UNL     1       1.946   7.549  20.009  0.00  0.00    +0.000 A 
ATOM      5  C   UNL     1       2.022   8.408  18.920  0.00  0.00    +0.000 A 
ATOM      6 CL   UNL     1       3.042   8.008  17.591  0.00  0.00    +0.000 Cl
ATOM      7  C   UNL     1       1.273   9.582  18.896  0.00  0.00    +0.000 A 
ATOM      8  C   UNL     1       0.449   9.931  19.978  0.00  0.00    +0.000 A 
BRANCH   2  10
ATOM      9  C   UNL     1       0.039   9.529  23.378  0.00  0.00    +0.000 C 
ATOM     10  O   UNL     1      -0.525   9.379  22.077  0.00  0.00    +0.000 OA
ENDBRANCH   2  10
ENDBRANCH   1   8
BRANCH   1  11
ATOM     11  S   UNL     1       0.224  12.478  20.824  0.00  0.00    +0.000 S 
ATOM     12  O   UNL     1      -0.854  12.765  21.755  0.00  0.00    +0.000 OA
ATOM     13  O   UNL     1       1.549  12.186  21.339  0.00  0.00    +0.000 OA
BRANCH  11  14
ATOM     14  C   UNL     1       0.364  13.923  19.771  0.00  0.00    +0.000 A 
ATOM     15  C   UNL     1      -0.688  14.845  19.723  0.00  0.00    +0.000 A 
ATOM     16  C   UNL     1      -0.523  16.078  19.078  0.00  0.00    +0.000 A 
ATOM     17  C   UNL     1       0.702  16.413  18.491  0.00  0.00    +0.000 A 
ATOM     18  C   UNL     1       0.898  17.745  17.820  0.00  0.00    +0.000 C 
ATOM     19  C   UNL     1       1.758  15.493  18.557  0.00  0.00    +0.000 A 
ATOM     20  C   UNL     1       1.595  14.257  19.200  0.00  0.00    +0.000 A 
ENDBRANCH  11  14
ENDBRANCH   1  11
BRANCH   1  21
ATOM     21  C   UNL     1      -0.856  11.559  18.532  0.00  0.00    +0.000 C 
BRANCH  21  22
ATOM     22  C   UNL     1      -2.275  11.177  18.152  0.00  0.00    +0.000 C 
ATOM     23  O   UNL     1      -2.476  10.177  17.458  0.00  0.00    +0.000 OA
ATOM     24  N   UNL     1      -3.302  12.035  18.474  0.00  0.00    +0.000 N 
ATOM     25  H   UNL     1      -3.123  12.915  18.946  0.00  0.00    +0.000 HD
BRANCH  24  26
ATOM     26  C   UNL     1      -4.642  11.822  17.942  0.00  0.00    +0.000 C 
BRANCH  26  27
ATOM     27  C   UNL     1      -5.686  11.520  18.998  0.00  0.00    +0.000 A 
ATOM     28  C   UNL     1      -6.445  10.350  18.902  0.00  0.00    +0.000 A 
ATOM     29  C   UNL     1      -7.408  10.083  19.871  0.00  0.00    +0.000 A 
ATOM     30  C   UNL     1      -7.601  10.996  20.899  0.00  0.00    +0.000 A 
ATOM     31  C   UNL     1      -6.832  12.145  20.907  0.00  0.00    +0.000 A 
ATOM     32  N   UNL     1      -5.886  12.434  19.983  0.00  0.00    +0.000 NA
ENDBRANCH  26  27
ENDBRANCH  24  26
ENDBRANCH  21  22
ENDBRANCH   1  21
TORSDOF 8
ENDMDL
MODEL 5
REMARK VINA RESULT:      -6.4      3.154      4.564
REMARK  Name = 
REMARK  10 active torsions:
REMARK  status: ('A' for Active; 'I' for Inactive)
REMARK    1  A    between atoms: C_1  and  O_2
REMARK    2  A    between atoms: O_2  and  C_3
REMARK    3  A    between atoms: C_9  and  N_10
REMARK    4  A    between atoms: N_10  and  C_11
REMARK    5  A    between atoms: N_10  and  S_22
REMARK    6  A    between atoms: C_11  and  C_12
REMARK    7  A    between atoms: N_14  and  C_15
REMARK    8  A    between atoms: C_15  and  C_16
REMARK    9  A    between atoms: S_22  and  C_25
REMARK   10  A    between atoms: C_28  and  C_29
REMARK                            x       y       z     vdW  Elec       q    Type
REMARK                         _______ _______ _______ _____ _____    ______ ____
ROOT
ATOM      1  N   UNL     1      -0.102  12.455  19.514  0.00  0.00    +0.000 N 
ENDROOT
BRANCH   1   8
ATOM      2  C   UNL     1      -1.826  12.843  21.325  0.00  0.00    +0.000 A 
ATOM      3  C   UNL     1      -2.350  12.445  22.570  0.00  0.00    +0.000 A 
ATOM      4  C   UNL     1      -1.788  11.375  23.272  0.00  0.00    +0.000 A 
ATOM      5  C   UNL     1      -0.712  10.685  22.727  0.00  0.00    +0.000 A 
ATOM      6 CL   UNL     1      -0.036   9.351  23.582  0.00  0.00    +0.000 Cl
ATOM      7  C   UNL     1      -0.187  11.062  21.494  0.00  0.00    +0.000 A 
ATOM      8  C   UNL     1      -0.715  12.157  20.792  0.00  0.00    +0.000 A 
BRANCH   2  10
ATOM      9  C   UNL     1      -3.046  14.879  21.308  0.00  0.00    +0.000 C 
ATOM     10  O   UNL     1      -2.368  13.855  20.582  0.00  0.00    +0.000 OA
ENDBRANCH   2  10
ENDBRANCH   1   8
BRANCH   1  11
ATOM     11  S   UNL     1       1.482  13.115  19.565  0.00  0.00    +0.000 S 
ATOM     12  O   UNL     1       1.869  13.183  20.964  0.00  0.00    +0.000 OA
ATOM     13  O   UNL     1       2.324  12.392  18.629  0.00  0.00    +0.000 OA
BRANCH  11  14
ATOM     14  C   UNL     1       1.385  14.813  18.997  0.00  0.00    +0.000 A 
ATOM     15  C   UNL     1       2.503  15.405  18.398  0.00  0.00    +0.000 A 
ATOM     16  C   UNL     1       2.393  16.649  17.761  0.00  0.00    +0.000 A 
ATOM     17  C   UNL     1       1.159  17.306  17.697  0.00  0.00    +0.000 A 
ATOM     18  C   UNL     1       1.025  18.628  16.992  0.00  0.00    +0.000 C 
ATOM     19  C   UNL     1       0.039  16.701  18.283  0.00  0.00    +0.000 A 
ATOM     20  C   UNL     1       0.146  15.457  18.924  0.00  0.00    +0.000 A 
ENDBRANCH  11  14
ENDBRANCH   1  11
BRANCH   1  21
ATOM     21  C   UNL     1      -0.379  11.600  18.338  0.00  0.00    +0.000 C 
BRANCH  21  22
ATOM     22  C   UNL     1      -1.789  11.122  18.043  0.00  0.00    +0.000 C 
ATOM     23  O   UNL     1      -2.005   9.920  17.865  0.00  0.00    +0.000 OA
ATOM     24  N   UNL     1      -2.780  12.057  17.844  0.00  0.00    +0.000 N 
ATOM     25  H   UNL     1      -2.578  13.050  17.880  0.00  0.00    +0.000 HD
BRANCH  24  26
ATOM     26  C   UNL     1      -4.090  11.657  17.346  0.00  0.00    +0.000 C 
BRANCH  26  27
ATOM     27  C   UNL     1      -5.132  11.469  18.430  0.00  0.00    +0.000 A 
ATOM     28  C   UNL     1      -5.170  12.355  19.510  0.00  0.00    +0.000 A 
ATOM     29  C   UNL     1      -6.124  12.171  20.507  0.00  0.00    +0.000 A 
ATOM     30  C   UNL     1      -7.003  11.099  20.410  0.00  0.00    +0.000 A 
ATOM     31  C   UNL     1      -6.880  10.249  19.326  0.00  0.00    +0.000 A 
ATOM     32  N   UNL     1      -5.967  10.401  18.339  0.00  0.00    +0.000 NA
ENDBRANCH  26  27
ENDBRANCH  24  26
ENDBRANCH  21  22
ENDBRANCH   1  21
TORSDOF 8
ENDMDL
MODEL 6
REMARK VINA RESULT:      -6.3      0.947      1.164
REMARK  Name = 
REMARK  10 active torsions:
REMARK  status: ('A' for Active; 'I' for Inactive)
REMARK    1  A    between atoms: C_1  and  O_2
REMARK    2  A    between atoms: O_2  and  C_3
REMARK    3  A    between atoms: C_9  and  N_10
REMARK    4  A    between atoms: N_10  and  C_11
REMARK    5  A    between atoms: N_10  and  S_22
REMARK    6  A    between atoms: C_11  and  C_12
REMARK    7  A    between atoms: N_14  and  C_15
REMARK    8  A    between atoms: C_15  and  C_16
REMARK    9  A    between atoms: S_22  and  C_25
REMARK   10  A    between atoms: C_28  and  C_29
REMARK                            x       y       z     vdW  Elec       q    Type
REMARK                         _______ _______ _______ _____ _____    ______ ____
ROOT
ATOM      1  N   UNL     1      -0.152  11.343  19.565  0.00  0.00    +0.000 N 
ENDROOT
BRANCH   1   8
ATOM      2  C   UNL     1       0.360   9.307  20.976  0.00  0.00    +0.000 A 
ATOM      3  C   UNL     1       1.057   8.088  21.094  0.00  0.00    +0.000 A 
ATOM      4  C   UNL     1       1.896   7.644  20.068  0.00  0.00    +0.000 A 
ATOM      5  C   UNL     1       2.031   8.403  18.913  0.00  0.00    +0.000 A 
ATOM      6 CL   UNL     1       3.047   7.843  17.640  0.00  0.00    +0.000 Cl
ATOM      7  C   UNL     1       1.344   9.608  18.779  0.00  0.00    +0.000 A 
ATOM      8  C   UNL     1       0.525  10.087  19.814  0.00  0.00    +0.000 A 
BRANCH   2  10
ATOM      9  C   UNL     1      -0.110   9.560  23.289  0.00  0.00    +0.000 C 
ATOM     10  O   UNL     1      -0.505   9.761  21.934  0.00  0.00    +0.000 OA
ENDBRANCH   2  10
ENDBRANCH   1   8
BRANCH   1  11
ATOM     11  S   UNL     1       0.553  12.741  20.270  0.00  0.00    +0.000 S 
ATOM     12  O   UNL     1       1.596  12.282  21.172  0.00  0.00    +0.000 OA
ATOM     13  O   UNL     1       0.888  13.682  19.217  0.00  0.00    +0.000 OA
BRANCH  11  14
ATOM     14  C   UNL     1      -0.689  13.515  21.306  0.00  0.00    +0.000 A 
ATOM     15  C   UNL     1      -0.784  13.155  22.655  0.00  0.00    +0.000 A 
ATOM     16  C   UNL     1      -1.597  13.887  23.531  0.00  0.00    +0.000 A 
ATOM     17  C   UNL     1      -2.310  15.001  23.073  0.00  0.00    +0.000 A 
ATOM     18  C   UNL     1      -3.164  15.810  24.010  0.00  0.00    +0.000 C 
ATOM     19  C   UNL     1      -2.198  15.368  21.724  0.00  0.00    +0.000 A 
ATOM     20  C   UNL     1      -1.387  14.635  20.845  0.00  0.00    +0.000 A 
ENDBRANCH  11  14
ENDBRANCH   1  11
BRANCH   1  21
ATOM     21  C   UNL     1      -0.833  11.579  18.272  0.00  0.00    +0.000 C 
BRANCH  21  22
ATOM     22  C   UNL     1      -2.260  11.109  18.052  0.00  0.00    +0.000 C 
ATOM     23  O   UNL     1      -2.513   9.902  18.032  0.00  0.00    +0.000 OA
ATOM     24  N   UNL     1      -3.224  12.041  17.740  0.00  0.00    +0.000 N 
ATOM     25  H   UNL     1      -2.994  13.024  17.645  0.00  0.00    +0.000 HD
BRANCH  24  26
ATOM     26  C   UNL     1      -4.551  11.620  17.307  0.00  0.00    +0.000 C 
BRANCH  26  27
ATOM     27  C   UNL     1      -5.599  11.657  18.401  0.00  0.00    +0.000 A 
ATOM     28  C   UNL     1      -6.220  10.471  18.800  0.00  0.00    +0.000 A 
ATOM     29  C   UNL     1      -7.189  10.513  19.799  0.00  0.00    +0.000 A 
ATOM     30  C   UNL     1      -7.524  11.739  20.361  0.00  0.00    +0.000 A 
ATOM     31  C   UNL     1      -6.886  12.871  19.890  0.00  0.00    +0.000 A 
ATOM     32  N   UNL     1      -5.939  12.864  18.923  0.00  0.00    +0.000 NA
ENDBRANCH  26  27
ENDBRANCH  24  26
ENDBRANCH  21  22
ENDBRANCH   1  21
TORSDOF 8
ENDMDL
MODEL 7
REMARK VINA RESULT:      -6.3      3.484      7.033
REMARK  Name = 
REMARK  10 active torsions:
REMARK  status: ('A' for Active; 'I' for Inactive)
REMARK    1  A    between atoms: C_1  and  O_2
REMARK    2  A    between atoms: O_2  and  C_3
REMARK    3  A    between atoms: C_9  and  N_10
REMARK    4  A    between atoms: N_10  and  C_11
REMARK    5  A    between atoms: N_10  and  S_22
REMARK    6  A    between atoms: C_11  and  C_12
REMARK    7  A    between atoms: N_14  and  C_15
REMARK    8  A    between atoms: C_15  and  C_16
REMARK    9  A    between atoms: S_22  and  C_25
REMARK   10  A    between atoms: C_28  and  C_29
REMARK                            x       y       z     vdW  Elec       q    Type
REMARK                         _______ _______ _______ _____ _____    ______ ____
ROOT
ATOM      1  N   UNL     1       0.126  11.191  19.993  0.00  0.00    +0.000 N 
ENDROOT
BRANCH   1   8
ATOM      2  C   UNL     1      -2.258  12.007  19.760  0.00  0.00    +0.000 A 
ATOM      3  C   UNL     1      -3.444  12.009  19.000  0.00  0.00    +0.000 A 
ATOM      4  C   UNL     1      -3.529  11.283  17.808  0.00  0.00    +0.000 A 
ATOM      5  C   UNL     1      -2.426  10.567  17.360  0.00  0.00    +0.000 A 
ATOM      6 CL   UNL     1      -2.524   9.693  15.879  0.00  0.00    +0.000 Cl
ATOM      7  C   UNL     1      -1.244  10.561  18.096  0.00  0.00    +0.000 A 
ATOM      8  C   UNL     1      -1.152  11.254  19.314  0.00  0.00    +0.000 A 
BRANCH   2  10
ATOM      9  C   UNL     1      -2.235  14.150  20.780  0.00  0.00    +0.000 C 
ATOM     10  O   UNL     1      -2.113  12.735  20.909  0.00  0.00    +0.000 OA
ENDBRANCH   2  10
ENDBRANCH   1   8
BRANCH   1  11
ATOM     11  S   UNL     1       0.419   9.785  20.934  0.00  0.00    +0.000 S 
ATOM     12  O   UNL     1       1.198  10.202  22.088  0.00  0.00    +0.000 OA
ATOM     13  O   UNL     1      -0.835   9.084  21.138  0.00  0.00    +0.000 OA
BRANCH  11  14
ATOM     14  C   UNL     1       1.488   8.705  19.981  0.00  0.00    +0.000 A 
ATOM     15  C   UNL     1       1.880   7.473  20.520  0.00  0.00    +0.000 A 
ATOM     16  C   UNL     1       2.537   6.526  19.722  0.00  0.00    +0.000 A 
ATOM     17  C   UNL     1       2.791   6.791  18.372  0.00  0.00    +0.000 A 
ATOM     18  C   UNL     1       3.471   5.770  17.500  0.00  0.00    +0.000 C 
ATOM     19  C   UNL     1       2.382   8.019  17.833  0.00  0.00    +0.000 A 
ATOM     20  C   UNL     1       1.727   8.970  18.630  0.00  0.00    +0.000 A 
ENDBRANCH  11  14
ENDBRANCH   1  11
BRANCH   1  21
ATOM     21  C   UNL     1       1.331  11.779  19.366  0.00  0.00    +0.000 C 
BRANCH  21  22
ATOM     22  C   UNL     1       1.837  13.145  19.793  0.00  0.00    +0.000 C 
ATOM     23  O   UNL     1       1.967  13.404  20.992  0.00  0.00    +0.000 OA
ATOM     24  N   UNL     1       2.010  14.118  18.835  0.00  0.00    +0.000 N 
ATOM     25  H   UNL     1       1.795  13.939  17.860  0.00  0.00    +0.000 HD
BRANCH  24  26
ATOM     26  C   UNL     1       2.280  15.498  19.218  0.00  0.00    +0.000 C 
BRANCH  26  27
ATOM     27  C   UNL     1       1.431  16.520  18.489  0.00  0.00    +0.000 A 
ATOM     28  C   UNL     1       0.040  16.478  18.619  0.00  0.00    +0.000 A 
ATOM     29  C   UNL     1      -0.734  17.414  17.938  0.00  0.00    +0.000 A 
ATOM     30  C   UNL     1      -0.103  18.355  17.134  0.00  0.00    +0.000 A 
ATOM     31  C   UNL     1       1.275  18.310  17.033  0.00  0.00    +0.000 A 
ATOM     32  N   UNL     1       2.057  17.417  17.683  0.00  0.00    +0.000 NA
ENDBRANCH  26  27
ENDBRANCH  24  26
ENDBRANCH  21  22
ENDBRANCH   1  21
TORSDOF 8
ENDMDL
MODEL 8
REMARK VINA RESULT:      -6.2      3.518      6.928
REMARK  Name = 
REMARK  10 active torsions:
REMARK  status: ('A' for Active; 'I' for Inactive)
REMARK    1  A    between atoms: C_1  and  O_2
REMARK    2  A    between atoms: O_2  and  C_3
REMARK    3  A    between atoms: C_9  and  N_10
REMARK    4  A    between atoms: N_10  and  C_11
REMARK    5  A    between atoms: N_10  and  S_22
REMARK    6  A    between atoms: C_11  and  C_12
REMARK    7  A    between atoms: N_14  and  C_15
REMARK    8  A    between atoms: C_15  and  C_16
REMARK    9  A    between atoms: S_22  and  C_25
REMARK   10  A    between atoms: C_28  and  C_29
REMARK                            x       y       z     vdW  Elec       q    Type
REMARK                         _______ _______ _______ _____ _____    ______ ____
ROOT
ATOM      1  N   UNL     1       0.087  11.589  19.626  0.00  0.00    +0.000 N 
ENDROOT
BRANCH   1   8
ATOM      2  C   UNL     1      -2.344  12.287  19.650  0.00  0.00    +0.000 A 
ATOM      3  C   UNL     1      -3.612  12.197  19.042  0.00  0.00    +0.000 A 
ATOM      4  C   UNL     1      -3.804  11.407  17.905  0.00  0.00    +0.000 A 
ATOM      5  C   UNL     1      -2.729  10.716  17.359  0.00  0.00    +0.000 A 
ATOM      6 CL   UNL     1      -2.962   9.762  15.944  0.00  0.00    +0.000 Cl
ATOM      7  C   UNL     1      -1.468  10.800  17.944  0.00  0.00    +0.000 A 
ATOM      8  C   UNL     1      -1.265  11.561  19.107  0.00  0.00    +0.000 A 
BRANCH   2  10
ATOM      9  C   UNL     1      -3.181  13.895  21.182  0.00  0.00    +0.000 C 
ATOM     10  O   UNL     1      -2.099  13.080  20.736  0.00  0.00    +0.000 OA
ENDBRANCH   2  10
ENDBRANCH   1   8
BRANCH   1  11
ATOM     11  S   UNL     1       0.497  10.358  20.751  0.00  0.00    +0.000 S 
ATOM     12  O   UNL     1       1.567  10.882  21.583  0.00  0.00    +0.000 OA
ATOM     13  O   UNL     1      -0.717   9.869  21.378  0.00  0.00    +0.000 OA
BRANCH  11  14
ATOM     14  C   UNL     1       1.211   8.994  19.830  0.00  0.00    +0.000 A 
ATOM     15  C   UNL     1       1.581   9.184  18.493  0.00  0.00    +0.000 A 
ATOM     16  C   UNL     1       2.327   8.208  17.817  0.00  0.00    +0.000 A 
ATOM     17  C   UNL     1       2.729   7.041  18.476  0.00  0.00    +0.000 A 
ATOM     18  C   UNL     1       3.553   6.000  17.768  0.00  0.00    +0.000 C 
ATOM     19  C   UNL     1       2.371   6.864  19.820  0.00  0.00    +0.000 A 
ATOM     20  C   UNL     1       1.622   7.837  20.498  0.00  0.00    +0.000 A 
ENDBRANCH  11  14
ENDBRANCH   1  11
BRANCH   1  21
ATOM     21  C   UNL     1       1.205  12.038  18.766  0.00  0.00    +0.000 C 
BRANCH  21  22
ATOM     22  C   UNL     1       1.616  13.499  18.732  0.00  0.00    +0.000 C 
ATOM     23  O   UNL     1       2.568  13.853  18.032  0.00  0.00    +0.000 OA
ATOM     24  N   UNL     1       1.003  14.382  19.593  0.00  0.00    +0.000 N 
ATOM     25  H   UNL     1       0.296  14.069  20.250  0.00  0.00    +0.000 HD
BRANCH  24  26
ATOM     26  C   UNL     1       1.511  15.738  19.753  0.00  0.00    +0.000 C 
BRANCH  26  27
ATOM     27  C   UNL     1       0.947  16.731  18.757  0.00  0.00    +0.000 A 
ATOM     28  C   UNL     1      -0.437  16.816  18.578  0.00  0.00    +0.000 A 
ATOM     29  C   UNL     1      -0.948  17.724  17.654  0.00  0.00    +0.000 A 
ATOM     30  C   UNL     1      -0.067  18.509  16.922  0.00  0.00    +0.000 A 
ATOM     31  C   UNL     1       1.289  18.343  17.135  0.00  0.00    +0.000 A 
ATOM     32  N   UNL     1       1.819  17.473  18.026  0.00  0.00    +0.000 NA
ENDBRANCH  26  27
ENDBRANCH  24  26
ENDBRANCH  21  22
ENDBRANCH   1  21
TORSDOF 8
ENDMDL
MODEL 9
REMARK VINA RESULT:      -6.2      2.857      6.319
REMARK  Name = 
REMARK  10 active torsions:
REMARK  status: ('A' for Active; 'I' for Inactive)
REMARK    1  A    between atoms: C_1  and  O_2
REMARK    2  A    between atoms: O_2  and  C_3
REMARK    3  A    between atoms: C_9  and  N_10
REMARK    4  A    between atoms: N_10  and  C_11
REMARK    5  A    between atoms: N_10  and  S_22
REMARK    6  A    between atoms: C_11  and  C_12
REMARK    7  A    between atoms: N_14  and  C_15
REMARK    8  A    between atoms: C_15  and  C_16
REMARK    9  A    between atoms: S_22  and  C_25
REMARK   10  A    between atoms: C_28  and  C_29
REMARK                            x       y       z     vdW  Elec       q    Type
REMARK                         _______ _______ _______ _____ _____    ______ ____
ROOT
ATOM      1  N   UNL     1      -0.626  11.173  20.842  0.00  0.00    +0.000 N 
ENDROOT
BRANCH   1   8
ATOM      2  C   UNL     1      -0.238  10.254  18.516  0.00  0.00    +0.000 A 
ATOM      3  C   UNL     1      -0.791   9.911  17.267  0.00  0.00    +0.000 A 
ATOM      4  C   UNL     1      -2.153  10.100  17.014  0.00  0.00    +0.000 A 
ATOM      5  C   UNL     1      -2.972  10.615  18.010  0.00  0.00    +0.000 A 
ATOM      6 CL   UNL     1      -4.654  10.824  17.705  0.00  0.00    +0.000 Cl
ATOM      7  C   UNL     1      -2.442  10.952  19.253  0.00  0.00    +0.000 A 
ATOM      8  C   UNL     1      -1.070  10.803  19.513  0.00  0.00    +0.000 A 
BRANCH   2  10
ATOM      9  C   UNL     1       1.886   9.471  17.800  0.00  0.00    +0.000 C 
ATOM     10  O   UNL     1       1.079  10.048  18.825  0.00  0.00    +0.000 OA
ENDBRANCH   2  10
ENDBRANCH   1   8
BRANCH   1  11
ATOM     11  S   UNL     1      -1.067  12.741  21.383  0.00  0.00    +0.000 S 
ATOM     12  O   UNL     1      -0.159  13.089  22.464  0.00  0.00    +0.000 OA
ATOM     13  O   UNL     1      -1.178  13.623  20.236  0.00  0.00    +0.000 OA
BRANCH  11  14
ATOM     14  C   UNL     1      -2.695  12.622  22.127  0.00  0.00    +0.000 A 
ATOM     15  C   UNL     1      -2.809  12.379  23.500  0.00  0.00    +0.000 A 
ATOM     16  C   UNL     1      -4.052  12.489  24.140  0.00  0.00    +0.000 A 
ATOM     17  C   UNL     1      -5.190  12.863  23.418  0.00  0.00    +0.000 A 
ATOM     18  C   UNL     1      -6.523  13.010  24.101  0.00  0.00    +0.000 C 
ATOM     19  C   UNL     1      -5.068  13.122  22.046  0.00  0.00    +0.000 A 
ATOM     20  C   UNL     1      -3.826  13.010  21.402  0.00  0.00    +0.000 A 
ENDBRANCH  11  14
ENDBRANCH   1  11
BRANCH   1  21
ATOM     21  C   UNL     1      -0.540  10.151  21.909  0.00  0.00    +0.000 C 
BRANCH  21  22
ATOM     22  C   UNL     1       0.663   9.230  22.004  0.00  0.00    +0.000 C 
ATOM     23  O   UNL     1       1.593   9.512  22.764  0.00  0.00    +0.000 OA
ATOM     24  N   UNL     1       0.756   8.166  21.135  0.00  0.00    +0.000 N 
ATOM     25  H   UNL     1       0.044   7.999  20.433  0.00  0.00    +0.000 HD
BRANCH  24  26
ATOM     26  C   UNL     1       1.985   7.390  21.040  0.00  0.00    +0.000 C 
BRANCH  26  27
ATOM     27  C   UNL     1       1.879   6.171  20.146  0.00  0.00    +0.000 A 
ATOM     28  C   UNL     1       1.257   5.016  20.628  0.00  0.00    +0.000 A 
ATOM     29  C   UNL     1       1.171   3.896  19.805  0.00  0.00    +0.000 A 
ATOM     30  C   UNL     1       1.722   3.953  18.531  0.00  0.00    +0.000 A 
ATOM     31  C   UNL     1       2.347   5.121  18.140  0.00  0.00    +0.000 A 
ATOM     32  N   UNL     1       2.446   6.228  18.913  0.00  0.00    +0.000 NA
ENDBRANCH  26  27
ENDBRANCH  24  26
ENDBRANCH  21  22
ENDBRANCH   1  21
TORSDOF 8
ENDMDL
