MODEL 1
REMARK VINA RESULT:      -8.7      0.000      0.000
REMARK  Name = 
REMARK  3 active torsions:
REMARK  status: ('A' for Active; 'I' for Inactive)
REMARK    1  A    between atoms: O_1  and  C_2
REMARK    2  A    between atoms: C_5  and  C_6
REMARK    3  A    between atoms: C_16  and  C_17
REMARK                            x       y       z     vdW  Elec       q    Type
REMARK                         _______ _______ _______ _____ _____    ______ ____
ROOT
ATOM      1  C   UNL     1       4.846   4.057  17.635  0.00  0.00    +0.000 A 
ATOM      2  C   UNL     1       3.869   4.786  16.932  0.00  0.00    +0.000 A 
ATOM      3  C   UNL     1       2.760   5.242  17.644  0.00  0.00    +0.000 A 
ATOM      4  C   UNL     1       2.566   4.701  18.893  0.00  0.00    +0.000 A 
ATOM      5  C   UNL     1       3.052   3.406  19.013  0.00  0.00    +0.000 A 
ATOM      6  C   UNL     1       4.332   3.143  18.555  0.00  0.00    +0.000 A 
ATOM      7  C   UNL     1       2.134   2.384  19.668  0.00  0.00    +0.000 C 
ATOM      8  N   UNL     1       1.275   2.957  20.728  0.00  0.00    +0.000 NA
ATOM      9  C   UNL     1       2.145   3.433  21.816  0.00  0.00    +0.000 C 
ATOM     10  C   UNL     1       2.704   4.780  21.373  0.00  0.00    +0.000 C 
ATOM     11  C   UNL     1       1.810   5.211  20.137  0.00  0.00    +0.000 C 
ATOM     12  C   UNL     1       0.636   4.205  20.212  0.00  0.00    +0.000 C 
ENDROOT
BRANCH  11  13
ATOM     13  C   UNL     1       1.495   6.684  20.469  0.00  0.00    +0.000 A 
ATOM     14  C   UNL     1       0.496   7.100  21.371  0.00  0.00    +0.000 A 
ATOM     15  C   UNL     1       0.040   8.438  21.369  0.00  0.00    +0.000 A 
ATOM     16  C   UNL     1       0.553   9.373  20.466  0.00  0.00    +0.000 A 
ATOM     17 CL   UNL     1      -0.060  10.979  20.408  0.00  0.00    +0.000 Cl
ATOM     18  C   UNL     1       1.520   8.988  19.558  0.00  0.00    +0.000 A 
ATOM     19  C   UNL     1       1.973   7.671  19.565  0.00  0.00    +0.000 A 
ENDBRANCH  11  13
BRANCH   1  23
ATOM     20  C   UNL     1       7.967   6.578  18.606  0.00  0.00    +0.000 A 
ATOM     21  C   UNL     1       7.492   6.649  17.316  0.00  0.00    +0.000 A 
ATOM     22  C   UNL     1       6.608   5.666  16.878  0.00  0.00    +0.000 A 
ATOM     23  C   UNL     1       6.183   4.680  17.767  0.00  0.00    +0.000 A 
ATOM     24  N   UNL     1       6.739   4.609  19.004  0.00  0.00    +0.000 NA
ATOM     25  N   UNL     1       7.643   5.568  19.428  0.00  0.00    +0.000 NA
BRANCH  20  26
ATOM     26  O   UNL     1       8.766   7.561  19.118  0.00  0.00    +0.000 OA
ATOM     27  H   UNL     1       8.225   8.136  19.678  0.00  0.00    +0.000 HD
ENDBRANCH  20  26
ENDBRANCH   1  23
TORSDOF 3
ENDMDL
MODEL 2
REMARK VINA RESULT:      -8.3      0.422      1.011
REMARK  Name = 
REMARK  3 active torsions:
REMARK  status: ('A' for Active; 'I' for Inactive)
REMARK    1  A    between atoms: O_1  and  C_2
REMARK    2  A    between atoms: C_5  and  C_6
REMARK    3  A    between atoms: C_16  and  C_17
REMARK                            x       y       z     vdW  Elec       q    Type
REMARK                         _______ _______ _______ _____ _____    ______ ____
ROOT
ATOM      1  C   UNL     1       5.107   3.920  17.668  0.00  0.00    +0.000 A 
ATOM      2  C   UNL     1       4.111   4.448  16.826  0.00  0.00    +0.000 A 
ATOM      3  C   UNL     1       2.931   4.896  17.418  0.00  0.00    +0.000 A 
ATOM      4  C   UNL     1       2.717   4.523  18.724  0.00  0.00    +0.000 A 
ATOM      5  C   UNL     1       3.305   3.310  19.052  0.00  0.00    +0.000 A 
ATOM      6  C   UNL     1       4.625   3.103  18.691  0.00  0.00    +0.000 A 
ATOM      7  C   UNL     1       2.444   2.310  19.813  0.00  0.00    +0.000 C 
ATOM      8  N   UNL     1       1.484   2.947  20.742  0.00  0.00    +0.000 NA
ATOM      9  C   UNL     1       2.251   3.652  21.782  0.00  0.00    +0.000 C 
ATOM     10  C   UNL     1       2.715   4.968  21.169  0.00  0.00    +0.000 C 
ATOM     11  C   UNL     1       1.855   5.133  19.849  0.00  0.00    +0.000 C 
ATOM     12  C   UNL     1       0.769   4.044  20.023  0.00  0.00    +0.000 C 
ENDROOT
BRANCH  11  13
ATOM     13  C   UNL     1       1.398   6.603  19.947  0.00  0.00    +0.000 A 
ATOM     14  C   UNL     1       1.744   7.608  19.023  0.00  0.00    +0.000 A 
ATOM     15  C   UNL     1       1.579   8.973  19.352  0.00  0.00    +0.000 A 
ATOM     16  C   UNL     1       1.087   9.359  20.601  0.00  0.00    +0.000 A 
ATOM     17 CL   UNL     1       0.964  11.021  21.031  0.00  0.00    +0.000 Cl
ATOM     18  C   UNL     1       0.757   8.396  21.534  0.00  0.00    +0.000 A 
ATOM     19  C   UNL     1       0.914   7.051  21.207  0.00  0.00    +0.000 A 
ENDBRANCH  11  13
BRANCH   1  23
ATOM     20  C   UNL     1       7.991   6.732  18.574  0.00  0.00    +0.000 A 
ATOM     21  C   UNL     1       7.455   6.781  17.307  0.00  0.00    +0.000 A 
ATOM     22  C   UNL     1       6.659   5.720  16.881  0.00  0.00    +0.000 A 
ATOM     23  C   UNL     1       6.378   4.677  17.761  0.00  0.00    +0.000 A 
ATOM     24  N   UNL     1       6.991   4.638  18.971  0.00  0.00    +0.000 NA
ATOM     25  N   UNL     1       7.809   5.676  19.382  0.00  0.00    +0.000 NA
BRANCH  20  26
ATOM     26  O   UNL     1       8.705   7.782  19.078  0.00  0.00    +0.000 OA
ATOM     27  H   UNL     1       8.137   8.277  19.686  0.00  0.00    +0.000 HD
ENDBRANCH  20  26
ENDBRANCH   1  23
TORSDOF 3
ENDMDL
MODEL 3
REMARK VINA RESULT:      -8.1      5.119      8.401
REMARK  Name = 
REMARK  3 active torsions:
REMARK  status: ('A' for Active; 'I' for Inactive)
REMARK    1  A    between atoms: O_1  and  C_2
REMARK    2  A    between atoms: C_5  and  C_6
REMARK    3  A    between atoms: C_16  and  C_17
REMARK                            x       y       z     vdW  Elec       q    Type
REMARK                         _______ _______ _______ _____ _____    ______ ____
ROOT
ATOM      1  C   UNL     1      -1.591  11.436  18.746  0.00  0.00    +0.000 A 
ATOM      2  C   UNL     1      -0.268  11.552  18.283  0.00  0.00    +0.000 A 
ATOM      3  C   UNL     1       0.714  10.798  18.926  0.00  0.00    +0.000 A 
ATOM      4  C   UNL     1       0.366  10.234  20.130  0.00  0.00    +0.000 A 
ATOM      5  C   UNL     1      -0.591  10.962  20.823  0.00  0.00    +0.000 A 
ATOM      6  C   UNL     1      -1.714  11.386  20.135  0.00  0.00    +0.000 A 
ATOM      7  C   UNL     1      -0.329  11.212  22.302  0.00  0.00    +0.000 C 
ATOM      8  N   UNL     1       0.387  10.103  22.969  0.00  0.00    +0.000 NA
ATOM      9  C   UNL     1      -0.478   8.912  22.935  0.00  0.00    +0.000 C 
ATOM     10  C   UNL     1      -0.350   8.315  21.539  0.00  0.00    +0.000 C 
ATOM     11  C   UNL     1       0.921   9.020  20.905  0.00  0.00    +0.000 C 
ATOM     12  C   UNL     1       1.562   9.712  22.133  0.00  0.00    +0.000 C 
ENDROOT
BRANCH  11  13
ATOM     13  C   UNL     1       1.680   7.824  20.297  0.00  0.00    +0.000 A 
ATOM     14  C   UNL     1       2.238   7.809  19.004  0.00  0.00    +0.000 A 
ATOM     15  C   UNL     1       2.612   6.589  18.397  0.00  0.00    +0.000 A 
ATOM     16  C   UNL     1       2.424   5.370  19.054  0.00  0.00    +0.000 A 
ATOM     17 CL   UNL     1       2.803   3.879  18.284  0.00  0.00    +0.000 Cl
ATOM     18  C   UNL     1       1.862   5.353  20.316  0.00  0.00    +0.000 A 
ATOM     19  C   UNL     1       1.500   6.556  20.915  0.00  0.00    +0.000 A 
ENDBRANCH  11  13
BRANCH   1  23
ATOM     20  C   UNL     1      -3.754  10.386  15.390  0.00  0.00    +0.000 A 
ATOM     21  C   UNL     1      -4.344  11.284  16.251  0.00  0.00    +0.000 A 
ATOM     22  C   UNL     1      -3.762  11.487  17.500  0.00  0.00    +0.000 A 
ATOM     23  C   UNL     1      -2.576  10.830  17.819  0.00  0.00    +0.000 A 
ATOM     24  N   UNL     1      -2.076   9.899  16.968  0.00  0.00    +0.000 NA
ATOM     25  N   UNL     1      -2.673   9.673  15.739  0.00  0.00    +0.000 NA
BRANCH  20  26
ATOM     26  O   UNL     1      -4.229  10.212  14.121  0.00  0.00    +0.000 OA
ATOM     27  H   UNL     1      -3.532  10.459  13.496  0.00  0.00    +0.000 HD
ENDBRANCH  20  26
ENDBRANCH   1  23
TORSDOF 3
ENDMDL
MODEL 4
REMARK VINA RESULT:      -8.0      8.269     11.966
REMARK  Name = 
REMARK  3 active torsions:
REMARK  status: ('A' for Active; 'I' for Inactive)
REMARK    1  A    between atoms: O_1  and  C_2
REMARK    2  A    between atoms: C_5  and  C_6
REMARK    3  A    between atoms: C_16  and  C_17
REMARK                            x       y       z     vdW  Elec       q    Type
REMARK                         _______ _______ _______ _____ _____    ______ ____
ROOT
ATOM      1  C   UNL     1      -6.447  13.017  20.711  0.00  0.00    +0.000 A 
ATOM      2  C   UNL     1      -5.408  13.393  19.841  0.00  0.00    +0.000 A 
ATOM      3  C   UNL     1      -4.111  13.424  20.352  0.00  0.00    +0.000 A 
ATOM      4  C   UNL     1      -3.988  13.368  21.721  0.00  0.00    +0.000 A 
ATOM      5  C   UNL     1      -5.071  13.919  22.393  0.00  0.00    +0.000 A 
ATOM      6  C   UNL     1      -6.343  13.546  21.997  0.00  0.00    +0.000 A 
ATOM      7  C   UNL     1      -4.758  14.875  23.536  0.00  0.00    +0.000 C 
ATOM      8  N   UNL     1      -3.523  14.528  24.274  0.00  0.00    +0.000 NA
ATOM      9  C   UNL     1      -3.727  13.221  24.921  0.00  0.00    +0.000 C 
ATOM     10  C   UNL     1      -3.526  12.162  23.844  0.00  0.00    +0.000 C 
ATOM     11  C   UNL     1      -2.831  12.925  22.641  0.00  0.00    +0.000 C 
ATOM     12  C   UNL     1      -2.428  14.270  23.291  0.00  0.00    +0.000 C 
ENDROOT
BRANCH  11  13
ATOM     13  C   UNL     1      -1.691  11.957  22.264  0.00  0.00    +0.000 A 
ATOM     14  C   UNL     1      -1.223  11.751  20.952  0.00  0.00    +0.000 A 
ATOM     15  C   UNL     1      -0.428  10.624  20.642  0.00  0.00    +0.000 A 
ATOM     16  C   UNL     1      -0.102   9.681  21.620  0.00  0.00    +0.000 A 
ATOM     17 CL   UNL     1       0.796   8.267  21.225  0.00  0.00    +0.000 Cl
ATOM     18  C   UNL     1      -0.563   9.848  22.911  0.00  0.00    +0.000 A 
ATOM     19  C   UNL     1      -1.340  10.962  23.217  0.00  0.00    +0.000 A 
ENDBRANCH  11  13
BRANCH   1  23
ATOM     20  C   UNL     1      -7.431   9.028  20.301  0.00  0.00    +0.000 A 
ATOM     21  C   UNL     1      -7.055   9.694  19.156  0.00  0.00    +0.000 A 
ATOM     22  C   UNL     1      -6.942  11.081  19.202  0.00  0.00    +0.000 A 
ATOM     23  C   UNL     1      -7.150  11.748  20.408  0.00  0.00    +0.000 A 
ATOM     24  N   UNL     1      -7.592  11.055  21.488  0.00  0.00    +0.000 NA
ATOM     25  N   UNL     1      -7.737   9.679  21.433  0.00  0.00    +0.000 NA
BRANCH  20  26
ATOM     26  O   UNL     1      -7.473   7.663  20.340  0.00  0.00    +0.000 OA
ATOM     27  H   UNL     1      -7.902   7.393  21.165  0.00  0.00    +0.000 HD
ENDBRANCH  20  26
ENDBRANCH   1  23
TORSDOF 3
ENDMDL
MODEL 5
REMARK VINA RESULT:      -7.7      5.116      8.252
REMARK  Name = 
REMARK  3 active torsions:
REMARK  status: ('A' for Active; 'I' for Inactive)
REMARK    1  A    between atoms: O_1  and  C_2
REMARK    2  A    between atoms: C_5  and  C_6
REMARK    3  A    between atoms: C_16  and  C_17
REMARK                            x       y       z     vdW  Elec       q    Type
REMARK                         _______ _______ _______ _____ _____    ______ ____
ROOT
ATOM      1  C   UNL     1      -1.288  11.236  18.547  0.00  0.00    +0.000 A 
ATOM      2  C   UNL     1       0.027  11.119  18.062  0.00  0.00    +0.000 A 
ATOM      3  C   UNL     1       0.907  10.293  18.761  0.00  0.00    +0.000 A 
ATOM      4  C   UNL     1       0.509   9.893  20.015  0.00  0.00    +0.000 A 
ATOM      5  C   UNL     1      -0.319  10.810  20.648  0.00  0.00    +0.000 A 
ATOM      6  C   UNL     1      -1.386  11.328  19.935  0.00  0.00    +0.000 A 
ATOM      7  C   UNL     1       0.009  11.150  22.096  0.00  0.00    +0.000 C 
ATOM      8  N   UNL     1       0.576  10.013  22.854  0.00  0.00    +0.000 NA
ATOM      9  C   UNL     1      -0.450   8.960  22.937  0.00  0.00    +0.000 C 
ATOM     10  C   UNL     1      -0.439   8.229  21.600  0.00  0.00    +0.000 C 
ATOM     11  C   UNL     1       0.904   8.686  20.892  0.00  0.00    +0.000 C 
ATOM     12  C   UNL     1       1.664   9.385  22.046  0.00  0.00    +0.000 C 
ENDROOT
BRANCH  11  13
ATOM     13  C   UNL     1       1.472   7.344  20.388  0.00  0.00    +0.000 A 
ATOM     14  C   UNL     1       1.382   6.127  21.093  0.00  0.00    +0.000 A 
ATOM     15  C   UNL     1       2.205   5.033  20.742  0.00  0.00    +0.000 A 
ATOM     16  C   UNL     1       3.136   5.134  19.705  0.00  0.00    +0.000 A 
ATOM     17 CL   UNL     1       4.194   3.830  19.331  0.00  0.00    +0.000 Cl
ATOM     18  C   UNL     1       3.258   6.321  19.009  0.00  0.00    +0.000 A 
ATOM     19  C   UNL     1       2.443   7.397  19.351  0.00  0.00    +0.000 A 
ENDBRANCH  11  13
BRANCH   1  23
ATOM     20  C   UNL     1      -3.767  10.384  15.356  0.00  0.00    +0.000 A 
ATOM     21  C   UNL     1      -4.248  11.267  16.296  0.00  0.00    +0.000 A 
ATOM     22  C   UNL     1      -3.555  11.404  17.496  0.00  0.00    +0.000 A 
ATOM     23  C   UNL     1      -2.369  10.697  17.688  0.00  0.00    +0.000 A 
ATOM     24  N   UNL     1      -1.978   9.783  16.765  0.00  0.00    +0.000 NA
ATOM     25  N   UNL     1      -2.686   9.623  15.585  0.00  0.00    +0.000 NA
BRANCH  20  26
ATOM     26  O   UNL     1      -4.354  10.272  14.128  0.00  0.00    +0.000 OA
ATOM     27  H   UNL     1      -3.737  10.608  13.461  0.00  0.00    +0.000 HD
ENDBRANCH  20  26
ENDBRANCH   1  23
TORSDOF 3
ENDMDL
MODEL 6
REMARK VINA RESULT:      -7.5      1.186      1.360
REMARK  Name = 
REMARK  3 active torsions:
REMARK  status: ('A' for Active; 'I' for Inactive)
REMARK    1  A    between atoms: O_1  and  C_2
REMARK    2  A    between atoms: C_5  and  C_6
REMARK    3  A    between atoms: C_16  and  C_17
REMARK                            x       y       z     vdW  Elec       q    Type
REMARK                         _______ _______ _______ _____ _____    ______ ____
ROOT
ATOM      1  C   UNL     1       3.863   3.222  17.110  0.00  0.00    +0.000 A 
ATOM      2  C   UNL     1       2.781   3.967  16.604  0.00  0.00    +0.000 A 
ATOM      3  C   UNL     1       1.943   4.600  17.521  0.00  0.00    +0.000 A 
ATOM      4  C   UNL     1       2.064   4.213  18.835  0.00  0.00    +0.000 A 
ATOM      5  C   UNL     1       2.478   2.896  18.984  0.00  0.00    +0.000 A 
ATOM      6  C   UNL     1       3.562   2.463  18.241  0.00  0.00    +0.000 A 
ATOM      7  C   UNL     1       1.708   2.041  19.983  0.00  0.00    +0.000 C 
ATOM      8  N   UNL     1       1.213   2.803  21.152  0.00  0.00    +0.000 NA
ATOM      9  C   UNL     1       2.378   3.301  21.901  0.00  0.00    +0.000 C 
ATOM     10  C   UNL     1       2.882   4.534  21.160  0.00  0.00    +0.000 C 
ATOM     11  C   UNL     1       1.714   4.920  20.161  0.00  0.00    +0.000 C 
ATOM     12  C   UNL     1       0.541   4.047  20.670  0.00  0.00    +0.000 C 
ENDROOT
BRANCH  11  13
ATOM     13  C   UNL     1       1.600   6.443  20.376  0.00  0.00    +0.000 A 
ATOM     14  C   UNL     1       0.725   7.054  21.296  0.00  0.00    +0.000 A 
ATOM     15  C   UNL     1       0.432   8.433  21.200  0.00  0.00    +0.000 A 
ATOM     16  C   UNL     1       0.984   9.219  20.186  0.00  0.00    +0.000 A 
ATOM     17 CL   UNL     1       0.562  10.879  20.019  0.00  0.00    +0.000 Cl
ATOM     18  C   UNL     1       1.830   8.643  19.258  0.00  0.00    +0.000 A 
ATOM     19  C   UNL     1       2.124   7.285  19.357  0.00  0.00    +0.000 A 
ENDBRANCH  11  13
BRANCH   1  23
ATOM     20  C   UNL     1       7.129   5.641  16.389  0.00  0.00    +0.000 A 
ATOM     21  C   UNL     1       6.537   5.056  15.292  0.00  0.00    +0.000 A 
ATOM     22  C   UNL     1       5.590   4.058  15.502  0.00  0.00    +0.000 A 
ATOM     23  C   UNL     1       5.223   3.722  16.804  0.00  0.00    +0.000 A 
ATOM     24  N   UNL     1       5.890   4.273  17.850  0.00  0.00    +0.000 NA
ATOM     25  N   UNL     1       6.856   5.242  17.640  0.00  0.00    +0.000 NA
BRANCH  20  26
ATOM     26  O   UNL     1       7.999   6.685  16.247  0.00  0.00    +0.000 OA
ATOM     27  H   UNL     1       8.817   6.351  15.848  0.00  0.00    +0.000 HD
ENDBRANCH  20  26
ENDBRANCH   1  23
TORSDOF 3
ENDMDL
MODEL 7
REMARK VINA RESULT:      -7.5      6.416     10.464
REMARK  Name = 
REMARK  3 active torsions:
REMARK  status: ('A' for Active; 'I' for Inactive)
REMARK    1  A    between atoms: O_1  and  C_2
REMARK    2  A    between atoms: C_5  and  C_6
REMARK    3  A    between atoms: C_16  and  C_17
REMARK                            x       y       z     vdW  Elec       q    Type
REMARK                         _______ _______ _______ _____ _____    ______ ____
ROOT
ATOM      1  C   UNL     1      -3.126  13.051  20.449  0.00  0.00    +0.000 A 
ATOM      2  C   UNL     1      -3.220  12.233  19.308  0.00  0.00    +0.000 A 
ATOM      3  C   UNL     1      -2.049  11.642  18.833  0.00  0.00    +0.000 A 
ATOM      4  C   UNL     1      -0.866  12.132  19.335  0.00  0.00    +0.000 A 
ATOM      5  C   UNL     1      -0.935  13.469  19.700  0.00  0.00    +0.000 A 
ATOM      6  C   UNL     1      -2.006  13.882  20.473  0.00  0.00    +0.000 A 
ATOM      7  C   UNL     1       0.201  14.370  19.233  0.00  0.00    +0.000 C 
ATOM      8  N   UNL     1       1.510  13.682  19.170  0.00  0.00    +0.000 NA
ATOM      9  C   UNL     1       1.884  13.282  20.537  0.00  0.00    +0.000 C 
ATOM     10  C   UNL     1       1.098  12.015  20.854  0.00  0.00    +0.000 C 
ATOM     11  C   UNL     1       0.543  11.515  19.456  0.00  0.00    +0.000 C 
ATOM     12  C   UNL     1       1.341  12.383  18.453  0.00  0.00    +0.000 C 
ENDROOT
BRANCH  11  13
ATOM     13  C   UNL     1       0.875  10.009  19.500  0.00  0.00    +0.000 A 
ATOM     14  C   UNL     1       0.903   9.235  20.677  0.00  0.00    +0.000 A 
ATOM     15  C   UNL     1       1.535   7.970  20.689  0.00  0.00    +0.000 A 
ATOM     16  C   UNL     1       2.160   7.466  19.546  0.00  0.00    +0.000 A 
ATOM     17 CL   UNL     1       3.000   5.965  19.582  0.00  0.00    +0.000 Cl
ATOM     18  C   UNL     1       2.164   8.212  18.383  0.00  0.00    +0.000 A 
ATOM     19  C   UNL     1       1.535   9.455  18.370  0.00  0.00    +0.000 A 
ENDBRANCH  11  13
BRANCH   1  23
ATOM     20  C   UNL     1      -5.475  12.803  23.835  0.00  0.00    +0.000 A 
ATOM     21  C   UNL     1      -4.120  12.947  24.031  0.00  0.00    +0.000 A 
ATOM     22  C   UNL     1      -3.272  12.801  22.936  0.00  0.00    +0.000 A 
ATOM     23  C   UNL     1      -3.814  12.576  21.672  0.00  0.00    +0.000 A 
ATOM     24  N   UNL     1      -5.149  12.366  21.545  0.00  0.00    +0.000 NA
ATOM     25  N   UNL     1      -5.990  12.479  22.639  0.00  0.00    +0.000 NA
BRANCH  20  26
ATOM     26  O   UNL     1      -6.360  13.022  24.852  0.00  0.00    +0.000 OA
ATOM     27  H   UNL     1      -6.826  12.194  25.038  0.00  0.00    +0.000 HD
ENDBRANCH  20  26
ENDBRANCH   1  23
TORSDOF 3
ENDMDL
MODEL 8
REMARK VINA RESULT:      -7.3      8.065     11.776
REMARK  Name = 
REMARK  3 active torsions:
REMARK  status: ('A' for Active; 'I' for Inactive)
REMARK    1  A    between atoms: O_1  and  C_2
REMARK    2  A    between atoms: C_5  and  C_6
REMARK    3  A    between atoms: C_16  and  C_17
REMARK                            x       y       z     vdW  Elec       q    Type
REMARK                         _______ _______ _______ _____ _____    ______ ____
ROOT
ATOM      1  C   UNL     1      -6.322  12.503  19.727  0.00  0.00    +0.000 A 
ATOM      2  C   UNL     1      -5.334  12.418  18.728  0.00  0.00    +0.000 A 
ATOM      3  C   UNL     1      -4.002  12.548  19.119  0.00  0.00    +0.000 A 
ATOM      4  C   UNL     1      -3.777  13.033  20.386  0.00  0.00    +0.000 A 
ATOM      5  C   UNL     1      -4.774  13.889  20.833  0.00  0.00    +0.000 A 
ATOM      6  C   UNL     1      -6.091  13.491  20.684  0.00  0.00    +0.000 A 
ATOM      7  C   UNL     1      -4.325  15.193  21.477  0.00  0.00    +0.000 C 
ATOM      8  N   UNL     1      -3.057  15.072  22.230  0.00  0.00    +0.000 NA
ATOM      9  C   UNL     1      -3.279  14.152  23.357  0.00  0.00    +0.000 C 
ATOM     10  C   UNL     1      -3.216  12.739  22.790  0.00  0.00    +0.000 C 
ATOM     11  C   UNL     1      -2.578  12.902  21.348  0.00  0.00    +0.000 C 
ATOM     12  C   UNL     1      -2.055  14.359  21.381  0.00  0.00    +0.000 C 
ENDROOT
BRANCH  11  13
ATOM     13  C   UNL     1      -1.522  11.778  21.337  0.00  0.00    +0.000 A 
ATOM     14  C   UNL     1      -1.031  11.159  20.171  0.00  0.00    +0.000 A 
ATOM     15  C   UNL     1      -0.337   9.930  20.249  0.00  0.00    +0.000 A 
ATOM     16  C   UNL     1      -0.136   9.292  21.476  0.00  0.00    +0.000 A 
ATOM     17 CL   UNL     1       0.637   7.757  21.562  0.00  0.00    +0.000 Cl
ATOM     18  C   UNL     1      -0.622   9.867  22.633  0.00  0.00    +0.000 A 
ATOM     19  C   UNL     1      -1.301  11.081  22.557  0.00  0.00    +0.000 A 
ENDBRANCH  11  13
BRANCH   1  23
ATOM     20  C   UNL     1      -7.610   8.847  21.147  0.00  0.00    +0.000 A 
ATOM     21  C   UNL     1      -7.128   8.876  19.858  0.00  0.00    +0.000 A 
ATOM     22  C   UNL     1      -6.903  10.113  19.260  0.00  0.00    +0.000 A 
ATOM     23  C   UNL     1      -7.112  11.279  19.995  0.00  0.00    +0.000 A 
ATOM     24  N   UNL     1      -7.660  11.199  21.234  0.00  0.00    +0.000 NA
ATOM     25  N   UNL     1      -7.914   9.969  21.817  0.00  0.00    +0.000 NA
BRANCH  20  26
ATOM     26  O   UNL     1      -7.766   7.665  21.815  0.00  0.00    +0.000 OA
ATOM     27  H   UNL     1      -7.706   6.941  21.175  0.00  0.00    +0.000 HD
ENDBRANCH  20  26
ENDBRANCH   1  23
TORSDOF 3
ENDMDL
MODEL 9
REMARK VINA RESULT:      -7.2      3.198      6.321
REMARK  Name = 
REMARK  3 active torsions:
REMARK  status: ('A' for Active; 'I' for Inactive)
REMARK    1  A    between atoms: O_1  and  C_2
REMARK    2  A    between atoms: C_5  and  C_6
REMARK    3  A    between atoms: C_16  and  C_17
REMARK                            x       y       z     vdW  Elec       q    Type
REMARK                         _______ _______ _______ _____ _____    ______ ____
ROOT
ATOM      1  C   UNL     1       2.868   4.941  19.027  0.00  0.00    +0.000 A 
ATOM      2  C   UNL     1       3.944   4.677  19.895  0.00  0.00    +0.000 A 
ATOM      3  C   UNL     1       5.235   4.870  19.405  0.00  0.00    +0.000 A 
ATOM      4  C   UNL     1       5.362   5.018  18.044  0.00  0.00    +0.000 A 
ATOM      5  C   UNL     1       4.381   4.349  17.325  0.00  0.00    +0.000 A 
ATOM      6  C   UNL     1       3.063   4.504  17.717  0.00  0.00    +0.000 A 
ATOM      7  C   UNL     1       4.845   3.515  16.138  0.00  0.00    +0.000 C 
ATOM      8  N   UNL     1       6.020   4.083  15.442  0.00  0.00    +0.000 NA
ATOM      9  C   UNL     1       5.628   5.378  14.862  0.00  0.00    +0.000 C 
ATOM     10  C   UNL     1       5.657   6.395  15.996  0.00  0.00    +0.000 C 
ATOM     11  C   UNL     1       6.447   5.680  17.170  0.00  0.00    +0.000 C 
ATOM     12  C   UNL     1       7.055   4.448  16.456  0.00  0.00    +0.000 C 
ENDROOT
BRANCH  11  13
ATOM     13  C   UNL     1       7.425   6.785  17.617  0.00  0.00    +0.000 A 
ATOM     14  C   UNL     1       8.212   6.727  18.784  0.00  0.00    +0.000 A 
ATOM     15  C   UNL     1       8.815   7.896  19.302  0.00  0.00    +0.000 A 
ATOM     16  C   UNL     1       8.633   9.135  18.683  0.00  0.00    +0.000 A 
ATOM     17 CL   UNL     1       9.299  10.571  19.359  0.00  0.00    +0.000 Cl
ATOM     18  C   UNL     1       7.852   9.225  17.548  0.00  0.00    +0.000 A 
ATOM     19  C   UNL     1       7.263   8.072  17.035  0.00  0.00    +0.000 A 
ENDBRANCH  11  13
BRANCH   1  23
ATOM     20  C   UNL     1       1.391   8.544  20.399  0.00  0.00    +0.000 A 
ATOM     21  C   UNL     1       1.160   7.439  21.188  0.00  0.00    +0.000 A 
ATOM     22  C   UNL     1       1.430   6.179  20.661  0.00  0.00    +0.000 A 
ATOM     23  C   UNL     1       1.979   6.071  19.385  0.00  0.00    +0.000 A 
ATOM     24  N   UNL     1       2.116   7.183  18.619  0.00  0.00    +0.000 NA
ATOM     25  N   UNL     1       1.816   8.435  19.131  0.00  0.00    +0.000 NA
BRANCH  20  26
ATOM     26  O   UNL     1       1.228   9.807  20.891  0.00  0.00    +0.000 OA
ATOM     27  H   UNL     1       2.074  10.274  20.826  0.00  0.00    +0.000 HD
ENDBRANCH  20  26
ENDBRANCH   1  23
TORSDOF 3
ENDMDL
