MODEL 1
REMARK VINA RESULT:      -7.5      0.000      0.000
REMARK  Name = 
REMARK  12 active torsions:
REMARK  status: ('A' for Active; 'I' for Inactive)
REMARK    1  A    between atoms: C_1  and  C_2
REMARK    2  A    between atoms: C_2  and  C_3
REMARK    3  A    between atoms: C_3  and  C_4
REMARK    4  A    between atoms: C_4  and  C_5
REMARK    5  A    between atoms: C_5  and  C_6
REMARK    6  A    between atoms: N_8  and  C_9
REMARK    7  A    between atoms: C_12  and  S_13
REMARK    8  A    between atoms: S_13  and  O_16
REMARK    9  A    between atoms: O_16  and  C_17
REMARK   10  A    between atoms: C_22  and  C_23
REMARK   11  A    between atoms: C_23  and  C_24
REMARK   12  A    between atoms: C_23  and  C_25
REMARK                            x       y       z     vdW  Elec       q    Type
REMARK                         _______ _______ _______ _____ _____    ______ ____
ROOT
ATOM      1  C   UNL     1       4.739   3.879  16.905  0.00  0.00    +0.000 A 
ATOM      2  C   UNL     1       3.452   3.348  17.029  0.00  0.00    +0.000 A 
ATOM      3  C   UNL     1       2.669   3.635  18.148  0.00  0.00    +0.000 A 
ATOM      4  C   UNL     1       3.177   4.461  19.152  0.00  0.00    +0.000 A 
ATOM      5  C   UNL     1       4.492   4.925  19.088  0.00  0.00    +0.000 A 
ATOM      6  C   UNL     1       5.274   4.624  17.965  0.00  0.00    +0.000 A 
ENDROOT
BRANCH   1   9
ATOM      7  C   UNL     1       5.937   4.727  14.892  0.00  0.00    +0.000 C 
ATOM      8  O   UNL     1       5.714   5.928  15.033  0.00  0.00    +0.000 OA
ATOM      9  N   UNL     1       5.525   3.713  15.744  0.00  0.00    +0.000 N 
ATOM     10  H   UNL     1       5.951   2.803  15.612  0.00  0.00    +0.000 HD
BRANCH   7  11
ATOM     11  C   UNL     1       6.772   4.239  13.726  0.00  0.00    +0.000 C 
BRANCH  11  12
ATOM     12  C   UNL     1       5.986   3.270  12.852  0.00  0.00    +0.000 C 
BRANCH  12  13
ATOM     13  C   UNL     1       5.123   4.005  11.827  0.00  0.00    +0.000 C 
BRANCH  13  15
ATOM     14  C   UNL     1       3.275   3.729  10.130  0.00  0.00    +0.000 C 
ATOM     15  C   UNL     1       4.079   3.062  11.232  0.00  0.00    +0.000 C 
ENDBRANCH  13  15
ENDBRANCH  12  13
ENDBRANCH  11  12
ENDBRANCH   7  11
ENDBRANCH   1   9
BRANCH   4  16
ATOM     16  S   UNL     1       2.124   4.894  20.526  0.00  0.00    +0.000 S 
ATOM     17  O   UNL     1       0.763   4.732  20.047  0.00  0.00    +0.000 OA
ATOM     18  O   UNL     1       2.600   4.142  21.674  0.00  0.00    +0.000 OA
BRANCH  16  19
ATOM     19  O   UNL     1       2.460   6.477  20.751  0.00  0.00    +0.000 OA
BRANCH  19  20
ATOM     20  C   UNL     1       2.010   7.481  19.924  0.00  0.00    +0.000 A 
ATOM     21  C   UNL     1       2.327   7.539  18.561  0.00  0.00    +0.000 A 
ATOM     22  C   UNL     1       1.883   8.589  17.758  0.00  0.00    +0.000 A 
ATOM     23  C   UNL     1       1.101   9.596  18.305  0.00  0.00    +0.000 A 
ATOM     24  C   UNL     1       0.775   9.553  19.659  0.00  0.00    +0.000 A 
ATOM     25  C   UNL     1       1.233   8.513  20.499  0.00  0.00    +0.000 A 
BRANCH  25  26
ATOM     26  C   UNL     1       0.799   8.593  21.960  0.00  0.00    +0.000 C 
ATOM     27  C   UNL     1       1.862   9.305  22.802  0.00  0.00    +0.000 C 
ATOM     28  C   UNL     1      -0.591   9.175  22.223  0.00  0.00    +0.000 C 
ENDBRANCH  25  26
ENDBRANCH  19  20
ENDBRANCH  16  19
ENDBRANCH   4  16
TORSDOF 9
ENDMDL
MODEL 2
REMARK VINA RESULT:      -7.3      3.457      5.210
REMARK  Name = 
REMARK  12 active torsions:
REMARK  status: ('A' for Active; 'I' for Inactive)
REMARK    1  A    between atoms: C_1  and  C_2
REMARK    2  A    between atoms: C_2  and  C_3
REMARK    3  A    between atoms: C_3  and  C_4
REMARK    4  A    between atoms: C_4  and  C_5
REMARK    5  A    between atoms: C_5  and  C_6
REMARK    6  A    between atoms: N_8  and  C_9
REMARK    7  A    between atoms: C_12  and  S_13
REMARK    8  A    between atoms: S_13  and  O_16
REMARK    9  A    between atoms: O_16  and  C_17
REMARK   10  A    between atoms: C_22  and  C_23
REMARK   11  A    between atoms: C_23  and  C_24
REMARK   12  A    between atoms: C_23  and  C_25
REMARK                            x       y       z     vdW  Elec       q    Type
REMARK                         _______ _______ _______ _____ _____    ______ ____
ROOT
ATOM      1  C   UNL     1       2.903   6.902  18.613  0.00  0.00    +0.000 A 
ATOM      2  C   UNL     1       2.520   8.024  17.872  0.00  0.00    +0.000 A 
ATOM      3  C   UNL     1       1.722   9.016  18.444  0.00  0.00    +0.000 A 
ATOM      4  C   UNL     1       1.304   8.885  19.769  0.00  0.00    +0.000 A 
ATOM      5  C   UNL     1       1.600   7.730  20.494  0.00  0.00    +0.000 A 
ATOM      6  C   UNL     1       2.393   6.735  19.908  0.00  0.00    +0.000 A 
ENDROOT
BRANCH   1   9
ATOM      7  C   UNL     1       3.446   4.708  17.565  0.00  0.00    +0.000 C 
ATOM      8  O   UNL     1       2.301   4.296  17.389  0.00  0.00    +0.000 OA
ATOM      9  N   UNL     1       3.799   5.931  18.118  0.00  0.00    +0.000 N 
ATOM     10  H   UNL     1       4.766   6.217  18.015  0.00  0.00    +0.000 HD
BRANCH   7  11
ATOM     11  C   UNL     1       4.632   3.876  17.123  0.00  0.00    +0.000 C 
BRANCH  11  12
ATOM     12  C   UNL     1       5.150   4.331  15.765  0.00  0.00    +0.000 C 
BRANCH  12  13
ATOM     13  C   UNL     1       6.673   4.465  15.756  0.00  0.00    +0.000 C 
BRANCH  13  15
ATOM     14  C   UNL     1       7.385   6.201  17.445  0.00  0.00    +0.000 C 
ATOM     15  C   UNL     1       7.196   4.720  17.169  0.00  0.00    +0.000 C 
ENDBRANCH  13  15
ENDBRANCH  12  13
ENDBRANCH  11  12
ENDBRANCH   7  11
ENDBRANCH   1   9
BRANCH   4  16
ATOM     16  S   UNL     1       0.367  10.211  20.511  0.00  0.00    +0.000 S 
ATOM     17  O   UNL     1      -0.776   9.580  21.147  0.00  0.00    +0.000 OA
ATOM     18  O   UNL     1       1.303  11.005  21.288  0.00  0.00    +0.000 OA
BRANCH  16  19
ATOM     19  O   UNL     1      -0.117  11.079  19.214  0.00  0.00    +0.000 OA
BRANCH  19  20
ATOM     20  C   UNL     1      -1.371  10.986  18.655  0.00  0.00    +0.000 A 
ATOM     21  C   UNL     1      -1.669  10.117  17.598  0.00  0.00    +0.000 A 
ATOM     22  C   UNL     1      -2.943  10.074  17.032  0.00  0.00    +0.000 A 
ATOM     23  C   UNL     1      -3.947  10.893  17.525  0.00  0.00    +0.000 A 
ATOM     24  C   UNL     1      -3.669  11.763  18.578  0.00  0.00    +0.000 A 
ATOM     25  C   UNL     1      -2.381  11.844  19.151  0.00  0.00    +0.000 A 
BRANCH  25  26
ATOM     26  C   UNL     1      -2.219  12.840  20.297  0.00  0.00    +0.000 C 
ATOM     27  C   UNL     1      -1.354  14.027  19.863  0.00  0.00    +0.000 C 
ATOM     28  C   UNL     1      -3.509  13.316  20.968  0.00  0.00    +0.000 C 
ENDBRANCH  25  26
ENDBRANCH  19  20
ENDBRANCH  16  19
ENDBRANCH   4  16
TORSDOF 9
ENDMDL
MODEL 3
REMARK VINA RESULT:      -7.3      5.430      7.452
REMARK  Name = 
REMARK  12 active torsions:
REMARK  status: ('A' for Active; 'I' for Inactive)
REMARK    1  A    between atoms: C_1  and  C_2
REMARK    2  A    between atoms: C_2  and  C_3
REMARK    3  A    between atoms: C_3  and  C_4
REMARK    4  A    between atoms: C_4  and  C_5
REMARK    5  A    between atoms: C_5  and  C_6
REMARK    6  A    between atoms: N_8  and  C_9
REMARK    7  A    between atoms: C_12  and  S_13
REMARK    8  A    between atoms: S_13  and  O_16
REMARK    9  A    between atoms: O_16  and  C_17
REMARK   10  A    between atoms: C_22  and  C_23
REMARK   11  A    between atoms: C_23  and  C_24
REMARK   12  A    between atoms: C_23  and  C_25
REMARK                            x       y       z     vdW  Elec       q    Type
REMARK                         _______ _______ _______ _____ _____    ______ ____
ROOT
ATOM      1  C   UNL     1       7.779   8.198  17.805  0.00  0.00    +0.000 A 
ATOM      2  C   UNL     1       8.196   7.111  18.577  0.00  0.00    +0.000 A 
ATOM      3  C   UNL     1       7.452   5.931  18.604  0.00  0.00    +0.000 A 
ATOM      4  C   UNL     1       6.280   5.837  17.853  0.00  0.00    +0.000 A 
ATOM      5  C   UNL     1       5.800   6.942  17.149  0.00  0.00    +0.000 A 
ATOM      6  C   UNL     1       6.550   8.126  17.135  0.00  0.00    +0.000 A 
ENDROOT
BRANCH   1   9
ATOM      7  C   UNL     1       9.079  10.131  18.686  0.00  0.00    +0.000 C 
ATOM      8  O   UNL     1       8.983   9.890  19.888  0.00  0.00    +0.000 OA
ATOM      9  N   UNL     1       8.553   9.368  17.653  0.00  0.00    +0.000 N 
ATOM     10  H   UNL     1       8.882   9.577  16.718  0.00  0.00    +0.000 HD
BRANCH   7  11
ATOM     11  C   UNL     1       9.868  11.334  18.212  0.00  0.00    +0.000 C 
BRANCH  11  12
ATOM     12  C   UNL     1      10.197  12.270  19.367  0.00  0.00    +0.000 C 
BRANCH  12  13
ATOM     13  C   UNL     1      11.683  12.230  19.723  0.00  0.00    +0.000 C 
BRANCH  13  15
ATOM     14  C   UNL     1      11.464  14.735  19.946  0.00  0.00    +0.000 C 
ATOM     15  C   UNL     1      12.333  13.588  19.461  0.00  0.00    +0.000 C 
ENDBRANCH  13  15
ENDBRANCH  12  13
ENDBRANCH  11  12
ENDBRANCH   7  11
ENDBRANCH   1   9
BRANCH   4  16
ATOM     16  S   UNL     1       5.396   4.286  17.825  0.00  0.00    +0.000 S 
ATOM     17  O   UNL     1       5.790   3.628  16.592  0.00  0.00    +0.000 OA
ATOM     18  O   UNL     1       5.623   3.649  19.111  0.00  0.00    +0.000 OA
BRANCH  16  19
ATOM     19  O   UNL     1       3.836   4.764  17.738  0.00  0.00    +0.000 OA
BRANCH  19  20
ATOM     20  C   UNL     1       2.828   4.233  18.510  0.00  0.00    +0.000 A 
ATOM     21  C   UNL     1       2.423   2.896  18.415  0.00  0.00    +0.000 A 
ATOM     22  C   UNL     1       1.374   2.399  19.189  0.00  0.00    +0.000 A 
ATOM     23  C   UNL     1       0.719   3.234  20.084  0.00  0.00    +0.000 A 
ATOM     24  C   UNL     1       1.111   4.567  20.192  0.00  0.00    +0.000 A 
ATOM     25  C   UNL     1       2.153   5.100  19.402  0.00  0.00    +0.000 A 
BRANCH  25  26
ATOM     26  C   UNL     1       2.475   6.575  19.625  0.00  0.00    +0.000 C 
ATOM     27  C   UNL     1       2.355   7.359  18.315  0.00  0.00    +0.000 C 
ATOM     28  C   UNL     1       1.713   7.271  20.755  0.00  0.00    +0.000 C 
ENDBRANCH  25  26
ENDBRANCH  19  20
ENDBRANCH  16  19
ENDBRANCH   4  16
TORSDOF 9
ENDMDL
MODEL 4
REMARK VINA RESULT:      -7.3      2.619      3.766
REMARK  Name = 
REMARK  12 active torsions:
REMARK  status: ('A' for Active; 'I' for Inactive)
REMARK    1  A    between atoms: C_1  and  C_2
REMARK    2  A    between atoms: C_2  and  C_3
REMARK    3  A    between atoms: C_3  and  C_4
REMARK    4  A    between atoms: C_4  and  C_5
REMARK    5  A    between atoms: C_5  and  C_6
REMARK    6  A    between atoms: N_8  and  C_9
REMARK    7  A    between atoms: C_12  and  S_13
REMARK    8  A    between atoms: S_13  and  O_16
REMARK    9  A    between atoms: O_16  and  C_17
REMARK   10  A    between atoms: C_22  and  C_23
REMARK   11  A    between atoms: C_23  and  C_24
REMARK   12  A    between atoms: C_23  and  C_25
REMARK                            x       y       z     vdW  Elec       q    Type
REMARK                         _______ _______ _______ _____ _____    ______ ____
ROOT
ATOM      1  C   UNL     1       3.336   6.101  18.454  0.00  0.00    +0.000 A 
ATOM      2  C   UNL     1       2.954   7.382  18.050  0.00  0.00    +0.000 A 
ATOM      3  C   UNL     1       2.172   8.187  18.880  0.00  0.00    +0.000 A 
ATOM      4  C   UNL     1       1.769   7.705  20.126  0.00  0.00    +0.000 A 
ATOM      5  C   UNL     1       2.063   6.395  20.507  0.00  0.00    +0.000 A 
ATOM      6  C   UNL     1       2.841   5.592  19.663  0.00  0.00    +0.000 A 
ENDROOT
BRANCH   1   9
ATOM      7  C   UNL     1       5.603   5.319  17.781  0.00  0.00    +0.000 C 
ATOM      8  O   UNL     1       6.275   6.017  18.537  0.00  0.00    +0.000 OA
ATOM      9  N   UNL     1       4.218   5.295  17.703  0.00  0.00    +0.000 N 
ATOM     10  H   UNL     1       3.803   4.531  17.183  0.00  0.00    +0.000 HD
BRANCH   7  11
ATOM     11  C   UNL     1       6.281   4.336  16.848  0.00  0.00    +0.000 C 
BRANCH  11  12
ATOM     12  C   UNL     1       5.474   4.140  15.571  0.00  0.00    +0.000 C 
BRANCH  12  13
ATOM     13  C   UNL     1       6.375   4.065  14.339  0.00  0.00    +0.000 C 
BRANCH  13  15
ATOM     14  C   UNL     1       6.431   3.262  11.946  0.00  0.00    +0.000 C 
ATOM     15  C   UNL     1       5.554   3.727  13.095  0.00  0.00    +0.000 C 
ENDBRANCH  13  15
ENDBRANCH  12  13
ENDBRANCH  11  12
ENDBRANCH   7  11
ENDBRANCH   1   9
BRANCH   4  16
ATOM     16  S   UNL     1       0.852   8.785  21.212  0.00  0.00    +0.000 S 
ATOM     17  O   UNL     1      -0.474   8.204  21.320  0.00  0.00    +0.000 OA
ATOM     18  O   UNL     1       1.672   8.988  22.394  0.00  0.00    +0.000 OA
BRANCH  16  19
ATOM     19  O   UNL     1       0.790  10.180  20.362  0.00  0.00    +0.000 OA
BRANCH  19  20
ATOM     20  C   UNL     1      -0.368  10.708  19.839  0.00  0.00    +0.000 A 
ATOM     21  C   UNL     1      -0.805  10.435  18.537  0.00  0.00    +0.000 A 
ATOM     22  C   UNL     1      -1.966  11.015  18.026  0.00  0.00    +0.000 A 
ATOM     23  C   UNL     1      -2.720  11.869  18.818  0.00  0.00    +0.000 A 
ATOM     24  C   UNL     1      -2.301  12.149  20.117  0.00  0.00    +0.000 A 
ATOM     25  C   UNL     1      -1.115  11.595  20.649  0.00  0.00    +0.000 A 
BRANCH  25  26
ATOM     26  C   UNL     1      -0.778  11.988  22.085  0.00  0.00    +0.000 C 
ATOM     27  C   UNL     1      -0.683  13.511  22.220  0.00  0.00    +0.000 C 
ATOM     28  C   UNL     1      -1.668  11.393  23.177  0.00  0.00    +0.000 C 
ENDBRANCH  25  26
ENDBRANCH  19  20
ENDBRANCH  16  19
ENDBRANCH   4  16
TORSDOF 9
ENDMDL
MODEL 5
REMARK VINA RESULT:      -7.2      3.016      4.242
REMARK  Name = 
REMARK  12 active torsions:
REMARK  status: ('A' for Active; 'I' for Inactive)
REMARK    1  A    between atoms: C_1  and  C_2
REMARK    2  A    between atoms: C_2  and  C_3
REMARK    3  A    between atoms: C_3  and  C_4
REMARK    4  A    between atoms: C_4  and  C_5
REMARK    5  A    between atoms: C_5  and  C_6
REMARK    6  A    between atoms: N_8  and  C_9
REMARK    7  A    between atoms: C_12  and  S_13
REMARK    8  A    between atoms: S_13  and  O_16
REMARK    9  A    between atoms: O_16  and  C_17
REMARK   10  A    between atoms: C_22  and  C_23
REMARK   11  A    between atoms: C_23  and  C_24
REMARK   12  A    between atoms: C_23  and  C_25
REMARK                            x       y       z     vdW  Elec       q    Type
REMARK                         _______ _______ _______ _____ _____    ______ ____
ROOT
ATOM      1  C   UNL     1       2.862   6.447  18.487  0.00  0.00    +0.000 A 
ATOM      2  C   UNL     1       2.473   6.149  19.795  0.00  0.00    +0.000 A 
ATOM      3  C   UNL     1       1.815   7.101  20.576  0.00  0.00    +0.000 A 
ATOM      4  C   UNL     1       1.544   8.362  20.043  0.00  0.00    +0.000 A 
ATOM      5  C   UNL     1       2.007   8.707  18.772  0.00  0.00    +0.000 A 
ATOM      6  C   UNL     1       2.674   7.748  18.000  0.00  0.00    +0.000 A 
ENDROOT
BRANCH   1   9
ATOM      7  C   UNL     1       4.754   5.084  17.610  0.00  0.00    +0.000 C 
ATOM      8  O   UNL     1       5.635   5.474  18.372  0.00  0.00    +0.000 OA
ATOM      9  N   UNL     1       3.426   5.486  17.621  0.00  0.00    +0.000 N 
ATOM     10  H   UNL     1       2.777   4.934  17.071  0.00  0.00    +0.000 HD
BRANCH   7  11
ATOM     11  C   UNL     1       5.062   4.033  16.563  0.00  0.00    +0.000 C 
BRANCH  11  12
ATOM     12  C   UNL     1       6.154   4.505  15.612  0.00  0.00    +0.000 C 
BRANCH  12  13
ATOM     13  C   UNL     1       5.624   4.696  14.191  0.00  0.00    +0.000 C 
BRANCH  13  15
ATOM     14  C   UNL     1       5.260   3.330  12.101  0.00  0.00    +0.000 C 
ATOM     15  C   UNL     1       6.195   3.630  13.258  0.00  0.00    +0.000 C 
ENDBRANCH  13  15
ENDBRANCH  12  13
ENDBRANCH  11  12
ENDBRANCH   7  11
ENDBRANCH   1   9
BRANCH   4  16
ATOM     16  S   UNL     1       0.616   9.530  21.024  0.00  0.00    +0.000 S 
ATOM     17  O   UNL     1      -0.618   8.853  21.382  0.00  0.00    +0.000 OA
ATOM     18  O   UNL     1       1.516  10.025  22.051  0.00  0.00    +0.000 OA
BRANCH  16  19
ATOM     19  O   UNL     1       0.313  10.732  19.959  0.00  0.00    +0.000 OA
BRANCH  19  20
ATOM     20  C   UNL     1      -0.886  10.889  19.302  0.00  0.00    +0.000 A 
ATOM     21  C   UNL     1      -1.212  10.180  18.139  0.00  0.00    +0.000 A 
ATOM     22  C   UNL     1      -2.423  10.389  17.479  0.00  0.00    +0.000 A 
ATOM     23  C   UNL     1      -3.336  11.305  17.981  0.00  0.00    +0.000 A 
ATOM     24  C   UNL     1      -3.028  12.018  19.138  0.00  0.00    +0.000 A 
ATOM     25  C   UNL     1      -1.798  11.843  19.811  0.00  0.00    +0.000 A 
BRANCH  25  26
ATOM     26  C   UNL     1      -1.595  12.689  21.065  0.00  0.00    +0.000 C 
ATOM     27  C   UNL     1      -1.699  14.181  20.732  0.00  0.00    +0.000 C 
ATOM     28  C   UNL     1      -2.465  12.332  22.271  0.00  0.00    +0.000 C 
ENDBRANCH  25  26
ENDBRANCH  19  20
ENDBRANCH  16  19
ENDBRANCH   4  16
TORSDOF 9
ENDMDL
MODEL 6
REMARK VINA RESULT:      -7.1      2.867      4.131
REMARK  Name = 
REMARK  12 active torsions:
REMARK  status: ('A' for Active; 'I' for Inactive)
REMARK    1  A    between atoms: C_1  and  C_2
REMARK    2  A    between atoms: C_2  and  C_3
REMARK    3  A    between atoms: C_3  and  C_4
REMARK    4  A    between atoms: C_4  and  C_5
REMARK    5  A    between atoms: C_5  and  C_6
REMARK    6  A    between atoms: N_8  and  C_9
REMARK    7  A    between atoms: C_12  and  S_13
REMARK    8  A    between atoms: S_13  and  O_16
REMARK    9  A    between atoms: O_16  and  C_17
REMARK   10  A    between atoms: C_22  and  C_23
REMARK   11  A    between atoms: C_23  and  C_24
REMARK   12  A    between atoms: C_23  and  C_25
REMARK                            x       y       z     vdW  Elec       q    Type
REMARK                         _______ _______ _______ _____ _____    ______ ____
ROOT
ATOM      1  C   UNL     1       2.873   6.525  18.484  0.00  0.00    +0.000 A 
ATOM      2  C   UNL     1       2.513   6.067  19.754  0.00  0.00    +0.000 A 
ATOM      3  C   UNL     1       1.835   6.901  20.645  0.00  0.00    +0.000 A 
ATOM      4  C   UNL     1       1.516   8.204  20.262  0.00  0.00    +0.000 A 
ATOM      5  C   UNL     1       1.949   8.707  19.035  0.00  0.00    +0.000 A 
ATOM      6  C   UNL     1       2.636   7.865  18.151  0.00  0.00    +0.000 A 
ENDROOT
BRANCH   1   9
ATOM      7  C   UNL     1       4.776   5.263  17.488  0.00  0.00    +0.000 C 
ATOM      8  O   UNL     1       5.633   5.518  18.332  0.00  0.00    +0.000 OA
ATOM      9  N   UNL     1       3.456   5.688  17.508  0.00  0.00    +0.000 N 
ATOM     10  H   UNL     1       2.821   5.237  16.860  0.00  0.00    +0.000 HD
BRANCH   7  11
ATOM     11  C   UNL     1       5.109   4.370  16.311  0.00  0.00    +0.000 C 
BRANCH  11  12
ATOM     12  C   UNL     1       5.612   5.182  15.125  0.00  0.00    +0.000 C 
BRANCH  12  13
ATOM     13  C   UNL     1       6.625   4.399  14.291  0.00  0.00    +0.000 C 
BRANCH  13  15
ATOM     14  C   UNL     1       6.801   3.499  11.939  0.00  0.00    +0.000 C 
ATOM     15  C   UNL     1       5.920   3.639  13.169  0.00  0.00    +0.000 C 
ENDBRANCH  13  15
ENDBRANCH  12  13
ENDBRANCH  11  12
ENDBRANCH   7  11
ENDBRANCH   1   9
BRANCH   4  16
ATOM     16  S   UNL     1       0.564   9.221  21.379  0.00  0.00    +0.000 S 
ATOM     17  O   UNL     1      -0.701   8.532  21.560  0.00  0.00    +0.000 OA
ATOM     18  O   UNL     1       1.420   9.511  22.517  0.00  0.00    +0.000 OA
BRANCH  16  19
ATOM     19  O   UNL     1       0.344  10.591  20.517  0.00  0.00    +0.000 OA
BRANCH  19  20
ATOM     20  C   UNL     1      -0.831  10.912  19.875  0.00  0.00    +0.000 A 
ATOM     21  C   UNL     1      -1.234  10.301  18.682  0.00  0.00    +0.000 A 
ATOM     22  C   UNL     1      -2.414  10.675  18.039  0.00  0.00    +0.000 A 
ATOM     23  C   UNL     1      -3.220  11.660  18.590  0.00  0.00    +0.000 A 
ATOM     24  C   UNL     1      -2.836  12.276  19.779  0.00  0.00    +0.000 A 
ATOM     25  C   UNL     1      -1.633  11.934  20.436  0.00  0.00    +0.000 A 
BRANCH  25  26
ATOM     26  C   UNL     1      -1.337  12.690  21.729  0.00  0.00    +0.000 C 
ATOM     27  C   UNL     1      -1.609  11.802  22.947  0.00  0.00    +0.000 C 
ATOM     28  C   UNL     1       0.037  13.353  21.827  0.00  0.00    +0.000 C 
ENDBRANCH  25  26
ENDBRANCH  19  20
ENDBRANCH  16  19
ENDBRANCH   4  16
TORSDOF 9
ENDMDL
MODEL 7
REMARK VINA RESULT:      -7.1      2.874      8.064
REMARK  Name = 
REMARK  12 active torsions:
REMARK  status: ('A' for Active; 'I' for Inactive)
REMARK    1  A    between atoms: C_1  and  C_2
REMARK    2  A    between atoms: C_2  and  C_3
REMARK    3  A    between atoms: C_3  and  C_4
REMARK    4  A    between atoms: C_4  and  C_5
REMARK    5  A    between atoms: C_5  and  C_6
REMARK    6  A    between atoms: N_8  and  C_9
REMARK    7  A    between atoms: C_12  and  S_13
REMARK    8  A    between atoms: S_13  and  O_16
REMARK    9  A    between atoms: O_16  and  C_17
REMARK   10  A    between atoms: C_22  and  C_23
REMARK   11  A    between atoms: C_23  and  C_24
REMARK   12  A    between atoms: C_23  and  C_25
REMARK                            x       y       z     vdW  Elec       q    Type
REMARK                         _______ _______ _______ _____ _____    ______ ____
ROOT
ATOM      1  C   UNL     1       1.820   7.247  20.600  0.00  0.00    +0.000 A 
ATOM      2  C   UNL     1       1.645   5.935  21.049  0.00  0.00    +0.000 A 
ATOM      3  C   UNL     1       2.127   4.859  20.304  0.00  0.00    +0.000 A 
ATOM      4  C   UNL     1       2.791   5.095  19.100  0.00  0.00    +0.000 A 
ATOM      5  C   UNL     1       2.894   6.391  18.592  0.00  0.00    +0.000 A 
ATOM      6  C   UNL     1       2.399   7.465  19.342  0.00  0.00    +0.000 A 
ENDROOT
BRANCH   1   9
ATOM      7  C   UNL     1       0.165   8.693  21.773  0.00  0.00    +0.000 C 
ATOM      8  O   UNL     1      -0.849   8.033  21.555  0.00  0.00    +0.000 OA
ATOM      9  N   UNL     1       1.453   8.372  21.369  0.00  0.00    +0.000 N 
ATOM     10  H   UNL     1       2.208   8.899  21.791  0.00  0.00    +0.000 HD
BRANCH   7  11
ATOM     11  C   UNL     1       0.083   9.966  22.590  0.00  0.00    +0.000 C 
BRANCH  11  12
ATOM     12  C   UNL     1      -0.648  11.065  21.830  0.00  0.00    +0.000 C 
BRANCH  12  13
ATOM     13  C   UNL     1      -0.097  11.238  20.415  0.00  0.00    +0.000 C 
BRANCH  13  15
ATOM     14  C   UNL     1      -1.115  12.309  18.369  0.00  0.00    +0.000 C 
ATOM     15  C   UNL     1      -1.229  11.191  19.390  0.00  0.00    +0.000 C 
ENDBRANCH  13  15
ENDBRANCH  12  13
ENDBRANCH  11  12
ENDBRANCH   7  11
ENDBRANCH   1   9
BRANCH   4  16
ATOM     16  S   UNL     1       3.486   3.711  18.213  0.00  0.00    +0.000 S 
ATOM     17  O   UNL     1       3.343   2.565  19.094  0.00  0.00    +0.000 OA
ATOM     18  O   UNL     1       2.881   3.711  16.892  0.00  0.00    +0.000 OA
BRANCH  16  19
ATOM     19  O   UNL     1       5.060   4.126  18.075  0.00  0.00    +0.000 OA
BRANCH  19  20
ATOM     20  C   UNL     1       5.688   4.363  16.874  0.00  0.00    +0.000 A 
ATOM     21  C   UNL     1       5.459   3.586  15.732  0.00  0.00    +0.000 A 
ATOM     22  C   UNL     1       6.139   3.833  14.539  0.00  0.00    +0.000 A 
ATOM     23  C   UNL     1       7.051   4.876  14.466  0.00  0.00    +0.000 A 
ATOM     24  C   UNL     1       7.289   5.661  15.592  0.00  0.00    +0.000 A 
ATOM     25  C   UNL     1       6.633   5.415  16.819  0.00  0.00    +0.000 A 
BRANCH  25  26
ATOM     26  C   UNL     1       6.990   6.353  17.969  0.00  0.00    +0.000 C 
ATOM     27  C   UNL     1       7.881   5.641  18.990  0.00  0.00    +0.000 C 
ATOM     28  C   UNL     1       7.577   7.711  17.578  0.00  0.00    +0.000 C 
ENDBRANCH  25  26
ENDBRANCH  19  20
ENDBRANCH  16  19
ENDBRANCH   4  16
TORSDOF 9
ENDMDL
MODEL 8
REMARK VINA RESULT:      -7.1      2.827      7.586
REMARK  Name = 
REMARK  12 active torsions:
REMARK  status: ('A' for Active; 'I' for Inactive)
REMARK    1  A    between atoms: C_1  and  C_2
REMARK    2  A    between atoms: C_2  and  C_3
REMARK    3  A    between atoms: C_3  and  C_4
REMARK    4  A    between atoms: C_4  and  C_5
REMARK    5  A    between atoms: C_5  and  C_6
REMARK    6  A    between atoms: N_8  and  C_9
REMARK    7  A    between atoms: C_12  and  S_13
REMARK    8  A    between atoms: S_13  and  O_16
REMARK    9  A    between atoms: O_16  and  C_17
REMARK   10  A    between atoms: C_22  and  C_23
REMARK   11  A    between atoms: C_23  and  C_24
REMARK   12  A    between atoms: C_23  and  C_25
REMARK                            x       y       z     vdW  Elec       q    Type
REMARK                         _______ _______ _______ _____ _____    ______ ____
ROOT
ATOM      1  C   UNL     1       2.030   8.128  19.075  0.00  0.00    +0.000 A 
ATOM      2  C   UNL     1       2.746   7.739  17.939  0.00  0.00    +0.000 A 
ATOM      3  C   UNL     1       3.283   6.455  17.842  0.00  0.00    +0.000 A 
ATOM      4  C   UNL     1       3.103   5.551  18.890  0.00  0.00    +0.000 A 
ATOM      5  C   UNL     1       2.471   5.950  20.068  0.00  0.00    +0.000 A 
ATOM      6  C   UNL     1       1.943   7.245  20.160  0.00  0.00    +0.000 A 
ENDROOT
BRANCH   1   9
ATOM      7  C   UNL     1       0.474   9.738  20.166  0.00  0.00    +0.000 C 
ATOM      8  O   UNL     1       0.139   9.052  21.130  0.00  0.00    +0.000 OA
ATOM      9  N   UNL     1       1.372   9.372  19.174  0.00  0.00    +0.000 N 
ATOM     10  H   UNL     1       1.701  10.109  18.561  0.00  0.00    +0.000 HD
BRANCH   7  11
ATOM     11  C   UNL     1      -0.071  11.142  20.004  0.00  0.00    +0.000 C 
BRANCH  11  12
ATOM     12  C   UNL     1      -1.509  11.122  19.503  0.00  0.00    +0.000 C 
BRANCH  12  13
ATOM     13  C   UNL     1      -1.584  11.334  17.991  0.00  0.00    +0.000 C 
BRANCH  13  15
ATOM     14  C   UNL     1      -2.850  10.004  16.259  0.00  0.00    +0.000 C 
ATOM     15  C   UNL     1      -1.716   9.995  17.268  0.00  0.00    +0.000 C 
ENDBRANCH  13  15
ENDBRANCH  12  13
ENDBRANCH  11  12
ENDBRANCH   7  11
ENDBRANCH   1   9
BRANCH   4  16
ATOM     16  S   UNL     1       3.714   3.884  18.703  0.00  0.00    +0.000 S 
ATOM     17  O   UNL     1       3.539   3.252  19.999  0.00  0.00    +0.000 OA
ATOM     18  O   UNL     1       3.079   3.333  17.519  0.00  0.00    +0.000 OA
BRANCH  16  19
ATOM     19  O   UNL     1       5.302   4.115  18.396  0.00  0.00    +0.000 OA
BRANCH  19  20
ATOM     20  C   UNL     1       5.812   4.358  17.141  0.00  0.00    +0.000 A 
ATOM     21  C   UNL     1       5.524   3.548  16.036  0.00  0.00    +0.000 A 
ATOM     22  C   UNL     1       6.086   3.802  14.785  0.00  0.00    +0.000 A 
ATOM     23  C   UNL     1       6.937   4.884  14.616  0.00  0.00    +0.000 A 
ATOM     24  C   UNL     1       7.233   5.702  15.705  0.00  0.00    +0.000 A 
ATOM     25  C   UNL     1       6.697   5.450  16.988  0.00  0.00    +0.000 A 
BRANCH  25  26
ATOM     26  C   UNL     1       7.106   6.427  18.087  0.00  0.00    +0.000 C 
ATOM     27  C   UNL     1       8.004   5.736  19.118  0.00  0.00    +0.000 C 
ATOM     28  C   UNL     1       7.718   7.750  17.624  0.00  0.00    +0.000 C 
ENDBRANCH  25  26
ENDBRANCH  19  20
ENDBRANCH  16  19
ENDBRANCH   4  16
TORSDOF 9
ENDMDL
MODEL 9
REMARK VINA RESULT:      -7.1      3.033      5.277
REMARK  Name = 
REMARK  12 active torsions:
REMARK  status: ('A' for Active; 'I' for Inactive)
REMARK    1  A    between atoms: C_1  and  C_2
REMARK    2  A    between atoms: C_2  and  C_3
REMARK    3  A    between atoms: C_3  and  C_4
REMARK    4  A    between atoms: C_4  and  C_5
REMARK    5  A    between atoms: C_5  and  C_6
REMARK    6  A    between atoms: N_8  and  C_9
REMARK    7  A    between atoms: C_12  and  S_13
REMARK    8  A    between atoms: S_13  and  O_16
REMARK    9  A    between atoms: O_16  and  C_17
REMARK   10  A    between atoms: C_22  and  C_23
REMARK   11  A    between atoms: C_23  and  C_24
REMARK   12  A    between atoms: C_23  and  C_25
REMARK                            x       y       z     vdW  Elec       q    Type
REMARK                         _______ _______ _______ _____ _____    ______ ____
ROOT
ATOM      1  C   UNL     1       2.868   6.828  18.653  0.00  0.00    +0.000 A 
ATOM      2  C   UNL     1       2.334   8.089  18.374  0.00  0.00    +0.000 A 
ATOM      3  C   UNL     1       1.565   8.762  19.324  0.00  0.00    +0.000 A 
ATOM      4  C   UNL     1       1.328   8.169  20.565  0.00  0.00    +0.000 A 
ATOM      5  C   UNL     1       1.776   6.874  20.827  0.00  0.00    +0.000 A 
ATOM      6  C   UNL     1       2.539   6.202  19.863  0.00  0.00    +0.000 A 
ENDROOT
BRANCH   1   9
ATOM      7  C   UNL     1       3.573   4.872  17.281  0.00  0.00    +0.000 C 
ATOM      8  O   UNL     1       2.619   4.131  17.506  0.00  0.00    +0.000 OA
ATOM      9  N   UNL     1       3.744   6.158  17.772  0.00  0.00    +0.000 N 
ATOM     10  H   UNL     1       4.472   6.718  17.343  0.00  0.00    +0.000 HD
BRANCH   7  11
ATOM     11  C   UNL     1       4.683   4.423  16.353  0.00  0.00    +0.000 C 
BRANCH  11  12
ATOM     12  C   UNL     1       5.584   5.588  15.965  0.00  0.00    +0.000 C 
BRANCH  12  13
ATOM     13  C   UNL     1       7.036   5.341  16.373  0.00  0.00    +0.000 C 
BRANCH  13  15
ATOM     14  C   UNL     1       7.548   7.526  17.529  0.00  0.00    +0.000 C 
ATOM     15  C   UNL     1       7.344   6.031  17.701  0.00  0.00    +0.000 C 
ENDBRANCH  13  15
ENDBRANCH  12  13
ENDBRANCH  11  12
ENDBRANCH   7  11
ENDBRANCH   1   9
BRANCH   4  16
ATOM     16  S   UNL     1       0.425   9.088  21.800  0.00  0.00    +0.000 S 
ATOM     17  O   UNL     1      -0.789   8.331  22.047  0.00  0.00    +0.000 OA
ATOM     18  O   UNL     1       1.356   9.371  22.879  0.00  0.00    +0.000 OA
BRANCH  16  19
ATOM     19  O   UNL     1       0.073  10.482  21.024  0.00  0.00    +0.000 OA
BRANCH  19  20
ATOM     20  C   UNL     1      -0.937  11.337  21.404  0.00  0.00    +0.000 A 
ATOM     21  C   UNL     1      -1.242  11.600  22.745  0.00  0.00    +0.000 A 
ATOM     22  C   UNL     1      -2.295  12.446  23.096  0.00  0.00    +0.000 A 
ATOM     23  C   UNL     1      -3.052  13.055  22.106  0.00  0.00    +0.000 A 
ATOM     24  C   UNL     1      -2.760  12.806  20.767  0.00  0.00    +0.000 A 
ATOM     25  C   UNL     1      -1.716  11.934  20.386  0.00  0.00    +0.000 A 
BRANCH  25  26
ATOM     26  C   UNL     1      -1.509  11.755  18.884  0.00  0.00    +0.000 C 
ATOM     27  C   UNL     1      -0.208  12.428  18.434  0.00  0.00    +0.000 C 
ATOM     28  C   UNL     1      -1.599  10.323  18.354  0.00  0.00    +0.000 C 
ENDBRANCH  25  26
ENDBRANCH  19  20
ENDBRANCH  16  19
ENDBRANCH   4  16
TORSDOF 9
ENDMDL
