MODEL 1
REMARK VINA RESULT:      -6.5      0.000      0.000
REMARK  Name = 
REMARK  8 active torsions:
REMARK  status: ('A' for Active; 'I' for Inactive)
REMARK    1  A    between atoms: C_1  and  O_2
REMARK    2  A    between atoms: O_2  and  C_3
REMARK    3  A    between atoms: C_5  and  C_6
REMARK    4  A    between atoms: C_6  and  N_7
REMARK    5  A    between atoms: N_7  and  C_8
REMARK    6  A    between atoms: N_7  and  C_9
REMARK    7  A    between atoms: C_20  and  O_21
REMARK    8  A    between atoms: O_21  and  C_22
REMARK                            x       y       z     vdW  Elec       q    Type
REMARK                         _______ _______ _______ _____ _____    ______ ____
ROOT
ATOM      1  C   UNL     1       6.952   5.016  16.623  0.00  0.00    +0.000 A 
ATOM      2  C   UNL     1       6.322   5.948  17.455  0.00  0.00    +0.000 A 
ATOM      3  C   UNL     1       5.209   6.680  17.008  0.00  0.00    +0.000 A 
ATOM      4  C   UNL     1       4.814   6.565  15.669  0.00  0.00    +0.000 A 
ATOM      5  C   UNL     1       5.454   5.660  14.824  0.00  0.00    +0.000 A 
ATOM      6  C   UNL     1       6.480   4.848  15.313  0.00  0.00    +0.000 A 
ENDROOT
BRANCH   1   8
ATOM      7  C   UNL     1       8.465   4.389  18.354  0.00  0.00    +0.000 C 
ATOM      8  O   UNL     1       8.026   4.259  17.005  0.00  0.00    +0.000 OA
ENDBRANCH   1   8
BRANCH   3   9
ATOM      9  C   UNL     1       4.372   7.465  18.005  0.00  0.00    +0.000 C 
BRANCH   9  10
ATOM     10  N   UNL     1       2.951   7.100  17.839  0.00  0.00    +0.000 N 
ATOM     11  C   UNL     1       2.030   8.241  17.735  0.00  0.00    +0.000 C 
BRANCH  10  12
ATOM     12  C   UNL     1       2.486   6.190  18.808  0.00  0.00    +0.000 A 
ATOM     13  N   UNL     1       2.124   6.621  20.040  0.00  0.00    +0.000 NA
ATOM     14  C   UNL     1       1.636   5.732  20.922  0.00  0.00    +0.000 A 
ATOM     15  N   UNL     1       1.449   4.420  20.751  0.00  0.00    +0.000 NA
ATOM     16  C   UNL     1       1.851   4.011  19.538  0.00  0.00    +0.000 A 
ATOM     17  S   UNL     1       1.712   2.371  19.080  0.00  0.00    +0.000 S 
ATOM     18  C   UNL     1       2.393   2.677  17.542  0.00  0.00    +0.000 A 
ATOM     19  C   UNL     1       2.716   4.007  17.382  0.00  0.00    +0.000 A 
ATOM     20  C   UNL     1       2.376   4.806  18.532  0.00  0.00    +0.000 A 
ENDBRANCH  10  12
ENDBRANCH   9  10
ENDBRANCH   3   9
BRANCH   6  21
ATOM     21  O   UNL     1       6.950   3.917  14.418  0.00  0.00    +0.000 OA
BRANCH  21  22
ATOM     22  C   UNL     1       6.526   4.133  13.076  0.00  0.00    +0.000 C 
ATOM     23  F   UNL     1       7.510   4.726  12.353  0.00  0.00    +0.000 F 
ATOM     24  F   UNL     1       6.340   2.906  12.517  0.00  0.00    +0.000 F 
ENDBRANCH  21  22
ENDBRANCH   6  21
TORSDOF 6
ENDMDL
MODEL 2
REMARK VINA RESULT:      -6.4      4.883      6.574
REMARK  Name = 
REMARK  8 active torsions:
REMARK  status: ('A' for Active; 'I' for Inactive)
REMARK    1  A    between atoms: C_1  and  O_2
REMARK    2  A    between atoms: O_2  and  C_3
REMARK    3  A    between atoms: C_5  and  C_6
REMARK    4  A    between atoms: C_6  and  N_7
REMARK    5  A    between atoms: N_7  and  C_8
REMARK    6  A    between atoms: N_7  and  C_9
REMARK    7  A    between atoms: C_20  and  O_21
REMARK    8  A    between atoms: O_21  and  C_22
REMARK                            x       y       z     vdW  Elec       q    Type
REMARK                         _______ _______ _______ _____ _____    ______ ____
ROOT
ATOM      1  C   UNL     1       2.609   6.568  19.630  0.00  0.00    +0.000 A 
ATOM      2  C   UNL     1       1.822   7.467  20.358  0.00  0.00    +0.000 A 
ATOM      3  C   UNL     1       1.364   8.662  19.776  0.00  0.00    +0.000 A 
ATOM      4  C   UNL     1       1.816   9.011  18.497  0.00  0.00    +0.000 A 
ATOM      5  C   UNL     1       2.623   8.134  17.774  0.00  0.00    +0.000 A 
ATOM      6  C   UNL     1       2.972   6.893  18.315  0.00  0.00    +0.000 A 
ENDROOT
BRANCH   1   8
ATOM      7  C   UNL     1       2.170   4.627  20.941  0.00  0.00    +0.000 C 
ATOM      8  O   UNL     1       3.068   5.381  20.132  0.00  0.00    +0.000 OA
ENDBRANCH   1   8
BRANCH   3   9
ATOM      9  C   UNL     1       0.288   9.477  20.474  0.00  0.00    +0.000 C 
BRANCH   9  10
ATOM     10  N   UNL     1       0.196  10.806  19.836  0.00  0.00    +0.000 N 
ATOM     11  C   UNL     1       0.972  11.864  20.499  0.00  0.00    +0.000 C 
BRANCH  10  12
ATOM     12  C   UNL     1      -1.128  11.239  19.625  0.00  0.00    +0.000 A 
ATOM     13  N   UNL     1      -1.750  12.023  20.537  0.00  0.00    +0.000 NA
ATOM     14  C   UNL     1      -2.994  12.460  20.278  0.00  0.00    +0.000 A 
ATOM     15  N   UNL     1      -3.744  12.217  19.198  0.00  0.00    +0.000 NA
ATOM     16  C   UNL     1      -3.121  11.408  18.328  0.00  0.00    +0.000 A 
ATOM     17  S   UNL     1      -3.877  10.953  16.865  0.00  0.00    +0.000 S 
ATOM     18  C   UNL     1      -2.538   9.999  16.396  0.00  0.00    +0.000 A 
ATOM     19  C   UNL     1      -1.533  10.032  17.337  0.00  0.00    +0.000 A 
ATOM     20  C   UNL     1      -1.847  10.877  18.461  0.00  0.00    +0.000 A 
ENDBRANCH  10  12
ENDBRANCH   9  10
ENDBRANCH   3   9
BRANCH   6  21
ATOM     21  O   UNL     1       3.670   6.073  17.463  0.00  0.00    +0.000 OA
BRANCH  21  22
ATOM     22  C   UNL     1       4.742   6.717  16.781  0.00  0.00    +0.000 C 
ATOM     23  F   UNL     1       5.891   6.620  17.497  0.00  0.00    +0.000 F 
ATOM     24  F   UNL     1       4.958   6.017  15.633  0.00  0.00    +0.000 F 
ENDBRANCH  21  22
ENDBRANCH   6  21
TORSDOF 6
ENDMDL
MODEL 3
REMARK VINA RESULT:      -6.2      2.440      3.744
REMARK  Name = 
REMARK  8 active torsions:
REMARK  status: ('A' for Active; 'I' for Inactive)
REMARK    1  A    between atoms: C_1  and  O_2
REMARK    2  A    between atoms: O_2  and  C_3
REMARK    3  A    between atoms: C_5  and  C_6
REMARK    4  A    between atoms: C_6  and  N_7
REMARK    5  A    between atoms: N_7  and  C_8
REMARK    6  A    between atoms: N_7  and  C_9
REMARK    7  A    between atoms: C_20  and  O_21
REMARK    8  A    between atoms: O_21  and  C_22
REMARK                            x       y       z     vdW  Elec       q    Type
REMARK                         _______ _______ _______ _____ _____    ______ ____
ROOT
ATOM      1  C   UNL     1       6.618   6.159  16.976  0.00  0.00    +0.000 A 
ATOM      2  C   UNL     1       5.683   6.387  17.992  0.00  0.00    +0.000 A 
ATOM      3  C   UNL     1       4.690   5.438  18.286  0.00  0.00    +0.000 A 
ATOM      4  C   UNL     1       4.559   4.313  17.461  0.00  0.00    +0.000 A 
ATOM      5  C   UNL     1       5.470   4.091  16.429  0.00  0.00    +0.000 A 
ATOM      6  C   UNL     1       6.528   4.979  16.223  0.00  0.00    +0.000 A 
ENDROOT
BRANCH   1   8
ATOM      7  C   UNL     1       7.799   8.159  17.510  0.00  0.00    +0.000 C 
ATOM      8  O   UNL     1       7.621   7.033  16.656  0.00  0.00    +0.000 OA
ENDBRANCH   1   8
BRANCH   3   9
ATOM      9  C   UNL     1       3.874   5.570  19.561  0.00  0.00    +0.000 C 
BRANCH   9  10
ATOM     10  N   UNL     1       2.467   5.851  19.210  0.00  0.00    +0.000 N 
ATOM     11  C   UNL     1       1.937   5.051  18.097  0.00  0.00    +0.000 C 
BRANCH  10  12
ATOM     12  C   UNL     1       2.203   7.217  18.992  0.00  0.00    +0.000 A 
ATOM     13  N   UNL     1       2.485   7.790  17.797  0.00  0.00    +0.000 NA
ATOM     14  C   UNL     1       2.172   9.083  17.607  0.00  0.00    +0.000 A 
ATOM     15  N   UNL     1       1.597   9.927  18.469  0.00  0.00    +0.000 NA
ATOM     16  C   UNL     1       1.364   9.348  19.656  0.00  0.00    +0.000 A 
ATOM     17  S   UNL     1       0.631  10.224  20.926  0.00  0.00    +0.000 S 
ATOM     18  C   UNL     1       0.702   8.880  21.981  0.00  0.00    +0.000 A 
ATOM     19  C   UNL     1       1.270   7.783  21.371  0.00  0.00    +0.000 A 
ATOM     20  C   UNL     1       1.636   8.032  19.999  0.00  0.00    +0.000 A 
ENDBRANCH  10  12
ENDBRANCH   9  10
ENDBRANCH   3   9
BRANCH   6  21
ATOM     21  O   UNL     1       7.422   4.590  15.255  0.00  0.00    +0.000 OA
BRANCH  21  22
ATOM     22  C   UNL     1       6.983   4.838  13.923  0.00  0.00    +0.000 C 
ATOM     23  F   UNL     1       7.986   5.373  13.181  0.00  0.00    +0.000 F 
ATOM     24  F   UNL     1       6.711   3.627  13.364  0.00  0.00    +0.000 F 
ENDBRANCH  21  22
ENDBRANCH   6  21
TORSDOF 6
ENDMDL
MODEL 4
REMARK VINA RESULT:      -6.2      5.034      7.011
REMARK  Name = 
REMARK  8 active torsions:
REMARK  status: ('A' for Active; 'I' for Inactive)
REMARK    1  A    between atoms: C_1  and  O_2
REMARK    2  A    between atoms: O_2  and  C_3
REMARK    3  A    between atoms: C_5  and  C_6
REMARK    4  A    between atoms: C_6  and  N_7
REMARK    5  A    between atoms: N_7  and  C_8
REMARK    6  A    between atoms: N_7  and  C_9
REMARK    7  A    between atoms: C_20  and  O_21
REMARK    8  A    between atoms: O_21  and  C_22
REMARK                            x       y       z     vdW  Elec       q    Type
REMARK                         _______ _______ _______ _____ _____    ______ ____
ROOT
ATOM      1  C   UNL     1       2.518   7.554  18.647  0.00  0.00    +0.000 A 
ATOM      2  C   UNL     1       2.920   6.338  18.082  0.00  0.00    +0.000 A 
ATOM      3  C   UNL     1       2.676   5.121  18.739  0.00  0.00    +0.000 A 
ATOM      4  C   UNL     1       2.143   5.143  20.035  0.00  0.00    +0.000 A 
ATOM      5  C   UNL     1       1.765   6.351  20.617  0.00  0.00    +0.000 A 
ATOM      6  C   UNL     1       1.899   7.546  19.905  0.00  0.00    +0.000 A 
ENDROOT
BRANCH   1   8
ATOM      7  C   UNL     1       1.542   9.509  17.697  0.00  0.00    +0.000 C 
ATOM      8  O   UNL     1       2.707   8.769  18.048  0.00  0.00    +0.000 OA
ENDBRANCH   1   8
BRANCH   3   9
ATOM      9  C   UNL     1       2.857   3.810  17.992  0.00  0.00    +0.000 C 
BRANCH   9  10
ATOM     10  N   UNL     1       4.152   3.209  18.373  0.00  0.00    +0.000 N 
ATOM     11  C   UNL     1       4.246   2.788  19.778  0.00  0.00    +0.000 C 
BRANCH  10  12
ATOM     12  C   UNL     1       5.263   4.003  18.031  0.00  0.00    +0.000 A 
ATOM     13  N   UNL     1       6.009   4.595  18.994  0.00  0.00    +0.000 NA
ATOM     14  C   UNL     1       7.094   5.302  18.633  0.00  0.00    +0.000 A 
ATOM     15  N   UNL     1       7.563   5.519  17.401  0.00  0.00    +0.000 NA
ATOM     16  C   UNL     1       6.786   4.956  16.463  0.00  0.00    +0.000 A 
ATOM     17  S   UNL     1       7.180   5.092  14.807  0.00  0.00    +0.000 S 
ATOM     18  C   UNL     1       5.805   4.191  14.340  0.00  0.00    +0.000 A 
ATOM     19  C   UNL     1       5.063   3.791  15.430  0.00  0.00    +0.000 A 
ATOM     20  C   UNL     1       5.641   4.206  16.683  0.00  0.00    +0.000 A 
ENDBRANCH  10  12
ENDBRANCH   9  10
ENDBRANCH   3   9
BRANCH   6  21
ATOM     21  O   UNL     1       1.384   8.651  20.538  0.00  0.00    +0.000 OA
BRANCH  21  22
ATOM     22  C   UNL     1       1.008   8.424  21.893  0.00  0.00    +0.000 C 
ATOM     23  F   UNL     1       1.686   9.256  22.724  0.00  0.00    +0.000 F 
ATOM     24  F   UNL     1      -0.303   8.775  22.004  0.00  0.00    +0.000 F 
ENDBRANCH  21  22
ENDBRANCH   6  21
TORSDOF 6
ENDMDL
MODEL 5
REMARK VINA RESULT:      -6.2      5.312      7.218
REMARK  Name = 
REMARK  8 active torsions:
REMARK  status: ('A' for Active; 'I' for Inactive)
REMARK    1  A    between atoms: C_1  and  O_2
REMARK    2  A    between atoms: O_2  and  C_3
REMARK    3  A    between atoms: C_5  and  C_6
REMARK    4  A    between atoms: C_6  and  N_7
REMARK    5  A    between atoms: N_7  and  C_8
REMARK    6  A    between atoms: N_7  and  C_9
REMARK    7  A    between atoms: C_20  and  O_21
REMARK    8  A    between atoms: O_21  and  C_22
REMARK                            x       y       z     vdW  Elec       q    Type
REMARK                         _______ _______ _______ _____ _____    ______ ____
ROOT
ATOM      1  C   UNL     1       0.840   9.226  20.349  0.00  0.00    +0.000 A 
ATOM      2  C   UNL     1       1.414   7.973  20.587  0.00  0.00    +0.000 A 
ATOM      3  C   UNL     1       2.169   7.324  19.596  0.00  0.00    +0.000 A 
ATOM      4  C   UNL     1       2.232   7.884  18.314  0.00  0.00    +0.000 A 
ATOM      5  C   UNL     1       1.639   9.120  18.059  0.00  0.00    +0.000 A 
ATOM      6  C   UNL     1       0.994   9.815  19.086  0.00  0.00    +0.000 A 
ENDROOT
BRANCH   1   8
ATOM      7  C   UNL     1       0.248   9.517  22.639  0.00  0.00    +0.000 C 
ATOM      8  O   UNL     1       0.111   9.917  21.279  0.00  0.00    +0.000 OA
ENDBRANCH   1   8
BRANCH   3   9
ATOM      9  C   UNL     1       3.014   6.114  19.962  0.00  0.00    +0.000 C 
BRANCH   9  10
ATOM     10  N   UNL     1       3.376   5.385  18.729  0.00  0.00    +0.000 N 
ATOM     11  C   UNL     1       2.732   4.073  18.577  0.00  0.00    +0.000 C 
BRANCH  10  12
ATOM     12  C   UNL     1       4.766   5.266  18.534  0.00  0.00    +0.000 A 
ATOM     13  N   UNL     1       5.617   5.329  19.586  0.00  0.00    +0.000 NA
ATOM     14  C   UNL     1       6.933   5.159  19.368  0.00  0.00    +0.000 A 
ATOM     15  N   UNL     1       7.553   4.930  18.207  0.00  0.00    +0.000 NA
ATOM     16  C   UNL     1       6.694   4.911  17.176  0.00  0.00    +0.000 A 
ATOM     17  S   UNL     1       7.247   4.632  15.584  0.00  0.00    +0.000 S 
ATOM     18  C   UNL     1       5.668   4.769  14.943  0.00  0.00    +0.000 A 
ATOM     19  C   UNL     1       4.738   5.019  15.928  0.00  0.00    +0.000 A 
ATOM     20  C   UNL     1       5.319   5.075  17.246  0.00  0.00    +0.000 A 
ENDBRANCH  10  12
ENDBRANCH   9  10
ENDBRANCH   3   9
BRANCH   6  21
ATOM     21  O   UNL     1       0.555  11.070  18.740  0.00  0.00    +0.000 OA
BRANCH  21  22
ATOM     22  C   UNL     1      -0.843  11.147  18.480  0.00  0.00    +0.000 C 
ATOM     23  F   UNL     1      -1.131  12.245  17.736  0.00  0.00    +0.000 F 
ATOM     24  F   UNL     1      -1.160  10.076  17.701  0.00  0.00    +0.000 F 
ENDBRANCH  21  22
ENDBRANCH   6  21
TORSDOF 6
ENDMDL
MODEL 6
REMARK VINA RESULT:      -6.1      4.177      5.648
REMARK  Name = 
REMARK  8 active torsions:
REMARK  status: ('A' for Active; 'I' for Inactive)
REMARK    1  A    between atoms: C_1  and  O_2
REMARK    2  A    between atoms: O_2  and  C_3
REMARK    3  A    between atoms: C_5  and  C_6
REMARK    4  A    between atoms: C_6  and  N_7
REMARK    5  A    between atoms: N_7  and  C_8
REMARK    6  A    between atoms: N_7  and  C_9
REMARK    7  A    between atoms: C_20  and  O_21
REMARK    8  A    between atoms: O_21  and  C_22
REMARK                            x       y       z     vdW  Elec       q    Type
REMARK                         _______ _______ _______ _____ _____    ______ ____
ROOT
ATOM      1  C   UNL     1       4.493   4.970  19.005  0.00  0.00    +0.000 A 
ATOM      2  C   UNL     1       3.980   6.197  19.439  0.00  0.00    +0.000 A 
ATOM      3  C   UNL     1       2.664   6.581  19.128  0.00  0.00    +0.000 A 
ATOM      4  C   UNL     1       1.909   5.779  18.262  0.00  0.00    +0.000 A 
ATOM      5  C   UNL     1       2.423   4.567  17.802  0.00  0.00    +0.000 A 
ATOM      6  C   UNL     1       3.686   4.137  18.216  0.00  0.00    +0.000 A 
ENDROOT
BRANCH   1   8
ATOM      7  C   UNL     1       6.837   5.399  18.959  0.00  0.00    +0.000 C 
ATOM      8  O   UNL     1       5.757   4.531  19.291  0.00  0.00    +0.000 OA
ENDBRANCH   1   8
BRANCH   3   9
ATOM      9  C   UNL     1       2.036   7.769  19.838  0.00  0.00    +0.000 C 
BRANCH   9  10
ATOM     10  N   UNL     1       1.427   8.667  18.836  0.00  0.00    +0.000 N 
ATOM     11  C   UNL     1       2.372   9.247  17.872  0.00  0.00    +0.000 C 
BRANCH  10  12
ATOM     12  C   UNL     1       0.628   9.681  19.401  0.00  0.00    +0.000 A 
ATOM     13  N   UNL     1       0.964  10.240  20.588  0.00  0.00    +0.000 NA
ATOM     14  C   UNL     1       0.208  11.241  21.071  0.00  0.00    +0.000 A 
ATOM     15  N   UNL     1      -0.881  11.789  20.524  0.00  0.00    +0.000 NA
ATOM     16  C   UNL     1      -1.215  11.193  19.370  0.00  0.00    +0.000 A 
ATOM     17  S   UNL     1      -2.573  11.718  18.477  0.00  0.00    +0.000 S 
ATOM     18  C   UNL     1      -2.317  10.536  17.268  0.00  0.00    +0.000 A 
ATOM     19  C   UNL     1      -1.212   9.760  17.541  0.00  0.00    +0.000 A 
ATOM     20  C   UNL     1      -0.538  10.151  18.753  0.00  0.00    +0.000 A 
ENDBRANCH  10  12
ENDBRANCH   9  10
ENDBRANCH   3   9
BRANCH   6  21
ATOM     21  O   UNL     1       4.030   2.877  17.791  0.00  0.00    +0.000 OA
BRANCH  21  22
ATOM     22  C   UNL     1       3.259   1.833  18.378  0.00  0.00    +0.000 C 
ATOM     23  F   UNL     1       3.876   0.635  18.217  0.00  0.00    +0.000 F 
ATOM     24  F   UNL     1       3.236   2.063  19.719  0.00  0.00    +0.000 F 
ENDBRANCH  21  22
ENDBRANCH   6  21
TORSDOF 6
ENDMDL
MODEL 7
REMARK VINA RESULT:      -6.0      4.271      6.001
REMARK  Name = 
REMARK  8 active torsions:
REMARK  status: ('A' for Active; 'I' for Inactive)
REMARK    1  A    between atoms: C_1  and  O_2
REMARK    2  A    between atoms: O_2  and  C_3
REMARK    3  A    between atoms: C_5  and  C_6
REMARK    4  A    between atoms: C_6  and  N_7
REMARK    5  A    between atoms: N_7  and  C_8
REMARK    6  A    between atoms: N_7  and  C_9
REMARK    7  A    between atoms: C_20  and  O_21
REMARK    8  A    between atoms: O_21  and  C_22
REMARK                            x       y       z     vdW  Elec       q    Type
REMARK                         _______ _______ _______ _____ _____    ______ ____
ROOT
ATOM      1  C   UNL     1       3.426   5.624  18.089  0.00  0.00    +0.000 A 
ATOM      2  C   UNL     1       2.885   6.880  18.384  0.00  0.00    +0.000 A 
ATOM      3  C   UNL     1       2.140   7.089  19.557  0.00  0.00    +0.000 A 
ATOM      4  C   UNL     1       1.827   5.990  20.367  0.00  0.00    +0.000 A 
ATOM      5  C   UNL     1       2.339   4.728  20.066  0.00  0.00    +0.000 A 
ATOM      6  C   UNL     1       3.181   4.556  18.965  0.00  0.00    +0.000 A 
ENDROOT
BRANCH   1   8
ATOM      7  C   UNL     1       5.533   5.800  16.989  0.00  0.00    +0.000 C 
ATOM      8  O   UNL     1       4.177   5.362  16.976  0.00  0.00    +0.000 OA
ENDBRANCH   1   8
BRANCH   3   9
ATOM      9  C   UNL     1       1.808   8.504  19.999  0.00  0.00    +0.000 C 
BRANCH   9  10
ATOM     10  N   UNL     1       1.143   9.217  18.890  0.00  0.00    +0.000 N 
ATOM     11  C   UNL     1       2.052   9.916  17.972  0.00  0.00    +0.000 C 
BRANCH  10  12
ATOM     12  C   UNL     1       0.119  10.087  19.313  0.00  0.00    +0.000 A 
ATOM     13  N   UNL     1       0.199  10.710  20.513  0.00  0.00    +0.000 NA
ATOM     14  C   UNL     1      -0.770  11.574  20.862  0.00  0.00    +0.000 A 
ATOM     15  N   UNL     1      -1.855  11.922  20.162  0.00  0.00    +0.000 NA
ATOM     16  C   UNL     1      -1.930  11.263  18.996  0.00  0.00    +0.000 A 
ATOM     17  S   UNL     1      -3.229  11.538  17.921  0.00  0.00    +0.000 S 
ATOM     18  C   UNL     1      -2.623  10.402  16.797  0.00  0.00    +0.000 A 
ATOM     19  C   UNL     1      -1.450   9.828  17.234  0.00  0.00    +0.000 A 
ATOM     20  C   UNL     1      -1.015  10.344  18.507  0.00  0.00    +0.000 A 
ENDBRANCH  10  12
ENDBRANCH   9  10
ENDBRANCH   3   9
BRANCH   6  21
ATOM     21  O   UNL     1       3.713   3.296  18.842  0.00  0.00    +0.000 OA
BRANCH  21  22
ATOM     22  C   UNL     1       2.815   2.335  18.295  0.00  0.00    +0.000 C 
ATOM     23  F   UNL     1       2.405   2.713  17.057  0.00  0.00    +0.000 F 
ATOM     24  F   UNL     1       3.525   1.186  18.118  0.00  0.00    +0.000 F 
ENDBRANCH  21  22
ENDBRANCH   6  21
TORSDOF 6
ENDMDL
MODEL 8
REMARK VINA RESULT:      -6.0      2.504      3.501
REMARK  Name = 
REMARK  8 active torsions:
REMARK  status: ('A' for Active; 'I' for Inactive)
REMARK    1  A    between atoms: C_1  and  O_2
REMARK    2  A    between atoms: O_2  and  C_3
REMARK    3  A    between atoms: C_5  and  C_6
REMARK    4  A    between atoms: C_6  and  N_7
REMARK    5  A    between atoms: N_7  and  C_8
REMARK    6  A    between atoms: N_7  and  C_9
REMARK    7  A    between atoms: C_20  and  O_21
REMARK    8  A    between atoms: O_21  and  C_22
REMARK                            x       y       z     vdW  Elec       q    Type
REMARK                         _______ _______ _______ _____ _____    ______ ____
ROOT
ATOM      1  C   UNL     1       7.203   5.041  13.865  0.00  0.00    +0.000 A 
ATOM      2  C   UNL     1       7.428   5.153  15.241  0.00  0.00    +0.000 A 
ATOM      3  C   UNL     1       6.740   4.337  16.155  0.00  0.00    +0.000 A 
ATOM      4  C   UNL     1       5.724   3.496  15.683  0.00  0.00    +0.000 A 
ATOM      5  C   UNL     1       5.474   3.397  14.315  0.00  0.00    +0.000 A 
ATOM      6  C   UNL     1       6.247   4.123  13.405  0.00  0.00    +0.000 A 
ENDROOT
BRANCH   1   8
ATOM      7  C   UNL     1       9.276   5.841  13.003  0.00  0.00    +0.000 C 
ATOM      8  O   UNL     1       7.854   5.792  12.925  0.00  0.00    +0.000 OA
ENDBRANCH   1   8
BRANCH   3   9
ATOM      9  C   UNL     1       7.199   4.271  17.602  0.00  0.00    +0.000 C 
BRANCH   9  10
ATOM     10  N   UNL     1       6.332   5.139  18.426  0.00  0.00    +0.000 N 
ATOM     11  C   UNL     1       7.043   5.955  19.420  0.00  0.00    +0.000 C 
BRANCH  10  12
ATOM     12  C   UNL     1       5.265   4.452  19.037  0.00  0.00    +0.000 A 
ATOM     13  N   UNL     1       5.382   3.139  19.351  0.00  0.00    +0.000 NA
ATOM     14  C   UNL     1       4.364   2.529  19.981  0.00  0.00    +0.000 A 
ATOM     15  N   UNL     1       3.194   3.055  20.358  0.00  0.00    +0.000 NA
ATOM     16  C   UNL     1       3.088   4.344  20.002  0.00  0.00    +0.000 A 
ATOM     17  S   UNL     1       1.682   5.240  20.376  0.00  0.00    +0.000 S 
ATOM     18  C   UNL     1       2.303   6.648  19.631  0.00  0.00    +0.000 A 
ATOM     19  C   UNL     1       3.561   6.437  19.111  0.00  0.00    +0.000 A 
ATOM     20  C   UNL     1       4.047   5.101  19.347  0.00  0.00    +0.000 A 
ENDBRANCH  10  12
ENDBRANCH   9  10
ENDBRANCH   3   9
BRANCH   6  21
ATOM     21  O   UNL     1       5.983   3.853  12.085  0.00  0.00    +0.000 OA
BRANCH  21  22
ATOM     22  C   UNL     1       4.775   3.128  11.868  0.00  0.00    +0.000 C 
ATOM     23  F   UNL     1       3.984   3.775  10.976  0.00  0.00    +0.000 F 
ATOM     24  F   UNL     1       5.121   1.952  11.277  0.00  0.00    +0.000 F 
ENDBRANCH  21  22
ENDBRANCH   6  21
TORSDOF 6
ENDMDL
MODEL 9
REMARK VINA RESULT:      -5.9      1.513      1.993
REMARK  Name = 
REMARK  8 active torsions:
REMARK  status: ('A' for Active; 'I' for Inactive)
REMARK    1  A    between atoms: C_1  and  O_2
REMARK    2  A    between atoms: O_2  and  C_3
REMARK    3  A    between atoms: C_5  and  C_6
REMARK    4  A    between atoms: C_6  and  N_7
REMARK    5  A    between atoms: N_7  and  C_8
REMARK    6  A    between atoms: N_7  and  C_9
REMARK    7  A    between atoms: C_20  and  O_21
REMARK    8  A    between atoms: O_21  and  C_22
REMARK                            x       y       z     vdW  Elec       q    Type
REMARK                         _______ _______ _______ _____ _____    ______ ____
ROOT
ATOM      1  C   UNL     1       7.168   5.127  14.495  0.00  0.00    +0.000 A 
ATOM      2  C   UNL     1       6.690   5.737  15.660  0.00  0.00    +0.000 A 
ATOM      3  C   UNL     1       5.452   5.369  16.213  0.00  0.00    +0.000 A 
ATOM      4  C   UNL     1       4.633   4.476  15.511  0.00  0.00    +0.000 A 
ATOM      5  C   UNL     1       5.089   3.883  14.334  0.00  0.00    +0.000 A 
ATOM      6  C   UNL     1       6.372   4.164  13.858  0.00  0.00    +0.000 A 
ENDROOT
BRANCH   1   8
ATOM      7  C   UNL     1       8.349   5.920  12.584  0.00  0.00    +0.000 C 
ATOM      8  O   UNL     1       8.372   5.427  13.920  0.00  0.00    +0.000 OA
ENDBRANCH   1   8
BRANCH   3   9
ATOM      9  C   UNL     1       5.084   5.828  17.615  0.00  0.00    +0.000 C 
BRANCH   9  10
ATOM     10  N   UNL     1       3.682   6.291  17.622  0.00  0.00    +0.000 N 
ATOM     11  C   UNL     1       3.513   7.750  17.582  0.00  0.00    +0.000 C 
BRANCH  10  12
ATOM     12  C   UNL     1       2.914   5.744  18.669  0.00  0.00    +0.000 A 
ATOM     13  N   UNL     1       2.590   6.494  19.749  0.00  0.00    +0.000 NA
ATOM     14  C   UNL     1       1.813   5.956  20.705  0.00  0.00    +0.000 A 
ATOM     15  N   UNL     1       1.290   4.727  20.746  0.00  0.00    +0.000 NA
ATOM     16  C   UNL     1       1.657   3.991  19.686  0.00  0.00    +0.000 A 
ATOM     17  S   UNL     1       1.114   2.381  19.510  0.00  0.00    +0.000 S 
ATOM     18  C   UNL     1       1.968   2.185  18.042  0.00  0.00    +0.000 A 
ATOM     19  C   UNL     1       2.651   3.330  17.693  0.00  0.00    +0.000 A 
ATOM     20  C   UNL     1       2.454   4.406  18.630  0.00  0.00    +0.000 A 
ENDBRANCH  10  12
ENDBRANCH   9  10
ENDBRANCH   3   9
BRANCH   6  21
ATOM     21  O   UNL     1       6.748   3.431  12.759  0.00  0.00    +0.000 OA
BRANCH  21  22
ATOM     22  C   UNL     1       5.668   2.786  12.091  0.00  0.00    +0.000 C 
ATOM     23  F   UNL     1       5.017   3.659  11.280  0.00  0.00    +0.000 F 
ATOM     24  F   UNL     1       6.215   1.849  11.268  0.00  0.00    +0.000 F 
ENDBRANCH  21  22
ENDBRANCH   6  21
TORSDOF 6
ENDMDL
