MODEL 1
REMARK VINA RESULT:      -6.1      0.000      0.000
REMARK  Name = 
REMARK  3 active torsions:
REMARK  status: ('A' for Active; 'I' for Inactive)
REMARK    1  A    between atoms: C_1  and  C_2
REMARK    2  A    between atoms: N_6  and  C_7
REMARK    3  A    between atoms: C_7  and  C_8
REMARK                            x       y       z     vdW  Elec       q    Type
REMARK                         _______ _______ _______ _____ _____    ______ ____
ROOT
ATOM      1  C   UNL     1       1.553   2.793  21.493  0.00  0.00    +0.000 C 
ATOM      2  C   UNL     1       1.606   2.736  19.971  0.00  0.00    +0.000 C 
ATOM      3  C   UNL     1       1.644   4.127  19.340  0.00  0.00    +0.000 C 
ATOM      4  N   UNL     1       3.033   4.624  19.304  0.00  0.00    +0.000 NA
ATOM      5  C   UNL     1       3.856   3.633  19.290  0.00  0.00    +0.000 C 
ATOM      6  N   UNL     1       5.205   3.697  19.231  0.00  0.00    +0.000 N 
ATOM      7  S   UNL     1       3.175   2.029  19.408  0.00  0.00    +0.000 S 
ATOM      8  H   UNL     1       5.685   2.848  18.961  0.00  0.00    +0.000 HD
ENDROOT
BRANCH   6   9
ATOM      9  C   UNL     1       5.907   4.937  19.009  0.00  0.00    +0.000 C 
BRANCH   9  10
ATOM     10  C   UNL     1       6.074   5.182  17.531  0.00  0.00    +0.000 A 
ATOM     11  C   UNL     1       7.062   4.521  16.795  0.00  0.00    +0.000 A 
ATOM     12  C   UNL     1       7.130   4.742  15.427  0.00  0.00    +0.000 A 
ATOM     13  N   UNL     1       6.297   5.563  14.753  0.00  0.00    +0.000 NA
ATOM     14  C   UNL     1       5.348   6.192  15.480  0.00  0.00    +0.000 A 
ATOM     15  C   UNL     1       5.197   6.034  16.848  0.00  0.00    +0.000 A 
ENDBRANCH   9  10
ENDBRANCH   6   9
TORSDOF 2
ENDMDL
MODEL 2
REMARK VINA RESULT:      -6.1      1.539      2.039
REMARK  Name = 
REMARK  3 active torsions:
REMARK  status: ('A' for Active; 'I' for Inactive)
REMARK    1  A    between atoms: C_1  and  C_2
REMARK    2  A    between atoms: N_6  and  C_7
REMARK    3  A    between atoms: C_7  and  C_8
REMARK                            x       y       z     vdW  Elec       q    Type
REMARK                         _______ _______ _______ _____ _____    ______ ____
ROOT
ATOM      1  C   UNL     1       2.290   2.569  21.494  0.00  0.00    +0.000 C 
ATOM      2  C   UNL     1       1.240   3.475  20.862  0.00  0.00    +0.000 C 
ATOM      3  C   UNL     1       1.595   4.955  20.999  0.00  0.00    +0.000 C 
ATOM      4  N   UNL     1       2.504   5.357  19.907  0.00  0.00    +0.000 NA
ATOM      5  C   UNL     1       2.336   4.587  18.888  0.00  0.00    +0.000 C 
ATOM      6  N   UNL     1       2.970   4.665  17.697  0.00  0.00    +0.000 N 
ATOM      7  S   UNL     1       1.207   3.265  19.063  0.00  0.00    +0.000 S 
ATOM      8  H   UNL     1       2.543   4.169  16.926  0.00  0.00    +0.000 HD
ENDROOT
BRANCH   6   9
ATOM      9  C   UNL     1       3.837   5.767  17.357  0.00  0.00    +0.000 C 
BRANCH   9  10
ATOM     10  C   UNL     1       5.230   5.264  17.077  0.00  0.00    +0.000 A 
ATOM     11  C   UNL     1       5.650   4.984  15.774  0.00  0.00    +0.000 A 
ATOM     12  C   UNL     1       6.961   4.579  15.571  0.00  0.00    +0.000 A 
ATOM     13  N   UNL     1       7.868   4.436  16.561  0.00  0.00    +0.000 NA
ATOM     14  C   UNL     1       7.445   4.713  17.813  0.00  0.00    +0.000 A 
ATOM     15  C   UNL     1       6.159   5.126  18.117  0.00  0.00    +0.000 A 
ENDBRANCH   9  10
ENDBRANCH   6   9
TORSDOF 2
ENDMDL
MODEL 3
REMARK VINA RESULT:      -6.0      1.452      1.905
REMARK  Name = 
REMARK  3 active torsions:
REMARK  status: ('A' for Active; 'I' for Inactive)
REMARK    1  A    between atoms: C_1  and  C_2
REMARK    2  A    between atoms: N_6  and  C_7
REMARK    3  A    between atoms: C_7  and  C_8
REMARK                            x       y       z     vdW  Elec       q    Type
REMARK                         _______ _______ _______ _____ _____    ______ ____
ROOT
ATOM      1  C   UNL     1       2.652   2.550  21.387  0.00  0.00    +0.000 C 
ATOM      2  C   UNL     1       1.548   3.470  20.878  0.00  0.00    +0.000 C 
ATOM      3  C   UNL     1       1.888   4.946  21.076  0.00  0.00    +0.000 C 
ATOM      4  N   UNL     1       2.715   5.426  19.952  0.00  0.00    +0.000 NA
ATOM      5  C   UNL     1       2.491   4.712  18.904  0.00  0.00    +0.000 C 
ATOM      6  N   UNL     1       3.043   4.869  17.680  0.00  0.00    +0.000 N 
ATOM      7  S   UNL     1       1.398   3.360  19.077  0.00  0.00    +0.000 S 
ATOM      8  H   UNL     1       2.573   4.409  16.911  0.00  0.00    +0.000 HD
ENDROOT
BRANCH   6   9
ATOM      9  C   UNL     1       3.867   6.006  17.347  0.00  0.00    +0.000 C 
BRANCH   9  10
ATOM     10  C   UNL     1       5.239   5.545  16.924  0.00  0.00    +0.000 A 
ATOM     11  C   UNL     1       6.209   5.198  17.868  0.00  0.00    +0.000 A 
ATOM     12  C   UNL     1       7.434   4.726  17.419  0.00  0.00    +0.000 A 
ATOM     13  N   UNL     1       7.753   4.580  16.115  0.00  0.00    +0.000 NA
ATOM     14  C   UNL     1       6.804   4.919  15.218  0.00  0.00    +0.000 A 
ATOM     15  C   UNL     1       5.551   5.396  15.566  0.00  0.00    +0.000 A 
ENDBRANCH   9  10
ENDBRANCH   6   9
TORSDOF 2
ENDMDL
MODEL 4
REMARK VINA RESULT:      -5.9      0.627      1.402
REMARK  Name = 
REMARK  3 active torsions:
REMARK  status: ('A' for Active; 'I' for Inactive)
REMARK    1  A    between atoms: C_1  and  C_2
REMARK    2  A    between atoms: N_6  and  C_7
REMARK    3  A    between atoms: C_7  and  C_8
REMARK                            x       y       z     vdW  Elec       q    Type
REMARK                         _______ _______ _______ _____ _____    ______ ____
ROOT
ATOM      1  C   UNL     1       1.532   2.524  21.868  0.00  0.00    +0.000 C 
ATOM      2  C   UNL     1       1.200   3.116  20.503  0.00  0.00    +0.000 C 
ATOM      3  C   UNL     1       1.617   4.581  20.390  0.00  0.00    +0.000 C 
ATOM      4  N   UNL     1       3.041   4.671  20.009  0.00  0.00    +0.000 NA
ATOM      5  C   UNL     1       3.393   3.608  19.372  0.00  0.00    +0.000 C 
ATOM      6  N   UNL     1       4.610   3.342  18.846  0.00  0.00    +0.000 N 
ATOM      7  S   UNL     1       2.199   2.344  19.206  0.00  0.00    +0.000 S 
ATOM      8  H   UNL     1       4.650   2.601  18.158  0.00  0.00    +0.000 HD
ENDROOT
BRANCH   6   9
ATOM      9  C   UNL     1       5.660   4.330  18.796  0.00  0.00    +0.000 C 
BRANCH   9  10
ATOM     10  C   UNL     1       5.859   4.804  17.378  0.00  0.00    +0.000 A 
ATOM     11  C   UNL     1       4.991   5.733  16.798  0.00  0.00    +0.000 A 
ATOM     12  C   UNL     1       5.259   6.176  15.510  0.00  0.00    +0.000 A 
ATOM     13  N   UNL     1       6.312   5.764  14.774  0.00  0.00    +0.000 NA
ATOM     14  C   UNL     1       7.140   4.868  15.352  0.00  0.00    +0.000 A 
ATOM     15  C   UNL     1       6.961   4.368  16.632  0.00  0.00    +0.000 A 
ENDBRANCH   9  10
ENDBRANCH   6   9
TORSDOF 2
ENDMDL
MODEL 5
REMARK VINA RESULT:      -5.9      2.472      5.716
REMARK  Name = 
REMARK  3 active torsions:
REMARK  status: ('A' for Active; 'I' for Inactive)
REMARK    1  A    between atoms: C_1  and  C_2
REMARK    2  A    between atoms: N_6  and  C_7
REMARK    3  A    between atoms: C_7  and  C_8
REMARK                            x       y       z     vdW  Elec       q    Type
REMARK                         _______ _______ _______ _____ _____    ______ ____
ROOT
ATOM      1  C   UNL     1       6.476   7.411  17.327  0.00  0.00    +0.000 C 
ATOM      2  C   UNL     1       7.488   6.307  17.609  0.00  0.00    +0.000 C 
ATOM      3  C   UNL     1       7.637   6.026  19.104  0.00  0.00    +0.000 C 
ATOM      4  N   UNL     1       6.587   5.087  19.546  0.00  0.00    +0.000 NA
ATOM      5  C   UNL     1       6.197   4.364  18.553  0.00  0.00    +0.000 C 
ATOM      6  N   UNL     1       5.271   3.380  18.579  0.00  0.00    +0.000 N 
ATOM      7  S   UNL     1       6.892   4.713  16.989  0.00  0.00    +0.000 S 
ATOM      8  H   UNL     1       5.272   2.739  17.796  0.00  0.00    +0.000 HD
ENDROOT
BRANCH   6   9
ATOM      9  C   UNL     1       4.698   2.894  19.811  0.00  0.00    +0.000 C 
BRANCH   9  10
ATOM     10  C   UNL     1       3.194   2.979  19.752  0.00  0.00    +0.000 A 
ATOM     11  C   UNL     1       2.496   3.955  20.468  0.00  0.00    +0.000 A 
ATOM     12  C   UNL     1       1.117   4.021  20.330  0.00  0.00    +0.000 A 
ATOM     13  N   UNL     1       0.398   3.194  19.541  0.00  0.00    +0.000 NA
ATOM     14  C   UNL     1       1.090   2.259  18.856  0.00  0.00    +0.000 A 
ATOM     15  C   UNL     1       2.465   2.115  18.924  0.00  0.00    +0.000 A 
ENDBRANCH   9  10
ENDBRANCH   6   9
TORSDOF 2
ENDMDL
MODEL 6
REMARK VINA RESULT:      -5.9      2.449      5.720
REMARK  Name = 
REMARK  3 active torsions:
REMARK  status: ('A' for Active; 'I' for Inactive)
REMARK    1  A    between atoms: C_1  and  C_2
REMARK    2  A    between atoms: N_6  and  C_7
REMARK    3  A    between atoms: C_7  and  C_8
REMARK                            x       y       z     vdW  Elec       q    Type
REMARK                         _______ _______ _______ _____ _____    ______ ____
ROOT
ATOM      1  C   UNL     1       6.449   7.392  17.207  0.00  0.00    +0.000 C 
ATOM      2  C   UNL     1       7.483   6.318  17.525  0.00  0.00    +0.000 C 
ATOM      3  C   UNL     1       7.638   6.090  19.027  0.00  0.00    +0.000 C 
ATOM      4  N   UNL     1       6.607   5.146  19.501  0.00  0.00    +0.000 NA
ATOM      5  C   UNL     1       6.231   4.383  18.534  0.00  0.00    +0.000 C 
ATOM      6  N   UNL     1       5.324   3.381  18.594  0.00  0.00    +0.000 N 
ATOM      7  S   UNL     1       6.918   4.693  16.958  0.00  0.00    +0.000 S 
ATOM      8  H   UNL     1       5.337   2.716  17.832  0.00  0.00    +0.000 HD
ENDROOT
BRANCH   6   9
ATOM      9  C   UNL     1       4.762   2.926  19.842  0.00  0.00    +0.000 C 
BRANCH   9  10
ATOM     10  C   UNL     1       3.256   2.926  19.763  0.00  0.00    +0.000 A 
ATOM     11  C   UNL     1       2.593   2.538  18.595  0.00  0.00    +0.000 A 
ATOM     12  C   UNL     1       1.206   2.502  18.600  0.00  0.00    +0.000 A 
ATOM     13  N   UNL     1       0.447   2.822  19.670  0.00  0.00    +0.000 NA
ATOM     14  C   UNL     1       1.105   3.193  20.789  0.00  0.00    +0.000 A 
ATOM     15  C   UNL     1       2.485   3.257  20.885  0.00  0.00    +0.000 A 
ENDBRANCH   9  10
ENDBRANCH   6   9
TORSDOF 2
ENDMDL
MODEL 7
REMARK VINA RESULT:      -5.9      2.187      5.753
REMARK  Name = 
REMARK  3 active torsions:
REMARK  status: ('A' for Active; 'I' for Inactive)
REMARK    1  A    between atoms: C_1  and  C_2
REMARK    2  A    between atoms: N_6  and  C_7
REMARK    3  A    between atoms: C_7  and  C_8
REMARK                            x       y       z     vdW  Elec       q    Type
REMARK                         _______ _______ _______ _____ _____    ______ ____
ROOT
ATOM      1  C   UNL     1       7.659   4.804  17.642  0.00  0.00    +0.000 C 
ATOM      2  C   UNL     1       6.846   5.137  16.397  0.00  0.00    +0.000 C 
ATOM      3  C   UNL     1       6.081   3.926  15.865  0.00  0.00    +0.000 C 
ATOM      4  N   UNL     1       4.800   3.786  16.585  0.00  0.00    +0.000 NA
ATOM      5  C   UNL     1       4.421   4.930  17.039  0.00  0.00    +0.000 C 
ATOM      6  N   UNL     1       3.288   5.198  17.725  0.00  0.00    +0.000 N 
ATOM      7  S   UNL     1       5.501   6.282  16.795  0.00  0.00    +0.000 S 
ATOM      8  H   UNL     1       3.011   6.171  17.775  0.00  0.00    +0.000 HD
ENDROOT
BRANCH   6   9
ATOM      9  C   UNL     1       2.244   4.218  17.901  0.00  0.00    +0.000 C 
BRANCH   9  10
ATOM     10  C   UNL     1       2.337   3.602  19.274  0.00  0.00    +0.000 A 
ATOM     11  C   UNL     1       3.460   2.866  19.662  0.00  0.00    +0.000 A 
ATOM     12  C   UNL     1       3.515   2.372  20.957  0.00  0.00    +0.000 A 
ATOM     13  N   UNL     1       2.544   2.558  21.877  0.00  0.00    +0.000 NA
ATOM     14  C   UNL     1       1.468   3.272  21.485  0.00  0.00    +0.000 A 
ATOM     15  C   UNL     1       1.321   3.809  20.216  0.00  0.00    +0.000 A 
ENDBRANCH   9  10
ENDBRANCH   6   9
TORSDOF 2
ENDMDL
MODEL 8
REMARK VINA RESULT:      -5.8      2.255      5.962
REMARK  Name = 
REMARK  3 active torsions:
REMARK  status: ('A' for Active; 'I' for Inactive)
REMARK    1  A    between atoms: C_1  and  C_2
REMARK    2  A    between atoms: N_6  and  C_7
REMARK    3  A    between atoms: C_7  and  C_8
REMARK                            x       y       z     vdW  Elec       q    Type
REMARK                         _______ _______ _______ _____ _____    ______ ____
ROOT
ATOM      1  C   UNL     1       7.475   6.324  18.192  0.00  0.00    +0.000 C 
ATOM      2  C   UNL     1       6.961   6.084  16.777  0.00  0.00    +0.000 C 
ATOM      3  C   UNL     1       6.892   4.598  16.431  0.00  0.00    +0.000 C 
ATOM      4  N   UNL     1       5.620   4.027  16.918  0.00  0.00    +0.000 NA
ATOM      5  C   UNL     1       4.726   4.951  16.999  0.00  0.00    +0.000 C 
ATOM      6  N   UNL     1       3.437   4.803  17.380  0.00  0.00    +0.000 N 
ATOM      7  S   UNL     1       5.227   6.583  16.629  0.00  0.00    +0.000 S 
ATOM      8  H   UNL     1       2.807   5.556  17.138  0.00  0.00    +0.000 HD
ENDROOT
BRANCH   6   9
ATOM      9  C   UNL     1       2.843   3.507  17.600  0.00  0.00    +0.000 C 
BRANCH   9  10
ATOM     10  C   UNL     1       2.567   3.305  19.069  0.00  0.00    +0.000 A 
ATOM     11  C   UNL     1       1.374   3.747  19.648  0.00  0.00    +0.000 A 
ATOM     12  C   UNL     1       1.151   3.482  20.991  0.00  0.00    +0.000 A 
ATOM     13  N   UNL     1       2.019   2.820  21.784  0.00  0.00    +0.000 NA
ATOM     14  C   UNL     1       3.165   2.400  21.207  0.00  0.00    +0.000 A 
ATOM     15  C   UNL     1       3.479   2.612  19.875  0.00  0.00    +0.000 A 
ENDBRANCH   9  10
ENDBRANCH   6   9
TORSDOF 2
ENDMDL
MODEL 9
REMARK VINA RESULT:      -5.8      2.400      5.806
REMARK  Name = 
REMARK  3 active torsions:
REMARK  status: ('A' for Active; 'I' for Inactive)
REMARK    1  A    between atoms: C_1  and  C_2
REMARK    2  A    between atoms: N_6  and  C_7
REMARK    3  A    between atoms: C_7  and  C_8
REMARK                            x       y       z     vdW  Elec       q    Type
REMARK                         _______ _______ _______ _____ _____    ______ ____
ROOT
ATOM      1  C   UNL     1       7.507   7.347  17.410  0.00  0.00    +0.000 C 
ATOM      2  C   UNL     1       7.026   5.902  17.342  0.00  0.00    +0.000 C 
ATOM      3  C   UNL     1       6.752   5.318  18.727  0.00  0.00    +0.000 C 
ATOM      4  N   UNL     1       5.390   5.682  19.165  0.00  0.00    +0.000 NA
ATOM      5  C   UNL     1       4.640   5.895  18.140  0.00  0.00    +0.000 C 
ATOM      6  N   UNL     1       3.328   6.223  18.148  0.00  0.00    +0.000 N 
ATOM      7  S   UNL     1       5.392   5.804  16.567  0.00  0.00    +0.000 S 
ATOM      8  H   UNL     1       2.827   6.094  17.278  0.00  0.00    +0.000 HD
ENDROOT
BRANCH   6   9
ATOM      9  C   UNL     1       2.540   6.218  19.356  0.00  0.00    +0.000 C 
BRANCH   9  10
ATOM     10  C   UNL     1       2.006   4.833  19.622  0.00  0.00    +0.000 A 
ATOM     11  C   UNL     1       1.522   4.033  18.583  0.00  0.00    +0.000 A 
ATOM     12  C   UNL     1       1.097   2.746  18.880  0.00  0.00    +0.000 A 
ATOM     13  N   UNL     1       1.120   2.211  20.119  0.00  0.00    +0.000 NA
ATOM     14  C   UNL     1       1.592   2.998  21.109  0.00  0.00    +0.000 A 
ATOM     15  C   UNL     1       2.042   4.294  20.914  0.00  0.00    +0.000 A 
ENDBRANCH   9  10
ENDBRANCH   6   9
TORSDOF 2
ENDMDL
