MODEL 1
REMARK VINA RESULT:      -7.0      0.000      0.000
REMARK  Name = 
REMARK  13 active torsions:
REMARK  status: ('A' for Active; 'I' for Inactive)
REMARK    1  A    between atoms: C_1  and  N_2
REMARK    2  A    between atoms: N_2  and  C_3
REMARK    3  A    between atoms: C_3  and  C_4
REMARK    4  A    between atoms: C_4  and  C_5
REMARK    5  A    between atoms: C_5  and  C_6
REMARK    6  A    between atoms: C_6  and  N_7
REMARK    7  A    between atoms: N_7  and  C_8
REMARK    8  A    between atoms: C_8  and  C_9
REMARK    9  A    between atoms: C_9  and  C_10
REMARK   10  A    between atoms: C_10  and  C_11
REMARK   11  A    between atoms: C_11  and  N_12
REMARK   12  A    between atoms: N_12  and  C_13
REMARK   13  A    between atoms: C_13  and  C_14
REMARK                            x       y       z     vdW  Elec       q    Type
REMARK                         _______ _______ _______ _____ _____    ______ ____
ROOT
ATOM      1  N   UNL     1       1.592   7.786  18.126  0.00  0.00    +0.000 NA
ATOM      2  H   UNL     1       1.509   7.293  17.207  0.00  0.00    +0.000 HD
ENDROOT
BRANCH   1   3
ATOM      3  C   UNL     1       1.670   9.232  17.901  0.00  0.00    +0.000 C 
BRANCH   3   4
ATOM      4  C   UNL     1       0.521   9.957  18.604  0.00  0.00    +0.000 C 
BRANCH   4   5
ATOM      5  C   UNL     1      -0.699  10.068  17.715  0.00  0.00    +0.000 C 
BRANCH   5   6
ATOM      6  C   UNL     1      -1.589  11.181  18.255  0.00  0.00    +0.000 C 
BRANCH   6   7
ATOM      7  N   UNL     1      -1.268  12.423  17.570  0.00  0.00    +0.000 NA
ATOM      8  H   UNL     1      -0.761  12.194  16.682  0.00  0.00    +0.000 HD
BRANCH   7   9
ATOM      9  C   UNL     1      -0.409  13.258  18.410  0.00  0.00    +0.000 C 
BRANCH   9  10
ATOM     10  C   UNL     1      -1.072  13.455  19.766  0.00  0.00    +0.000 C 
BRANCH  10  11
ATOM     11  C   UNL     1      -0.134  13.051  20.909  0.00  0.00    +0.000 C 
BRANCH  11  12
ATOM     12  C   UNL     1      -0.872  12.146  21.890  0.00  0.00    +0.000 C 
BRANCH  12  14
ATOM     13  C   UNL     1      -0.692  10.069  23.069  0.00  0.00    +0.000 C 
ATOM     14  N   UNL     1       0.054  11.187  22.498  0.00  0.00    +0.000 NA
ATOM     15  H   UNL     1       0.695  10.810  21.759  0.00  0.00    +0.000 HD
ENDBRANCH  12  14
ENDBRANCH  11  12
ENDBRANCH  10  11
ENDBRANCH   9  10
ENDBRANCH   7   9
ENDBRANCH   6   7
ENDBRANCH   5   6
ENDBRANCH   4   5
ENDBRANCH   3   4
ENDBRANCH   1   3
BRANCH   1  16
ATOM     16  C   UNL     1       2.735   7.278  18.897  0.00  0.00    +0.000 C 
BRANCH  16  17
ATOM     17  C   UNL     1       3.087   5.887  18.432  0.00  0.00    +0.000 A 
ATOM     18  C   UNL     1       2.524   4.752  19.099  0.00  0.00    +0.000 A 
ATOM     19  C   UNL     1       1.646   4.871  20.211  0.00  0.00    +0.000 A 
ATOM     20  C   UNL     1       1.100   3.741  20.821  0.00  0.00    +0.000 A 
ATOM     21  C   UNL     1       1.416   2.470  20.351  0.00  0.00    +0.000 A 
ATOM     22  C   UNL     1       2.284   2.322  19.270  0.00  0.00    +0.000 A 
ATOM     23  C   UNL     1       2.840   3.449  18.640  0.00  0.00    +0.000 A 
ATOM     24  C   UNL     1       3.705   3.278  17.555  0.00  0.00    +0.000 A 
ATOM     25  C   UNL     1       4.270   4.378  16.905  0.00  0.00    +0.000 A 
ATOM     26  C   UNL     1       5.145   4.171  15.825  0.00  0.00    +0.000 A 
ATOM     27  C   UNL     1       5.730   5.254  15.167  0.00  0.00    +0.000 A 
ATOM     28  C   UNL     1       5.455   6.552  15.586  0.00  0.00    +0.000 A 
ATOM     29  C   UNL     1       4.591   6.777  16.655  0.00  0.00    +0.000 A 
ATOM     30  C   UNL     1       3.973   5.696  17.336  0.00  0.00    +0.000 A 
ENDBRANCH  16  17
ENDBRANCH   1  16
TORSDOF 12
ENDMDL
MODEL 2
REMARK VINA RESULT:      -6.9      2.474      5.444
REMARK  Name = 
REMARK  13 active torsions:
REMARK  status: ('A' for Active; 'I' for Inactive)
REMARK    1  A    between atoms: C_1  and  N_2
REMARK    2  A    between atoms: N_2  and  C_3
REMARK    3  A    between atoms: C_3  and  C_4
REMARK    4  A    between atoms: C_4  and  C_5
REMARK    5  A    between atoms: C_5  and  C_6
REMARK    6  A    between atoms: C_6  and  N_7
REMARK    7  A    between atoms: N_7  and  C_8
REMARK    8  A    between atoms: C_8  and  C_9
REMARK    9  A    between atoms: C_9  and  C_10
REMARK   10  A    between atoms: C_10  and  C_11
REMARK   11  A    between atoms: C_11  and  N_12
REMARK   12  A    between atoms: N_12  and  C_13
REMARK   13  A    between atoms: C_13  and  C_14
REMARK                            x       y       z     vdW  Elec       q    Type
REMARK                         _______ _______ _______ _____ _____    ______ ____
ROOT
ATOM      1  N   UNL     1       2.707   7.967  17.530  0.00  0.00    +0.000 NA
ATOM      2  H   UNL     1       3.211   8.043  16.617  0.00  0.00    +0.000 HD
ENDROOT
BRANCH   1   3
ATOM      3  C   UNL     1       2.357   9.308  18.009  0.00  0.00    +0.000 C 
BRANCH   3   4
ATOM      4  C   UNL     1       0.885   9.374  18.419  0.00  0.00    +0.000 C 
BRANCH   4   5
ATOM      5  C   UNL     1       0.541  10.700  19.064  0.00  0.00    +0.000 C 
BRANCH   5   6
ATOM      6  C   UNL     1      -0.717  11.247  18.401  0.00  0.00    +0.000 C 
BRANCH   6   7
ATOM      7  N   UNL     1      -1.358  10.184  17.644  0.00  0.00    +0.000 NA
ATOM      8  H   UNL     1      -0.736   9.921  16.844  0.00  0.00    +0.000 HD
BRANCH   7   9
ATOM      9  C   UNL     1      -2.646  10.641  17.120  0.00  0.00    +0.000 C 
BRANCH   9  10
ATOM     10  C   UNL     1      -3.080   9.720  15.988  0.00  0.00    +0.000 C 
BRANCH  10  11
ATOM     11  C   UNL     1      -3.016  10.436  14.633  0.00  0.00    +0.000 C 
BRANCH  11  12
ATOM     12  C   UNL     1      -4.159   9.960  13.742  0.00  0.00    +0.000 C 
BRANCH  12  14
ATOM     13  C   UNL     1      -4.795   9.664  11.452  0.00  0.00    +0.000 C 
ATOM     14  N   UNL     1      -3.673   9.690  12.387  0.00  0.00    +0.000 NA
ATOM     15  H   UNL     1      -3.021  10.457  12.094  0.00  0.00    +0.000 HD
ENDBRANCH  12  14
ENDBRANCH  11  12
ENDBRANCH  10  11
ENDBRANCH   9  10
ENDBRANCH   7   9
ENDBRANCH   6   7
ENDBRANCH   5   6
ENDBRANCH   4   5
ENDBRANCH   3   4
ENDBRANCH   1   3
BRANCH   1  16
ATOM     16  C   UNL     1       3.501   7.214  18.511  0.00  0.00    +0.000 C 
BRANCH  16  17
ATOM     17  C   UNL     1       3.526   5.754  18.133  0.00  0.00    +0.000 A 
ATOM     18  C   UNL     1       4.380   5.311  17.072  0.00  0.00    +0.000 A 
ATOM     19  C   UNL     1       5.208   6.197  16.331  0.00  0.00    +0.000 A 
ATOM     20  C   UNL     1       6.043   5.724  15.317  0.00  0.00    +0.000 A 
ATOM     21  C   UNL     1       6.071   4.368  15.011  0.00  0.00    +0.000 A 
ATOM     22  C   UNL     1       5.261   3.477  15.712  0.00  0.00    +0.000 A 
ATOM     23  C   UNL     1       4.417   3.934  16.738  0.00  0.00    +0.000 A 
ATOM     24  C   UNL     1       3.615   3.023  17.432  0.00  0.00    +0.000 A 
ATOM     25  C   UNL     1       2.769   3.446  18.460  0.00  0.00    +0.000 A 
ATOM     26  C   UNL     1       1.967   2.506  19.130  0.00  0.00    +0.000 A 
ATOM     27  C   UNL     1       1.106   2.906  20.152  0.00  0.00    +0.000 A 
ATOM     28  C   UNL     1       1.030   4.249  20.510  0.00  0.00    +0.000 A 
ATOM     29  C   UNL     1       1.817   5.195  19.858  0.00  0.00    +0.000 A 
ATOM     30  C   UNL     1       2.710   4.816  18.822  0.00  0.00    +0.000 A 
ENDBRANCH  16  17
ENDBRANCH   1  16
TORSDOF 12
ENDMDL
MODEL 3
REMARK VINA RESULT:      -6.9      1.165      2.618
REMARK  Name = 
REMARK  13 active torsions:
REMARK  status: ('A' for Active; 'I' for Inactive)
REMARK    1  A    between atoms: C_1  and  N_2
REMARK    2  A    between atoms: N_2  and  C_3
REMARK    3  A    between atoms: C_3  and  C_4
REMARK    4  A    between atoms: C_4  and  C_5
REMARK    5  A    between atoms: C_5  and  C_6
REMARK    6  A    between atoms: C_6  and  N_7
REMARK    7  A    between atoms: N_7  and  C_8
REMARK    8  A    between atoms: C_8  and  C_9
REMARK    9  A    between atoms: C_9  and  C_10
REMARK   10  A    between atoms: C_10  and  C_11
REMARK   11  A    between atoms: C_11  and  N_12
REMARK   12  A    between atoms: N_12  and  C_13
REMARK   13  A    between atoms: C_13  and  C_14
REMARK                            x       y       z     vdW  Elec       q    Type
REMARK                         _______ _______ _______ _____ _____    ______ ____
ROOT
ATOM      1  N   UNL     1       2.222   7.970  18.682  0.00  0.00    +0.000 NA
ATOM      2  H   UNL     1       2.795   8.630  18.107  0.00  0.00    +0.000 HD
ENDROOT
BRANCH   1   3
ATOM      3  C   UNL     1       1.363   8.732  19.593  0.00  0.00    +0.000 C 
BRANCH   3   4
ATOM      4  C   UNL     1       1.334   8.090  20.981  0.00  0.00    +0.000 C 
BRANCH   4   5
ATOM      5  C   UNL     1       1.079   9.113  22.067  0.00  0.00    +0.000 C 
BRANCH   5   6
ATOM      6  C   UNL     1      -0.128   9.952  21.665  0.00  0.00    +0.000 C 
BRANCH   6   7
ATOM      7  N   UNL     1      -0.009  11.274  22.256  0.00  0.00    +0.000 NA
ATOM      8  H   UNL     1      -0.806  11.415  22.923  0.00  0.00    +0.000 HD
BRANCH   7   9
ATOM      9  C   UNL     1      -0.067  12.302  21.217  0.00  0.00    +0.000 C 
BRANCH   9  10
ATOM     10  C   UNL     1      -1.118  11.914  20.186  0.00  0.00    +0.000 C 
BRANCH  10  11
ATOM     11  C   UNL     1      -0.581  12.068  18.758  0.00  0.00    +0.000 C 
BRANCH  11  12
ATOM     12  C   UNL     1      -1.710  11.858  17.755  0.00  0.00    +0.000 C 
BRANCH  12  14
ATOM     13  C   UNL     1      -2.839   9.771  17.429  0.00  0.00    +0.000 C 
ATOM     14  N   UNL     1      -1.619  10.526  17.153  0.00  0.00    +0.000 NA
ATOM     15  H   UNL     1      -1.523  10.622  16.113  0.00  0.00    +0.000 HD
ENDBRANCH  12  14
ENDBRANCH  11  12
ENDBRANCH  10  11
ENDBRANCH   9  10
ENDBRANCH   7   9
ENDBRANCH   6   7
ENDBRANCH   5   6
ENDBRANCH   4   5
ENDBRANCH   3   4
ENDBRANCH   1   3
BRANCH   1  16
ATOM     16  C   UNL     1       3.078   7.010  19.393  0.00  0.00    +0.000 C 
BRANCH  16  17
ATOM     17  C   UNL     1       3.188   5.735  18.594  0.00  0.00    +0.000 A 
ATOM     18  C   UNL     1       2.382   4.605  18.945  0.00  0.00    +0.000 A 
ATOM     19  C   UNL     1       1.478   4.617  20.042  0.00  0.00    +0.000 A 
ATOM     20  C   UNL     1       0.692   3.503  20.340  0.00  0.00    +0.000 A 
ATOM     21  C   UNL     1       0.791   2.351  19.566  0.00  0.00    +0.000 A 
ATOM     22  C   UNL     1       1.678   2.305  18.493  0.00  0.00    +0.000 A 
ATOM     23  C   UNL     1       2.474   3.420  18.175  0.00  0.00    +0.000 A 
ATOM     24  C   UNL     1       3.355   3.354  17.091  0.00  0.00    +0.000 A 
ATOM     25  C   UNL     1       4.156   4.446  16.747  0.00  0.00    +0.000 A 
ATOM     26  C   UNL     1       5.039   4.344  15.659  0.00  0.00    +0.000 A 
ATOM     27  C   UNL     1       5.857   5.417  15.304  0.00  0.00    +0.000 A 
ATOM     28  C   UNL     1       5.807   6.599  16.036  0.00  0.00    +0.000 A 
ATOM     29  C   UNL     1       4.937   6.720  17.117  0.00  0.00    +0.000 A 
ATOM     30  C   UNL     1       4.087   5.650  17.495  0.00  0.00    +0.000 A 
ENDBRANCH  16  17
ENDBRANCH   1  16
TORSDOF 12
ENDMDL
MODEL 4
REMARK VINA RESULT:      -6.9      1.698      4.780
REMARK  Name = 
REMARK  13 active torsions:
REMARK  status: ('A' for Active; 'I' for Inactive)
REMARK    1  A    between atoms: C_1  and  N_2
REMARK    2  A    between atoms: N_2  and  C_3
REMARK    3  A    between atoms: C_3  and  C_4
REMARK    4  A    between atoms: C_4  and  C_5
REMARK    5  A    between atoms: C_5  and  C_6
REMARK    6  A    between atoms: C_6  and  N_7
REMARK    7  A    between atoms: N_7  and  C_8
REMARK    8  A    between atoms: C_8  and  C_9
REMARK    9  A    between atoms: C_9  and  C_10
REMARK   10  A    between atoms: C_10  and  C_11
REMARK   11  A    between atoms: C_11  and  N_12
REMARK   12  A    between atoms: N_12  and  C_13
REMARK   13  A    between atoms: C_13  and  C_14
REMARK                            x       y       z     vdW  Elec       q    Type
REMARK                         _______ _______ _______ _____ _____    ______ ____
ROOT
ATOM      1  N   UNL     1       2.461   7.167  20.272  0.00  0.00    +0.000 NA
ATOM      2  H   UNL     1       2.900   6.317  20.694  0.00  0.00    +0.000 HD
ENDROOT
BRANCH   1   3
ATOM      3  C   UNL     1       1.229   7.493  20.997  0.00  0.00    +0.000 C 
BRANCH   3   4
ATOM      4  C   UNL     1       1.321   8.882  21.631  0.00  0.00    +0.000 C 
BRANCH   4   5
ATOM      5  C   UNL     1       0.156   9.760  21.227  0.00  0.00    +0.000 C 
BRANCH   5   6
ATOM      6  C   UNL     1       0.561  10.563  19.997  0.00  0.00    +0.000 C 
BRANCH   6   7
ATOM      7  N   UNL     1       0.014   9.927  18.811  0.00  0.00    +0.000 NA
ATOM      8  H   UNL     1       0.808   9.585  18.219  0.00  0.00    +0.000 HD
BRANCH   7   9
ATOM      9  C   UNL     1      -0.778  10.886  18.040  0.00  0.00    +0.000 C 
BRANCH   9  10
ATOM     10  C   UNL     1      -2.231  10.811  18.489  0.00  0.00    +0.000 C 
BRANCH  10  11
ATOM     11  C   UNL     1      -3.090  10.052  17.470  0.00  0.00    +0.000 C 
BRANCH  11  12
ATOM     12  C   UNL     1      -3.923  11.039  16.659  0.00  0.00    +0.000 C 
BRANCH  12  14
ATOM     13  C   UNL     1      -3.021  10.195  14.608  0.00  0.00    +0.000 C 
ATOM     14  N   UNL     1      -3.233  11.392  15.416  0.00  0.00    +0.000 NA
ATOM     15  H   UNL     1      -3.829  12.057  14.867  0.00  0.00    +0.000 HD
ENDBRANCH  12  14
ENDBRANCH  11  12
ENDBRANCH  10  11
ENDBRANCH   9  10
ENDBRANCH   7   9
ENDBRANCH   6   7
ENDBRANCH   5   6
ENDBRANCH   4   5
ENDBRANCH   3   4
ENDBRANCH   1   3
BRANCH   1  16
ATOM     16  C   UNL     1       2.228   6.981  18.832  0.00  0.00    +0.000 C 
BRANCH  16  17
ATOM     17  C   UNL     1       2.791   5.653  18.392  0.00  0.00    +0.000 A 
ATOM     18  C   UNL     1       3.843   5.614  17.422  0.00  0.00    +0.000 A 
ATOM     19  C   UNL     1       4.384   6.787  16.827  0.00  0.00    +0.000 A 
ATOM     20  C   UNL     1       5.425   6.710  15.901  0.00  0.00    +0.000 A 
ATOM     21  C   UNL     1       5.946   5.473  15.536  0.00  0.00    +0.000 A 
ATOM     22  C   UNL     1       5.428   4.306  16.093  0.00  0.00    +0.000 A 
ATOM     23  C   UNL     1       4.383   4.364  17.031  0.00  0.00    +0.000 A 
ATOM     24  C   UNL     1       3.879   3.180  17.581  0.00  0.00    +0.000 A 
ATOM     25  C   UNL     1       2.844   3.205  18.518  0.00  0.00    +0.000 A 
ATOM     26  C   UNL     1       2.354   1.998  19.043  0.00  0.00    +0.000 A 
ATOM     27  C   UNL     1       1.313   1.997  19.972  0.00  0.00    +0.000 A 
ATOM     28  C   UNL     1       0.746   3.200  20.380  0.00  0.00    +0.000 A 
ATOM     29  C   UNL     1       1.219   4.408  19.872  0.00  0.00    +0.000 A 
ATOM     30  C   UNL     1       2.283   4.440  18.934  0.00  0.00    +0.000 A 
ENDBRANCH  16  17
ENDBRANCH   1  16
TORSDOF 12
ENDMDL
MODEL 5
REMARK VINA RESULT:      -6.8      1.458      4.000
REMARK  Name = 
REMARK  13 active torsions:
REMARK  status: ('A' for Active; 'I' for Inactive)
REMARK    1  A    between atoms: C_1  and  N_2
REMARK    2  A    between atoms: N_2  and  C_3
REMARK    3  A    between atoms: C_3  and  C_4
REMARK    4  A    between atoms: C_4  and  C_5
REMARK    5  A    between atoms: C_5  and  C_6
REMARK    6  A    between atoms: C_6  and  N_7
REMARK    7  A    between atoms: N_7  and  C_8
REMARK    8  A    between atoms: C_8  and  C_9
REMARK    9  A    between atoms: C_9  and  C_10
REMARK   10  A    between atoms: C_10  and  C_11
REMARK   11  A    between atoms: C_11  and  N_12
REMARK   12  A    between atoms: N_12  and  C_13
REMARK   13  A    between atoms: C_13  and  C_14
REMARK                            x       y       z     vdW  Elec       q    Type
REMARK                         _______ _______ _______ _____ _____    ______ ____
ROOT
ATOM      1  N   UNL     1       1.864   7.791  17.812  0.00  0.00    +0.000 NA
ATOM      2  H   UNL     1       2.075   7.508  16.827  0.00  0.00    +0.000 HD
ENDROOT
BRANCH   1   3
ATOM      3  C   UNL     1       1.819   9.254  17.901  0.00  0.00    +0.000 C 
BRANCH   3   4
ATOM      4  C   UNL     1       1.084   9.701  19.166  0.00  0.00    +0.000 C 
BRANCH   4   5
ATOM      5  C   UNL     1      -0.274  10.289  18.848  0.00  0.00    +0.000 C 
BRANCH   5   6
ATOM      6  C   UNL     1      -0.299  11.733  19.331  0.00  0.00    +0.000 C 
BRANCH   6   7
ATOM      7  N   UNL     1       0.593  11.871  20.470  0.00  0.00    +0.000 NA
ATOM      8  H   UNL     1       0.934  10.919  20.745  0.00  0.00    +0.000 HD
BRANCH   7   9
ATOM      9  C   UNL     1      -0.115  12.471  21.601  0.00  0.00    +0.000 C 
BRANCH   9  10
ATOM     10  C   UNL     1      -0.675  11.366  22.485  0.00  0.00    +0.000 C 
BRANCH  10  11
ATOM     11  C   UNL     1      -2.067  11.730  23.017  0.00  0.00    +0.000 C 
BRANCH  11  12
ATOM     12  C   UNL     1      -2.106  13.207  23.397  0.00  0.00    +0.000 C 
BRANCH  12  14
ATOM     13  C   UNL     1      -4.163  12.648  24.489  0.00  0.00    +0.000 C 
ATOM     14  N   UNL     1      -3.484  13.633  23.652  0.00  0.00    +0.000 NA
ATOM     15  H   UNL     1      -3.473  14.548  24.165  0.00  0.00    +0.000 HD
ENDBRANCH  12  14
ENDBRANCH  11  12
ENDBRANCH  10  11
ENDBRANCH   9  10
ENDBRANCH   7   9
ENDBRANCH   6   7
ENDBRANCH   5   6
ENDBRANCH   4   5
ENDBRANCH   3   4
ENDBRANCH   1   3
BRANCH   1  16
ATOM     16  C   UNL     1       2.832   7.204  18.749  0.00  0.00    +0.000 C 
BRANCH  16  17
ATOM     17  C   UNL     1       3.158   5.792  18.328  0.00  0.00    +0.000 A 
ATOM     18  C   UNL     1       4.072   5.567  17.250  0.00  0.00    +0.000 A 
ATOM     19  C   UNL     1       4.688   6.626  16.530  0.00  0.00    +0.000 A 
ATOM     20  C   UNL     1       5.592   6.366  15.499  0.00  0.00    +0.000 A 
ATOM     21  C   UNL     1       5.899   5.054  15.152  0.00  0.00    +0.000 A 
ATOM     22  C   UNL     1       5.301   3.995  15.832  0.00  0.00    +0.000 A 
ATOM     23  C   UNL     1       4.392   4.238  16.877  0.00  0.00    +0.000 A 
ATOM     24  C   UNL     1       3.806   3.160  17.548  0.00  0.00    +0.000 A 
ATOM     25  C   UNL     1       2.903   3.369  18.593  0.00  0.00    +0.000 A 
ATOM     26  C   UNL     1       2.323   2.265  19.240  0.00  0.00    +0.000 A 
ATOM     27  C   UNL     1       1.409   2.448  20.279  0.00  0.00    +0.000 A 
ATOM     28  C   UNL     1       1.059   3.735  20.676  0.00  0.00    +0.000 A 
ATOM     29  C   UNL     1       1.624   4.842  20.047  0.00  0.00    +0.000 A 
ATOM     30  C   UNL     1       2.563   4.686  18.995  0.00  0.00    +0.000 A 
ENDBRANCH  16  17
ENDBRANCH   1  16
TORSDOF 12
ENDMDL
MODEL 6
REMARK VINA RESULT:      -6.7      1.012      2.087
REMARK  Name = 
REMARK  13 active torsions:
REMARK  status: ('A' for Active; 'I' for Inactive)
REMARK    1  A    between atoms: C_1  and  N_2
REMARK    2  A    between atoms: N_2  and  C_3
REMARK    3  A    between atoms: C_3  and  C_4
REMARK    4  A    between atoms: C_4  and  C_5
REMARK    5  A    between atoms: C_5  and  C_6
REMARK    6  A    between atoms: C_6  and  N_7
REMARK    7  A    between atoms: N_7  and  C_8
REMARK    8  A    between atoms: C_8  and  C_9
REMARK    9  A    between atoms: C_9  and  C_10
REMARK   10  A    between atoms: C_10  and  C_11
REMARK   11  A    between atoms: C_11  and  N_12
REMARK   12  A    between atoms: N_12  and  C_13
REMARK   13  A    between atoms: C_13  and  C_14
REMARK                            x       y       z     vdW  Elec       q    Type
REMARK                         _______ _______ _______ _____ _____    ______ ____
ROOT
ATOM      1  N   UNL     1       1.800   7.893  18.046  0.00  0.00    +0.000 NA
ATOM      2  H   UNL     1       1.901   7.564  17.058  0.00  0.00    +0.000 HD
ENDROOT
BRANCH   1   3
ATOM      3  C   UNL     1       1.862   9.358  18.082  0.00  0.00    +0.000 C 
BRANCH   3   4
ATOM      4  C   UNL     1       0.469   9.958  18.281  0.00  0.00    +0.000 C 
BRANCH   4   5
ATOM      5  C   UNL     1      -0.019   9.783  19.702  0.00  0.00    +0.000 C 
BRANCH   5   6
ATOM      6  C   UNL     1       1.109  10.170  20.651  0.00  0.00    +0.000 C 
BRANCH   6   7
ATOM      7  N   UNL     1       0.650  11.230  21.532  0.00  0.00    +0.000 NA
ATOM      8  H   UNL     1      -0.346  11.037  21.797  0.00  0.00    +0.000 HD
BRANCH   7   9
ATOM      9  C   UNL     1       0.722  12.523  20.852  0.00  0.00    +0.000 C 
BRANCH   9  10
ATOM     10  C   UNL     1      -0.523  13.333  21.182  0.00  0.00    +0.000 C 
BRANCH  10  11
ATOM     11  C   UNL     1      -1.481  13.395  19.986  0.00  0.00    +0.000 C 
BRANCH  11  12
ATOM     12  C   UNL     1      -2.646  12.436  20.205  0.00  0.00    +0.000 C 
BRANCH  12  14
ATOM     13  C   UNL     1      -2.912  11.533  18.003  0.00  0.00    +0.000 C 
ATOM     14  N   UNL     1      -3.506  12.396  19.020  0.00  0.00    +0.000 NA
ATOM     15  H   UNL     1      -4.439  11.996  19.284  0.00  0.00    +0.000 HD
ENDBRANCH  12  14
ENDBRANCH  11  12
ENDBRANCH  10  11
ENDBRANCH   9  10
ENDBRANCH   7   9
ENDBRANCH   6   7
ENDBRANCH   5   6
ENDBRANCH   4   5
ENDBRANCH   3   4
ENDBRANCH   1   3
BRANCH   1  16
ATOM     16  C   UNL     1       2.807   7.271  18.917  0.00  0.00    +0.000 C 
BRANCH  16  17
ATOM     17  C   UNL     1       3.112   5.877  18.427  0.00  0.00    +0.000 A 
ATOM     18  C   UNL     1       2.512   4.750  19.075  0.00  0.00    +0.000 A 
ATOM     19  C   UNL     1       1.640   4.879  20.190  0.00  0.00    +0.000 A 
ATOM     20  C   UNL     1       1.057   3.757  20.782  0.00  0.00    +0.000 A 
ATOM     21  C   UNL     1       1.331   2.485  20.290  0.00  0.00    +0.000 A 
ATOM     22  C   UNL     1       2.192   2.327  19.206  0.00  0.00    +0.000 A 
ATOM     23  C   UNL     1       2.785   3.445  18.594  0.00  0.00    +0.000 A 
ATOM     24  C   UNL     1       3.644   3.264  17.505  0.00  0.00    +0.000 A 
ATOM     25  C   UNL     1       4.244   4.356  16.874  0.00  0.00    +0.000 A 
ATOM     26  C   UNL     1       5.111   4.139  15.789  0.00  0.00    +0.000 A 
ATOM     27  C   UNL     1       5.732   5.213  15.149  0.00  0.00    +0.000 A 
ATOM     28  C   UNL     1       5.500   6.512  15.591  0.00  0.00    +0.000 A 
ATOM     29  C   UNL     1       4.644   6.747  16.664  0.00  0.00    +0.000 A 
ATOM     30  C   UNL     1       3.991   5.676  17.327  0.00  0.00    +0.000 A 
ENDBRANCH  16  17
ENDBRANCH   1  16
TORSDOF 12
ENDMDL
MODEL 7
REMARK VINA RESULT:      -6.7      1.492      2.825
REMARK  Name = 
REMARK  13 active torsions:
REMARK  status: ('A' for Active; 'I' for Inactive)
REMARK    1  A    between atoms: C_1  and  N_2
REMARK    2  A    between atoms: N_2  and  C_3
REMARK    3  A    between atoms: C_3  and  C_4
REMARK    4  A    between atoms: C_4  and  C_5
REMARK    5  A    between atoms: C_5  and  C_6
REMARK    6  A    between atoms: C_6  and  N_7
REMARK    7  A    between atoms: N_7  and  C_8
REMARK    8  A    between atoms: C_8  and  C_9
REMARK    9  A    between atoms: C_9  and  C_10
REMARK   10  A    between atoms: C_10  and  C_11
REMARK   11  A    between atoms: C_11  and  N_12
REMARK   12  A    between atoms: N_12  and  C_13
REMARK   13  A    between atoms: C_13  and  C_14
REMARK                            x       y       z     vdW  Elec       q    Type
REMARK                         _______ _______ _______ _____ _____    ______ ____
ROOT
ATOM      1  N   UNL     1       2.343   7.318  19.925  0.00  0.00    +0.000 NA
ATOM      2  H   UNL     1       1.995   6.452  20.398  0.00  0.00    +0.000 HD
ENDROOT
BRANCH   1   3
ATOM      3  C   UNL     1       1.447   8.437  20.230  0.00  0.00    +0.000 C 
BRANCH   3   4
ATOM      4  C   UNL     1       1.210   8.551  21.737  0.00  0.00    +0.000 C 
BRANCH   4   5
ATOM      5  C   UNL     1      -0.243   8.832  22.056  0.00  0.00    +0.000 C 
BRANCH   5   6
ATOM      6  C   UNL     1      -0.325  10.160  22.799  0.00  0.00    +0.000 C 
BRANCH   6   7
ATOM      7  N   UNL     1       0.206  11.215  21.952  0.00  0.00    +0.000 NA
ATOM      8  H   UNL     1       0.596  11.971  22.564  0.00  0.00    +0.000 HD
BRANCH   7   9
ATOM      9  C   UNL     1      -0.854  11.776  21.115  0.00  0.00    +0.000 C 
BRANCH   9  10
ATOM     10  C   UNL     1      -0.461  11.642  19.651  0.00  0.00    +0.000 C 
BRANCH  10  11
ATOM     11  C   UNL     1       1.010  12.020  19.432  0.00  0.00    +0.000 C 
BRANCH  11  12
ATOM     12  C   UNL     1       1.102  13.218  18.493  0.00  0.00    +0.000 C 
BRANCH  12  14
ATOM     13  C   UNL     1       3.169  14.339  18.044  0.00  0.00    +0.000 C 
ATOM     14  N   UNL     1       2.349  13.174  17.727  0.00  0.00    +0.000 NA
ATOM     15  H   UNL     1       2.887  12.313  17.992  0.00  0.00    +0.000 HD
ENDBRANCH  12  14
ENDBRANCH  11  12
ENDBRANCH  10  11
ENDBRANCH   9  10
ENDBRANCH   7   9
ENDBRANCH   6   7
ENDBRANCH   5   6
ENDBRANCH   4   5
ENDBRANCH   3   4
ENDBRANCH   1   3
BRANCH   1  16
ATOM     16  C   UNL     1       2.497   7.104  18.479  0.00  0.00    +0.000 C 
BRANCH  16  17
ATOM     17  C   UNL     1       3.022   5.713  18.222  0.00  0.00    +0.000 A 
ATOM     18  C   UNL     1       2.491   4.607  18.960  0.00  0.00    +0.000 A 
ATOM     19  C   UNL     1       1.487   4.757  19.955  0.00  0.00    +0.000 A 
ATOM     20  C   UNL     1       0.979   3.652  20.638  0.00  0.00    +0.000 A 
ATOM     21  C   UNL     1       1.458   2.376  20.359  0.00  0.00    +0.000 A 
ATOM     22  C   UNL     1       2.451   2.199  19.398  0.00  0.00    +0.000 A 
ATOM     23  C   UNL     1       2.972   3.300  18.696  0.00  0.00    +0.000 A 
ATOM     24  C   UNL     1       3.966   3.100  17.733  0.00  0.00    +0.000 A 
ATOM     25  C   UNL     1       4.500   4.173  17.017  0.00  0.00    +0.000 A 
ATOM     26  C   UNL     1       5.506   3.939  16.063  0.00  0.00    +0.000 A 
ATOM     27  C   UNL     1       6.063   4.997  15.343  0.00  0.00    +0.000 A 
ATOM     28  C   UNL     1       5.627   6.298  15.573  0.00  0.00    +0.000 A 
ATOM     29  C   UNL     1       4.631   6.550  16.513  0.00  0.00    +0.000 A 
ATOM     30  C   UNL     1       4.039   5.494  17.253  0.00  0.00    +0.000 A 
ENDBRANCH  16  17
ENDBRANCH   1  16
TORSDOF 12
ENDMDL
MODEL 8
REMARK VINA RESULT:      -6.7      1.854      4.391
REMARK  Name = 
REMARK  13 active torsions:
REMARK  status: ('A' for Active; 'I' for Inactive)
REMARK    1  A    between atoms: C_1  and  N_2
REMARK    2  A    between atoms: N_2  and  C_3
REMARK    3  A    between atoms: C_3  and  C_4
REMARK    4  A    between atoms: C_4  and  C_5
REMARK    5  A    between atoms: C_5  and  C_6
REMARK    6  A    between atoms: C_6  and  N_7
REMARK    7  A    between atoms: N_7  and  C_8
REMARK    8  A    between atoms: C_8  and  C_9
REMARK    9  A    between atoms: C_9  and  C_10
REMARK   10  A    between atoms: C_10  and  C_11
REMARK   11  A    between atoms: C_11  and  N_12
REMARK   12  A    between atoms: N_12  and  C_13
REMARK   13  A    between atoms: C_13  and  C_14
REMARK                            x       y       z     vdW  Elec       q    Type
REMARK                         _______ _______ _______ _____ _____    ______ ____
ROOT
ATOM      1  N   UNL     1       2.099   7.775  17.854  0.00  0.00    +0.000 NA
ATOM      2  H   UNL     1       2.399   7.995  16.877  0.00  0.00    +0.000 HD
ENDROOT
BRANCH   1   3
ATOM      3  C   UNL     1       1.547   8.981  18.480  0.00  0.00    +0.000 C 
BRANCH   3   4
ATOM      4  C   UNL     1       1.365   8.779  19.986  0.00  0.00    +0.000 C 
BRANCH   4   5
ATOM      5  C   UNL     1       0.719   9.982  20.638  0.00  0.00    +0.000 C 
BRANCH   5   6
ATOM      6  C   UNL     1       0.097   9.540  21.957  0.00  0.00    +0.000 C 
BRANCH   6   7
ATOM      7  N   UNL     1      -0.073  10.699  22.817  0.00  0.00    +0.000 NA
ATOM      8  H   UNL     1      -0.168  10.369  23.808  0.00  0.00    +0.000 HD
BRANCH   7   9
ATOM      9  C   UNL     1      -1.278  11.438  22.441  0.00  0.00    +0.000 C 
BRANCH   9  10
ATOM     10  C   UNL     1      -1.171  12.866  22.955  0.00  0.00    +0.000 C 
BRANCH  10  11
ATOM     11  C   UNL     1      -2.473  13.315  23.630  0.00  0.00    +0.000 C 
BRANCH  11  12
ATOM     12  C   UNL     1      -3.576  12.300  23.354  0.00  0.00    +0.000 C 
BRANCH  12  14
ATOM     13  C   UNL     1      -5.129  14.088  23.708  0.00  0.00    +0.000 C 
ATOM     14  N   UNL     1      -4.817  12.697  24.023  0.00  0.00    +0.000 NA
ATOM     15  H   UNL     1      -5.604  12.098  23.675  0.00  0.00    +0.000 HD
ENDBRANCH  12  14
ENDBRANCH  11  12
ENDBRANCH  10  11
ENDBRANCH   9  10
ENDBRANCH   7   9
ENDBRANCH   6   7
ENDBRANCH   5   6
ENDBRANCH   4   5
ENDBRANCH   3   4
ENDBRANCH   1   3
BRANCH   1  16
ATOM     16  C   UNL     1       3.207   7.200  18.630  0.00  0.00    +0.000 C 
BRANCH  16  17
ATOM     17  C   UNL     1       3.394   5.751  18.256  0.00  0.00    +0.000 A 
ATOM     18  C   UNL     1       4.242   5.406  17.156  0.00  0.00    +0.000 A 
ATOM     19  C   UNL     1       4.918   6.380  16.371  0.00  0.00    +0.000 A 
ATOM     20  C   UNL     1       5.754   6.004  15.319  0.00  0.00    +0.000 A 
ATOM     21  C   UNL     1       5.934   4.658  15.016  0.00  0.00    +0.000 A 
ATOM     22  C   UNL     1       5.275   3.682  15.760  0.00  0.00    +0.000 A 
ATOM     23  C   UNL     1       4.432   4.041  16.825  0.00  0.00    +0.000 A 
ATOM     24  C   UNL     1       3.783   3.045  17.561  0.00  0.00    +0.000 A 
ATOM     25  C   UNL     1       2.942   3.370  18.628  0.00  0.00    +0.000 A 
ATOM     26  C   UNL     1       2.296   2.346  19.340  0.00  0.00    +0.000 A 
ATOM     27  C   UNL     1       1.443   2.647  20.403  0.00  0.00    +0.000 A 
ATOM     28  C   UNL     1       1.221   3.973  20.759  0.00  0.00    +0.000 A 
ATOM     29  C   UNL     1       1.852   5.003  20.066  0.00  0.00    +0.000 A 
ATOM     30  C   UNL     1       2.733   4.727  18.989  0.00  0.00    +0.000 A 
ENDBRANCH  16  17
ENDBRANCH   1  16
TORSDOF 12
ENDMDL
MODEL 9
REMARK VINA RESULT:      -6.7      1.934      4.624
REMARK  Name = 
REMARK  13 active torsions:
REMARK  status: ('A' for Active; 'I' for Inactive)
REMARK    1  A    between atoms: C_1  and  N_2
REMARK    2  A    between atoms: N_2  and  C_3
REMARK    3  A    between atoms: C_3  and  C_4
REMARK    4  A    between atoms: C_4  and  C_5
REMARK    5  A    between atoms: C_5  and  C_6
REMARK    6  A    between atoms: C_6  and  N_7
REMARK    7  A    between atoms: N_7  and  C_8
REMARK    8  A    between atoms: C_8  and  C_9
REMARK    9  A    between atoms: C_9  and  C_10
REMARK   10  A    between atoms: C_10  and  C_11
REMARK   11  A    between atoms: C_11  and  N_12
REMARK   12  A    between atoms: N_12  and  C_13
REMARK   13  A    between atoms: C_13  and  C_14
REMARK                            x       y       z     vdW  Elec       q    Type
REMARK                         _______ _______ _______ _____ _____    ______ ____
ROOT
ATOM      1  N   UNL     1       2.247   7.945  18.713  0.00  0.00    +0.000 NA
ATOM      2  H   UNL     1       1.434   8.092  19.355  0.00  0.00    +0.000 HD
ENDROOT
BRANCH   1   3
ATOM      3  C   UNL     1       2.418   9.125  17.860  0.00  0.00    +0.000 C 
BRANCH   3   4
ATOM      4  C   UNL     1       1.529  10.275  18.335  0.00  0.00    +0.000 C 
BRANCH   4   5
ATOM      5  C   UNL     1       0.371   9.779  19.174  0.00  0.00    +0.000 C 
BRANCH   5   6
ATOM      6  C   UNL     1      -0.928  10.220  18.512  0.00  0.00    +0.000 C 
BRANCH   6   7
ATOM      7  N   UNL     1      -0.767  11.569  17.997  0.00  0.00    +0.000 NA
ATOM      8  H   UNL     1       0.151  11.948  18.331  0.00  0.00    +0.000 HD
BRANCH   7   9
ATOM      9  C   UNL     1      -1.846  12.431  18.482  0.00  0.00    +0.000 C 
BRANCH   9  10
ATOM     10  C   UNL     1      -3.065  11.577  18.798  0.00  0.00    +0.000 C 
BRANCH  10  11
ATOM     11  C   UNL     1      -4.244  11.928  17.881  0.00  0.00    +0.000 C 
BRANCH  11  12
ATOM     12  C   UNL     1      -4.268  10.984  16.684  0.00  0.00    +0.000 C 
BRANCH  12  14
ATOM     13  C   UNL     1      -2.913  10.243  14.853  0.00  0.00    +0.000 C 
ATOM     14  N   UNL     1      -3.262  11.383  15.697  0.00  0.00    +0.000 NA
ATOM     15  H   UNL     1      -3.659  12.135  15.083  0.00  0.00    +0.000 HD
ENDBRANCH  12  14
ENDBRANCH  11  12
ENDBRANCH  10  11
ENDBRANCH   9  10
ENDBRANCH   7   9
ENDBRANCH   6   7
ENDBRANCH   5   6
ENDBRANCH   4   5
ENDBRANCH   3   4
ENDBRANCH   1   3
BRANCH   1  16
ATOM     16  C   UNL     1       2.087   6.710  17.933  0.00  0.00    +0.000 C 
BRANCH  16  17
ATOM     17  C   UNL     1       3.067   5.670  18.417  0.00  0.00    +0.000 A 
ATOM     18  C   UNL     1       4.429   5.720  17.977  0.00  0.00    +0.000 A 
ATOM     19  C   UNL     1       4.910   6.709  17.075  0.00  0.00    +0.000 A 
ATOM     20  C   UNL     1       6.250   6.738  16.686  0.00  0.00    +0.000 A 
ATOM     21  C   UNL     1       7.140   5.786  17.173  0.00  0.00    +0.000 A 
ATOM     22  C   UNL     1       6.694   4.797  18.048  0.00  0.00    +0.000 A 
ATOM     23  C   UNL     1       5.350   4.755  18.454  0.00  0.00    +0.000 A 
ATOM     24  C   UNL     1       4.924   3.756  19.336  0.00  0.00    +0.000 A 
ATOM     25  C   UNL     1       3.596   3.690  19.762  0.00  0.00    +0.000 A 
ATOM     26  C   UNL     1       3.198   2.668  20.640  0.00  0.00    +0.000 A 
ATOM     27  C   UNL     1       1.874   2.574  21.070  0.00  0.00    +0.000 A 
ATOM     28  C   UNL     1       0.932   3.496  20.622  0.00  0.00    +0.000 A 
ATOM     29  C   UNL     1       1.307   4.517  19.752  0.00  0.00    +0.000 A 
ATOM     30  C   UNL     1       2.648   4.643  19.306  0.00  0.00    +0.000 A 
ENDBRANCH  16  17
ENDBRANCH   1  16
TORSDOF 12
ENDMDL
