MODEL 1
REMARK VINA RESULT:      -7.8      0.000      0.000
REMARK  Name = 
REMARK  9 active torsions:
REMARK  status: ('A' for Active; 'I' for Inactive)
REMARK    1  A    between atoms: C_1  and  O_2
REMARK    2  A    between atoms: O_2  and  C_3
REMARK    3  A    between atoms: C_3  and  C_5
REMARK    4  A    between atoms: C_6  and  C_7
REMARK    5  A    between atoms: C_7  and  S_8
REMARK    6  A    between atoms: S_8  and  C_9
REMARK    7  A    between atoms: C_22  and  C_23
REMARK    8  A    between atoms: C_25  and  C_26
REMARK    9  A    between atoms: C_29  and  C_30
REMARK                            x       y       z     vdW  Elec       q    Type
REMARK                         _______ _______ _______ _____ _____    ______ ____
ROOT
ATOM      1  C   UNL     1       0.358  10.133  20.367  0.00  0.00    +0.000 C 
ATOM      2  C   UNL     1       1.297   9.643  19.521  0.00  0.00    +0.000 C 
ATOM      3  N   UNL     1       1.820  10.511  18.572  0.00  0.00    +0.000 N 
ATOM      4  C   UNL     1       1.609  11.859  18.528  0.00  0.00    +0.000 C 
ATOM      5  O   UNL     1       2.201  12.583  17.743  0.00  0.00    +0.000 OA
ATOM      6  N   UNL     1       0.718  12.345  19.431  0.00  0.00    +0.000 N 
ATOM      7  C   UNL     1      -0.249  11.498  20.109  0.00  0.00    +0.000 C 
ATOM      8  H   UNL     1       2.523  10.189  17.915  0.00  0.00    +0.000 HD
ATOM      9  H   UNL     1       0.500  13.324  19.317  0.00  0.00    +0.000 HD
ENDROOT
BRANCH   7  10
ATOM     10  C   UNL     1      -1.557  11.443  19.298  0.00  0.00    +0.000 A 
ATOM     11  C   UNL     1      -1.623  10.648  18.128  0.00  0.00    +0.000 A 
ATOM     12  C   UNL     1      -2.766  10.589  17.321  0.00  0.00    +0.000 A 
ATOM     13  C   UNL     1      -2.784   9.754  16.076  0.00  0.00    +0.000 C 
ATOM     14  C   UNL     1      -3.884  11.330  17.690  0.00  0.00    +0.000 A 
ATOM     15  C   UNL     1      -3.856  12.112  18.843  0.00  0.00    +0.000 A 
ATOM     16  C   UNL     1      -2.705  12.183  19.656  0.00  0.00    +0.000 A 
ATOM     17  C   UNL     1      -2.763  13.052  20.881  0.00  0.00    +0.000 C 
ENDBRANCH   7  10
BRANCH   1  18
ATOM     18  C   UNL     1      -0.146   9.481  21.609  0.00  0.00    +0.000 C 
ATOM     19  O   UNL     1      -0.682   8.382  21.614  0.00  0.00    +0.000 OA
BRANCH  18  21
ATOM     20  C   UNL     1      -1.223  10.761  23.281  0.00  0.00    +0.000 C 
ATOM     21  O   UNL     1      -0.017  10.271  22.694  0.00  0.00    +0.000 OA
ENDBRANCH  18  21
ENDBRANCH   1  18
BRANCH   2  22
ATOM     22  C   UNL     1       1.904   8.254  19.507  0.00  0.00    +0.000 C 
BRANCH  22  23
ATOM     23  S   UNL     1       2.778   7.931  17.939  0.00  0.00    +0.000 S 
BRANCH  23  24
ATOM     24  C   UNL     1       2.986   6.209  18.074  0.00  0.00    +0.000 A 
ATOM     25  N   UNL     1       2.041   5.339  17.769  0.00  0.00    +0.000 NA
ATOM     26  C   UNL     1       2.536   4.147  18.223  0.00  0.00    +0.000 A 
ATOM     27  C   UNL     1       1.956   2.875  18.275  0.00  0.00    +0.000 A 
ATOM     28  C   UNL     1       2.688   1.842  18.879  0.00  0.00    +0.000 A 
ATOM     29  C   UNL     1       3.975   2.067  19.387  0.00  0.00    +0.000 A 
ATOM     30  C   UNL     1       4.579   3.329  19.313  0.00  0.00    +0.000 A 
ATOM     31  C   UNL     1       3.808   4.330  18.736  0.00  0.00    +0.000 A 
ATOM     32  O   UNL     1       4.119   5.652  18.613  0.00  0.00    +0.000 OA
ENDBRANCH  23  24
ENDBRANCH  22  23
ENDBRANCH   2  22
TORSDOF 6
ENDMDL
MODEL 2
REMARK VINA RESULT:      -7.8      1.234      1.757
REMARK  Name = 
REMARK  9 active torsions:
REMARK  status: ('A' for Active; 'I' for Inactive)
REMARK    1  A    between atoms: C_1  and  O_2
REMARK    2  A    between atoms: O_2  and  C_3
REMARK    3  A    between atoms: C_3  and  C_5
REMARK    4  A    between atoms: C_6  and  C_7
REMARK    5  A    between atoms: C_7  and  S_8
REMARK    6  A    between atoms: S_8  and  C_9
REMARK    7  A    between atoms: C_22  and  C_23
REMARK    8  A    between atoms: C_25  and  C_26
REMARK    9  A    between atoms: C_29  and  C_30
REMARK                            x       y       z     vdW  Elec       q    Type
REMARK                         _______ _______ _______ _____ _____    ______ ____
ROOT
ATOM      1  C   UNL     1       0.900  10.025  19.929  0.00  0.00    +0.000 C 
ATOM      2  C   UNL     1       1.310   9.869  18.645  0.00  0.00    +0.000 C 
ATOM      3  N   UNL     1       1.675  11.010  17.945  0.00  0.00    +0.000 N 
ATOM      4  C   UNL     1       1.834  12.254  18.484  0.00  0.00    +0.000 C 
ATOM      5  O   UNL     1       2.281  13.189  17.838  0.00  0.00    +0.000 OA
ATOM      6  N   UNL     1       1.487  12.378  19.792  0.00  0.00    +0.000 N 
ATOM      7  C   UNL     1       0.634  11.416  20.469  0.00  0.00    +0.000 C 
ATOM      8  H   UNL     1       1.985  10.943  16.982  0.00  0.00    +0.000 HD
ATOM      9  H   UNL     1       1.515  13.324  20.144  0.00  0.00    +0.000 HD
ENDROOT
BRANCH   7  10
ATOM     10  C   UNL     1      -0.840  11.848  20.348  0.00  0.00    +0.000 A 
ATOM     11  C   UNL     1      -1.589  11.470  19.206  0.00  0.00    +0.000 A 
ATOM     12  C   UNL     1      -2.918  11.867  19.014  0.00  0.00    +0.000 A 
ATOM     13  C   UNL     1      -3.667  11.467  17.778  0.00  0.00    +0.000 C 
ATOM     14  C   UNL     1      -3.530  12.650  19.987  0.00  0.00    +0.000 A 
ATOM     15  C   UNL     1      -2.825  13.027  21.128  0.00  0.00    +0.000 A 
ATOM     16  C   UNL     1      -1.482  12.639  21.325  0.00  0.00    +0.000 A 
ATOM     17  C   UNL     1      -0.798  13.091  22.585  0.00  0.00    +0.000 C 
ENDBRANCH   7  10
BRANCH   1  18
ATOM     18  C   UNL     1       0.713   8.946  20.939  0.00  0.00    +0.000 C 
ATOM     19  O   UNL     1       1.535   8.061  21.130  0.00  0.00    +0.000 OA
BRANCH  18  21
ATOM     20  C   UNL     1      -0.482   9.271  22.954  0.00  0.00    +0.000 C 
ATOM     21  O   UNL     1      -0.487   9.015  21.549  0.00  0.00    +0.000 OA
ENDBRANCH  18  21
ENDBRANCH   1  18
BRANCH   2  22
ATOM     22  C   UNL     1       1.473   8.575  17.871  0.00  0.00    +0.000 C 
BRANCH  22  23
ATOM     23  S   UNL     1       3.227   8.087  17.765  0.00  0.00    +0.000 S 
BRANCH  23  24
ATOM     24  C   UNL     1       3.072   6.383  18.081  0.00  0.00    +0.000 A 
ATOM     25  N   UNL     1       3.854   5.471  17.535  0.00  0.00    +0.000 NA
ATOM     26  C   UNL     1       3.257   4.286  17.871  0.00  0.00    +0.000 A 
ATOM     27  C   UNL     1       3.561   2.971  17.503  0.00  0.00    +0.000 A 
ATOM     28  C   UNL     1       2.708   1.949  17.944  0.00  0.00    +0.000 A 
ATOM     29  C   UNL     1       1.600   2.231  18.756  0.00  0.00    +0.000 A 
ATOM     30  C   UNL     1       1.302   3.540  19.157  0.00  0.00    +0.000 A 
ATOM     31  C   UNL     1       2.154   4.524  18.672  0.00  0.00    +0.000 A 
ATOM     32  O   UNL     1       2.048   5.874  18.840  0.00  0.00    +0.000 OA
ENDBRANCH  23  24
ENDBRANCH  22  23
ENDBRANCH   2  22
TORSDOF 6
ENDMDL
MODEL 3
REMARK VINA RESULT:      -7.8      5.906      9.883
REMARK  Name = 
REMARK  9 active torsions:
REMARK  status: ('A' for Active; 'I' for Inactive)
REMARK    1  A    between atoms: C_1  and  O_2
REMARK    2  A    between atoms: O_2  and  C_3
REMARK    3  A    between atoms: C_3  and  C_5
REMARK    4  A    between atoms: C_6  and  C_7
REMARK    5  A    between atoms: C_7  and  S_8
REMARK    6  A    between atoms: S_8  and  C_9
REMARK    7  A    between atoms: C_22  and  C_23
REMARK    8  A    between atoms: C_25  and  C_26
REMARK    9  A    between atoms: C_29  and  C_30
REMARK                            x       y       z     vdW  Elec       q    Type
REMARK                         _______ _______ _______ _____ _____    ______ ____
ROOT
ATOM      1  C   UNL     1       6.780   5.998  17.060  0.00  0.00    +0.000 C 
ATOM      2  C   UNL     1       7.552   6.891  17.729  0.00  0.00    +0.000 C 
ATOM      3  N   UNL     1       7.864   6.606  19.050  0.00  0.00    +0.000 N 
ATOM      4  C   UNL     1       7.620   5.422  19.685  0.00  0.00    +0.000 C 
ATOM      5  O   UNL     1       8.035   5.191  20.810  0.00  0.00    +0.000 OA
ATOM      6  N   UNL     1       6.906   4.510  18.975  0.00  0.00    +0.000 N 
ATOM      7  C   UNL     1       6.106   4.872  17.819  0.00  0.00    +0.000 C 
ATOM      8  H   UNL     1       8.436   7.245  19.591  0.00  0.00    +0.000 HD
ATOM      9  H   UNL     1       6.649   3.683  19.496  0.00  0.00    +0.000 HD
ENDROOT
BRANCH   7  10
ATOM     10  C   UNL     1       4.668   5.206  18.261  0.00  0.00    +0.000 A 
ATOM     11  C   UNL     1       4.155   6.509  18.048  0.00  0.00    +0.000 A 
ATOM     12  C   UNL     1       2.874   6.891  18.466  0.00  0.00    +0.000 A 
ATOM     13  C   UNL     1       2.380   8.289  18.246  0.00  0.00    +0.000 C 
ATOM     14  C   UNL     1       2.070   5.951  19.102  0.00  0.00    +0.000 A 
ATOM     15  C   UNL     1       2.540   4.656  19.313  0.00  0.00    +0.000 A 
ATOM     16  C   UNL     1       3.833   4.266  18.903  0.00  0.00    +0.000 A 
ATOM     17  C   UNL     1       4.258   2.849  19.172  0.00  0.00    +0.000 C 
ENDBRANCH   7  10
BRANCH   1  18
ATOM     18  C   UNL     1       6.536   5.959  15.591  0.00  0.00    +0.000 C 
ATOM     19  O   UNL     1       5.574   6.495  15.061  0.00  0.00    +0.000 OA
BRANCH  18  21
ATOM     20  C   UNL     1       6.992   4.521  13.769  0.00  0.00    +0.000 C 
ATOM     21  O   UNL     1       7.444   5.205  14.938  0.00  0.00    +0.000 OA
ENDBRANCH  18  21
ENDBRANCH   1  18
BRANCH   2  22
ATOM     22  C   UNL     1       8.174   8.166  17.194  0.00  0.00    +0.000 C 
BRANCH  22  23
ATOM     23  S   UNL     1       7.465   9.638  18.006  0.00  0.00    +0.000 S 
BRANCH  23  24
ATOM     24  C   UNL     1       8.917  10.570  18.233  0.00  0.00    +0.000 A 
ATOM     25  N   UNL     1       9.777  10.345  19.208  0.00  0.00    +0.000 NA
ATOM     26  C   UNL     1      10.626  11.417  19.147  0.00  0.00    +0.000 A 
ATOM     27  C   UNL     1      11.685  11.795  19.981  0.00  0.00    +0.000 A 
ATOM     28  C   UNL     1      12.333  13.009  19.712  0.00  0.00    +0.000 A 
ATOM     29  C   UNL     1      11.956  13.806  18.622  0.00  0.00    +0.000 A 
ATOM     30  C   UNL     1      10.918  13.424  17.762  0.00  0.00    +0.000 A 
ATOM     31  C   UNL     1      10.282  12.231  18.083  0.00  0.00    +0.000 A 
ATOM     32  O   UNL     1       9.200  11.674  17.467  0.00  0.00    +0.000 OA
ENDBRANCH  23  24
ENDBRANCH  22  23
ENDBRANCH   2  22
TORSDOF 6
ENDMDL
MODEL 4
REMARK VINA RESULT:      -7.8      2.250      4.000
REMARK  Name = 
REMARK  9 active torsions:
REMARK  status: ('A' for Active; 'I' for Inactive)
REMARK    1  A    between atoms: C_1  and  O_2
REMARK    2  A    between atoms: O_2  and  C_3
REMARK    3  A    between atoms: C_3  and  C_5
REMARK    4  A    between atoms: C_6  and  C_7
REMARK    5  A    between atoms: C_7  and  S_8
REMARK    6  A    between atoms: S_8  and  C_9
REMARK    7  A    between atoms: C_22  and  C_23
REMARK    8  A    between atoms: C_25  and  C_26
REMARK    9  A    between atoms: C_29  and  C_30
REMARK                            x       y       z     vdW  Elec       q    Type
REMARK                         _______ _______ _______ _____ _____    ______ ____
ROOT
ATOM      1  C   UNL     1      -0.302  10.719  19.438  0.00  0.00    +0.000 C 
ATOM      2  C   UNL     1       0.631   9.749  19.272  0.00  0.00    +0.000 C 
ATOM      3  N   UNL     1       1.326   9.329  20.398  0.00  0.00    +0.000 N 
ATOM      4  C   UNL     1       1.030   9.672  21.686  0.00  0.00    +0.000 C 
ATOM      5  O   UNL     1       1.601   9.166  22.639  0.00  0.00    +0.000 OA
ATOM      6  N   UNL     1       0.044  10.593  21.838  0.00  0.00    +0.000 N 
ATOM      7  C   UNL     1      -0.389  11.461  20.757  0.00  0.00    +0.000 C 
ATOM      8  H   UNL     1       2.035   8.607  20.323  0.00  0.00    +0.000 HD
ATOM      9  H   UNL     1      -0.091  10.908  22.788  0.00  0.00    +0.000 HD
ENDROOT
BRANCH   7  10
ATOM     10  C   UNL     1       0.424  12.769  20.779  0.00  0.00    +0.000 A 
ATOM     11  C   UNL     1       1.470  12.959  19.843  0.00  0.00    +0.000 A 
ATOM     12  C   UNL     1       2.276  14.105  19.838  0.00  0.00    +0.000 A 
ATOM     13  C   UNL     1       3.391  14.255  18.847  0.00  0.00    +0.000 C 
ATOM     14  C   UNL     1       2.030  15.100  20.778  0.00  0.00    +0.000 A 
ATOM     15  C   UNL     1       0.999  14.950  21.703  0.00  0.00    +0.000 A 
ATOM     16  C   UNL     1       0.188  13.794  21.720  0.00  0.00    +0.000 A 
ATOM     17  C   UNL     1      -0.902  13.716  22.754  0.00  0.00    +0.000 C 
ENDBRANCH   7  10
BRANCH   1  18
ATOM     18  C   UNL     1      -1.333  11.138  18.447  0.00  0.00    +0.000 C 
ATOM     19  O   UNL     1      -1.347  12.244  17.927  0.00  0.00    +0.000 OA
BRANCH  18  21
ATOM     20  C   UNL     1      -2.638   9.902  16.910  0.00  0.00    +0.000 C 
ATOM     21  O   UNL     1      -2.280  10.196  18.261  0.00  0.00    +0.000 OA
ENDBRANCH  18  21
ENDBRANCH   1  18
BRANCH   2  22
ATOM     22  C   UNL     1       0.989   9.009  17.998  0.00  0.00    +0.000 C 
BRANCH  22  23
ATOM     23  S   UNL     1       2.724   8.448  18.026  0.00  0.00    +0.000 S 
BRANCH  23  24
ATOM     24  C   UNL     1       2.487   6.804  18.545  0.00  0.00    +0.000 A 
ATOM     25  N   UNL     1       2.410   5.785  17.710  0.00  0.00    +0.000 NA
ATOM     26  C   UNL     1       2.008   4.743  18.502  0.00  0.00    +0.000 A 
ATOM     27  C   UNL     1       1.661   3.427  18.178  0.00  0.00    +0.000 A 
ATOM     28  C   UNL     1       1.202   2.594  19.209  0.00  0.00    +0.000 A 
ATOM     29  C   UNL     1       1.124   3.054  20.531  0.00  0.00    +0.000 A 
ATOM     30  C   UNL     1       1.499   4.361  20.874  0.00  0.00    +0.000 A 
ATOM     31  C   UNL     1       1.917   5.161  19.818  0.00  0.00    +0.000 A 
ATOM     32  O   UNL     1       2.256   6.481  19.859  0.00  0.00    +0.000 OA
ENDBRANCH  23  24
ENDBRANCH  22  23
ENDBRANCH   2  22
TORSDOF 6
ENDMDL
MODEL 5
REMARK VINA RESULT:      -7.7      1.110      1.538
REMARK  Name = 
REMARK  9 active torsions:
REMARK  status: ('A' for Active; 'I' for Inactive)
REMARK    1  A    between atoms: C_1  and  O_2
REMARK    2  A    between atoms: O_2  and  C_3
REMARK    3  A    between atoms: C_3  and  C_5
REMARK    4  A    between atoms: C_6  and  C_7
REMARK    5  A    between atoms: C_7  and  S_8
REMARK    6  A    between atoms: S_8  and  C_9
REMARK    7  A    between atoms: C_22  and  C_23
REMARK    8  A    between atoms: C_25  and  C_26
REMARK    9  A    between atoms: C_29  and  C_30
REMARK                            x       y       z     vdW  Elec       q    Type
REMARK                         _______ _______ _______ _____ _____    ______ ____
ROOT
ATOM      1  C   UNL     1       0.939   9.954  19.901  0.00  0.00    +0.000 C 
ATOM      2  C   UNL     1       1.358   9.809  18.619  0.00  0.00    +0.000 C 
ATOM      3  N   UNL     1       1.738  10.956  17.936  0.00  0.00    +0.000 N 
ATOM      4  C   UNL     1       1.902  12.192  18.492  0.00  0.00    +0.000 C 
ATOM      5  O   UNL     1       2.362  13.131  17.861  0.00  0.00    +0.000 OA
ATOM      6  N   UNL     1       1.545  12.303  19.798  0.00  0.00    +0.000 N 
ATOM      7  C   UNL     1       0.679  11.341  20.456  0.00  0.00    +0.000 C 
ATOM      8  H   UNL     1       2.055  10.898  16.975  0.00  0.00    +0.000 HD
ATOM      9  H   UNL     1       1.578  13.245  20.161  0.00  0.00    +0.000 HD
ENDROOT
BRANCH   7  10
ATOM     10  C   UNL     1      -0.791  11.785  20.327  0.00  0.00    +0.000 A 
ATOM     11  C   UNL     1      -1.535  11.421  19.179  0.00  0.00    +0.000 A 
ATOM     12  C   UNL     1      -2.860  11.829  18.980  0.00  0.00    +0.000 A 
ATOM     13  C   UNL     1      -3.604  11.443  17.737  0.00  0.00    +0.000 C 
ATOM     14  C   UNL     1      -3.472  12.613  19.953  0.00  0.00    +0.000 A 
ATOM     15  C   UNL     1      -2.771  12.977  21.101  0.00  0.00    +0.000 A 
ATOM     16  C   UNL     1      -1.433  12.576  21.305  0.00  0.00    +0.000 A 
ATOM     17  C   UNL     1      -0.753  13.015  22.572  0.00  0.00    +0.000 C 
ENDBRANCH   7  10
BRANCH   1  18
ATOM     18  C   UNL     1       0.735   8.865  20.897  0.00  0.00    +0.000 C 
ATOM     19  O   UNL     1       1.532   7.952  21.060  0.00  0.00    +0.000 OA
BRANCH  18  21
ATOM     20  C   UNL     1      -0.419   9.208  22.934  0.00  0.00    +0.000 C 
ATOM     21  O   UNL     1      -0.454   8.960  21.528  0.00  0.00    +0.000 OA
ENDBRANCH  18  21
ENDBRANCH   1  18
BRANCH   2  22
ATOM     22  C   UNL     1       1.517   8.524  17.832  0.00  0.00    +0.000 C 
BRANCH  22  23
ATOM     23  S   UNL     1       3.235   7.915  17.905  0.00  0.00    +0.000 S 
BRANCH  23  24
ATOM     24  C   UNL     1       2.932   6.202  17.943  0.00  0.00    +0.000 A 
ATOM     25  N   UNL     1       1.887   5.664  18.542  0.00  0.00    +0.000 NA
ATOM     26  C   UNL     1       2.153   4.322  18.522  0.00  0.00    +0.000 A 
ATOM     27  C   UNL     1       1.465   3.243  19.089  0.00  0.00    +0.000 A 
ATOM     28  C   UNL     1       2.031   1.966  18.970  0.00  0.00    +0.000 A 
ATOM     29  C   UNL     1       3.233   1.768  18.276  0.00  0.00    +0.000 A 
ATOM     30  C   UNL     1       3.916   2.835  17.676  0.00  0.00    +0.000 A 
ATOM     31  C   UNL     1       3.337   4.087  17.846  0.00  0.00    +0.000 A 
ATOM     32  O   UNL     1       3.830   5.292  17.440  0.00  0.00    +0.000 OA
ENDBRANCH  23  24
ENDBRANCH  22  23
ENDBRANCH   2  22
TORSDOF 6
ENDMDL
MODEL 6
REMARK VINA RESULT:      -7.7      2.234      4.014
REMARK  Name = 
REMARK  9 active torsions:
REMARK  status: ('A' for Active; 'I' for Inactive)
REMARK    1  A    between atoms: C_1  and  O_2
REMARK    2  A    between atoms: O_2  and  C_3
REMARK    3  A    between atoms: C_3  and  C_5
REMARK    4  A    between atoms: C_6  and  C_7
REMARK    5  A    between atoms: C_7  and  S_8
REMARK    6  A    between atoms: S_8  and  C_9
REMARK    7  A    between atoms: C_22  and  C_23
REMARK    8  A    between atoms: C_25  and  C_26
REMARK    9  A    between atoms: C_29  and  C_30
REMARK                            x       y       z     vdW  Elec       q    Type
REMARK                         _______ _______ _______ _____ _____    ______ ____
ROOT
ATOM      1  C   UNL     1       0.604  11.810  18.833  0.00  0.00    +0.000 C 
ATOM      2  C   UNL     1       0.540  10.592  18.240  0.00  0.00    +0.000 C 
ATOM      3  N   UNL     1      -0.704  10.154  17.807  0.00  0.00    +0.000 N 
ATOM      4  C   UNL     1      -1.839  10.911  17.760  0.00  0.00    +0.000 C 
ATOM      5  O   UNL     1      -2.870  10.503  17.250  0.00  0.00    +0.000 OA
ATOM      6  N   UNL     1      -1.740  12.156  18.295  0.00  0.00    +0.000 N 
ATOM      7  C   UNL     1      -0.676  12.530  19.211  0.00  0.00    +0.000 C 
ATOM      8  H   UNL     1      -0.801   9.249  17.360  0.00  0.00    +0.000 HD
ATOM      9  H   UNL     1      -2.612  12.661  18.343  0.00  0.00    +0.000 HD
ENDROOT
BRANCH   7  10
ATOM     10  C   UNL     1      -1.120  12.268  20.663  0.00  0.00    +0.000 A 
ATOM     11  C   UNL     1      -0.595  11.156  21.366  0.00  0.00    +0.000 A 
ATOM     12  C   UNL     1      -0.990  10.836  22.671  0.00  0.00    +0.000 A 
ATOM     13  C   UNL     1      -0.430   9.634  23.370  0.00  0.00    +0.000 C 
ATOM     14  C   UNL     1      -1.923  11.649  23.306  0.00  0.00    +0.000 A 
ATOM     15  C   UNL     1      -2.448  12.759  22.647  0.00  0.00    +0.000 A 
ATOM     16  C   UNL     1      -2.061  13.083  21.328  0.00  0.00    +0.000 A 
ATOM     17  C   UNL     1      -2.678  14.299  20.694  0.00  0.00    +0.000 C 
ENDBRANCH   7  10
BRANCH   1  18
ATOM     18  C   UNL     1       1.838  12.588  19.136  0.00  0.00    +0.000 C 
ATOM     19  O   UNL     1       2.243  12.780  20.273  0.00  0.00    +0.000 OA
BRANCH  18  21
ATOM     20  C   UNL     1       2.855  14.464  18.117  0.00  0.00    +0.000 C 
ATOM     21  O   UNL     1       2.399  13.114  18.028  0.00  0.00    +0.000 OA
ENDBRANCH  18  21
ENDBRANCH   1  18
BRANCH   2  22
ATOM     22  C   UNL     1       1.684   9.646  17.933  0.00  0.00    +0.000 C 
BRANCH  22  23
ATOM     23  S   UNL     1       1.768   8.295  19.155  0.00  0.00    +0.000 S 
BRANCH  23  24
ATOM     24  C   UNL     1       2.908   7.252  18.354  0.00  0.00    +0.000 A 
ATOM     25  N   UNL     1       3.800   7.687  17.484  0.00  0.00    +0.000 NA
ATOM     26  C   UNL     1       4.322   6.540  16.949  0.00  0.00    +0.000 A 
ATOM     27  C   UNL     1       5.238   6.349  15.910  0.00  0.00    +0.000 A 
ATOM     28  C   UNL     1       5.527   5.033  15.521  0.00  0.00    +0.000 A 
ATOM     29  C   UNL     1       4.942   3.939  16.174  0.00  0.00    +0.000 A 
ATOM     30  C   UNL     1       4.046   4.117  17.237  0.00  0.00    +0.000 A 
ATOM     31  C   UNL     1       3.763   5.436  17.569  0.00  0.00    +0.000 A 
ATOM     32  O   UNL     1       2.874   5.888  18.499  0.00  0.00    +0.000 OA
ENDBRANCH  23  24
ENDBRANCH  22  23
ENDBRANCH   2  22
TORSDOF 6
ENDMDL
MODEL 7
REMARK VINA RESULT:      -7.6      2.195      3.941
REMARK  Name = 
REMARK  9 active torsions:
REMARK  status: ('A' for Active; 'I' for Inactive)
REMARK    1  A    between atoms: C_1  and  O_2
REMARK    2  A    between atoms: O_2  and  C_3
REMARK    3  A    between atoms: C_3  and  C_5
REMARK    4  A    between atoms: C_6  and  C_7
REMARK    5  A    between atoms: C_7  and  S_8
REMARK    6  A    between atoms: S_8  and  C_9
REMARK    7  A    between atoms: C_22  and  C_23
REMARK    8  A    between atoms: C_25  and  C_26
REMARK    9  A    between atoms: C_29  and  C_30
REMARK                            x       y       z     vdW  Elec       q    Type
REMARK                         _______ _______ _______ _____ _____    ______ ____
ROOT
ATOM      1  C   UNL     1       0.630  11.956  18.853  0.00  0.00    +0.000 C 
ATOM      2  C   UNL     1       0.617  10.731  18.269  0.00  0.00    +0.000 C 
ATOM      3  N   UNL     1      -0.606  10.245  17.827  0.00  0.00    +0.000 N 
ATOM      4  C   UNL     1      -1.767  10.962  17.760  0.00  0.00    +0.000 C 
ATOM      5  O   UNL     1      -2.777  10.512  17.242  0.00  0.00    +0.000 OA
ATOM      6  N   UNL     1      -1.717  12.213  18.285  0.00  0.00    +0.000 N 
ATOM      7  C   UNL     1      -0.678  12.633  19.210  0.00  0.00    +0.000 C 
ATOM      8  H   UNL     1      -0.666   9.334  17.387  0.00  0.00    +0.000 HD
ATOM      9  H   UNL     1      -2.608  12.688  18.318  0.00  0.00    +0.000 HD
ENDROOT
BRANCH   7  10
ATOM     10  C   UNL     1      -1.129  12.368  20.658  0.00  0.00    +0.000 A 
ATOM     11  C   UNL     1      -0.633  11.237  21.351  0.00  0.00    +0.000 A 
ATOM     12  C   UNL     1      -1.036  10.915  22.653  0.00  0.00    +0.000 A 
ATOM     13  C   UNL     1      -0.506   9.693  23.341  0.00  0.00    +0.000 C 
ATOM     14  C   UNL     1      -1.949  11.745  23.295  0.00  0.00    +0.000 A 
ATOM     15  C   UNL     1      -2.447  12.873  22.646  0.00  0.00    +0.000 A 
ATOM     16  C   UNL     1      -2.051  13.199  21.331  0.00  0.00    +0.000 A 
ATOM     17  C   UNL     1      -2.638  14.436  20.707  0.00  0.00    +0.000 C 
ENDBRANCH   7  10
BRANCH   1  18
ATOM     18  C   UNL     1       1.833  12.779  19.162  0.00  0.00    +0.000 C 
ATOM     19  O   UNL     1       2.312  12.864  20.283  0.00  0.00    +0.000 OA
BRANCH  18  21
ATOM     20  C   UNL     1       3.489  14.201  18.250  0.00  0.00    +0.000 C 
ATOM     21  O   UNL     1       2.271  13.472  18.091  0.00  0.00    +0.000 OA
ENDBRANCH  18  21
ENDBRANCH   1  18
BRANCH   2  22
ATOM     22  C   UNL     1       1.797   9.824  17.984  0.00  0.00    +0.000 C 
BRANCH  22  23
ATOM     23  S   UNL     1       1.870   8.443  19.174  0.00  0.00    +0.000 S 
BRANCH  23  24
ATOM     24  C   UNL     1       2.728   7.276  18.209  0.00  0.00    +0.000 A 
ATOM     25  N   UNL     1       2.516   5.976  18.286  0.00  0.00    +0.000 NA
ATOM     26  C   UNL     1       3.530   5.435  17.543  0.00  0.00    +0.000 A 
ATOM     27  C   UNL     1       3.897   4.102  17.328  0.00  0.00    +0.000 A 
ATOM     28  C   UNL     1       5.051   3.851  16.573  0.00  0.00    +0.000 A 
ATOM     29  C   UNL     1       5.798   4.900  16.021  0.00  0.00    +0.000 A 
ATOM     30  C   UNL     1       5.424   6.239  16.203  0.00  0.00    +0.000 A 
ATOM     31  C   UNL     1       4.294   6.444  16.984  0.00  0.00    +0.000 A 
ATOM     32  O   UNL     1       3.763   7.635  17.382  0.00  0.00    +0.000 OA
ENDBRANCH  23  24
ENDBRANCH  22  23
ENDBRANCH   2  22
TORSDOF 6
ENDMDL
MODEL 8
REMARK VINA RESULT:      -7.6      5.283      9.832
REMARK  Name = 
REMARK  9 active torsions:
REMARK  status: ('A' for Active; 'I' for Inactive)
REMARK    1  A    between atoms: C_1  and  O_2
REMARK    2  A    between atoms: O_2  and  C_3
REMARK    3  A    between atoms: C_3  and  C_5
REMARK    4  A    between atoms: C_6  and  C_7
REMARK    5  A    between atoms: C_7  and  S_8
REMARK    6  A    between atoms: S_8  and  C_9
REMARK    7  A    between atoms: C_22  and  C_23
REMARK    8  A    between atoms: C_25  and  C_26
REMARK    9  A    between atoms: C_29  and  C_30
REMARK                            x       y       z     vdW  Elec       q    Type
REMARK                         _______ _______ _______ _____ _____    ______ ____
ROOT
ATOM      1  C   UNL     1       6.641   6.253  17.129  0.00  0.00    +0.000 C 
ATOM      2  C   UNL     1       7.368   7.134  17.862  0.00  0.00    +0.000 C 
ATOM      3  N   UNL     1       7.761   6.740  19.133  0.00  0.00    +0.000 N 
ATOM      4  C   UNL     1       7.640   5.480  19.646  0.00  0.00    +0.000 C 
ATOM      5  O   UNL     1       8.121   5.170  20.724  0.00  0.00    +0.000 OA
ATOM      6  N   UNL     1       6.970   4.590  18.869  0.00  0.00    +0.000 N 
ATOM      7  C   UNL     1       6.093   5.001  17.787  0.00  0.00    +0.000 C 
ATOM      8  H   UNL     1       8.303   7.366  19.718  0.00  0.00    +0.000 HD
ATOM      9  H   UNL     1       6.803   3.696  19.307  0.00  0.00    +0.000 HD
ENDROOT
BRANCH   7  10
ATOM     10  C   UNL     1       4.655   5.166  18.313  0.00  0.00    +0.000 A 
ATOM     11  C   UNL     1       4.047   6.446  18.302  0.00  0.00    +0.000 A 
ATOM     12  C   UNL     1       2.760   6.672  18.806  0.00  0.00    +0.000 A 
ATOM     13  C   UNL     1       2.164   8.048  18.800  0.00  0.00    +0.000 C 
ATOM     14  C   UNL     1       2.047   5.597  19.325  0.00  0.00    +0.000 A 
ATOM     15  C   UNL     1       2.611   4.323  19.338  0.00  0.00    +0.000 A 
ATOM     16  C   UNL     1       3.910   4.089  18.839  0.00  0.00    +0.000 A 
ATOM     17  C   UNL     1       4.440   2.682  18.893  0.00  0.00    +0.000 C 
ENDBRANCH   7  10
BRANCH   1  18
ATOM     18  C   UNL     1       6.336   6.346  15.674  0.00  0.00    +0.000 C 
ATOM     19  O   UNL     1       5.332   6.889  15.237  0.00  0.00    +0.000 OA
BRANCH  18  21
ATOM     20  C   UNL     1       6.786   4.547  14.205  0.00  0.00    +0.000 C 
ATOM     21  O   UNL     1       7.244   5.698  14.916  0.00  0.00    +0.000 OA
ENDBRANCH  18  21
ENDBRANCH   1  18
BRANCH   2  22
ATOM     22  C   UNL     1       7.863   8.505  17.445  0.00  0.00    +0.000 C 
BRANCH  22  23
ATOM     23  S   UNL     1       9.031   9.185  18.669  0.00  0.00    +0.000 S 
BRANCH  23  24
ATOM     24  C   UNL     1       8.964  10.867  18.229  0.00  0.00    +0.000 A 
ATOM     25  N   UNL     1       9.960  11.708  18.430  0.00  0.00    +0.000 NA
ATOM     26  C   UNL     1       9.414  12.933  18.152  0.00  0.00    +0.000 A 
ATOM     27  C   UNL     1       9.946  14.221  18.275  0.00  0.00    +0.000 A 
ATOM     28  C   UNL     1       9.108  15.309  17.987  0.00  0.00    +0.000 A 
ATOM     29  C   UNL     1       7.788  15.113  17.558  0.00  0.00    +0.000 A 
ATOM     30  C   UNL     1       7.254  13.826  17.400  0.00  0.00    +0.000 A 
ATOM     31  C   UNL     1       8.106  12.779  17.727  0.00  0.00    +0.000 A 
ATOM     32  O   UNL     1       7.819  11.446  17.742  0.00  0.00    +0.000 OA
ENDBRANCH  23  24
ENDBRANCH  22  23
ENDBRANCH   2  22
TORSDOF 6
ENDMDL
MODEL 9
REMARK VINA RESULT:      -7.6      1.176      2.009
REMARK  Name = 
REMARK  9 active torsions:
REMARK  status: ('A' for Active; 'I' for Inactive)
REMARK    1  A    between atoms: C_1  and  O_2
REMARK    2  A    between atoms: O_2  and  C_3
REMARK    3  A    between atoms: C_3  and  C_5
REMARK    4  A    between atoms: C_6  and  C_7
REMARK    5  A    between atoms: C_7  and  S_8
REMARK    6  A    between atoms: S_8  and  C_9
REMARK    7  A    between atoms: C_22  and  C_23
REMARK    8  A    between atoms: C_25  and  C_26
REMARK    9  A    between atoms: C_29  and  C_30
REMARK                            x       y       z     vdW  Elec       q    Type
REMARK                         _______ _______ _______ _____ _____    ______ ____
ROOT
ATOM      1  C   UNL     1       0.876   9.815  19.869  0.00  0.00    +0.000 C 
ATOM      2  C   UNL     1       1.347   9.710  18.602  0.00  0.00    +0.000 C 
ATOM      3  N   UNL     1       1.757  10.876  17.971  0.00  0.00    +0.000 N 
ATOM      4  C   UNL     1       1.901  12.094  18.571  0.00  0.00    +0.000 C 
ATOM      5  O   UNL     1       2.388  13.050  17.989  0.00  0.00    +0.000 OA
ATOM      6  N   UNL     1       1.490  12.165  19.864  0.00  0.00    +0.000 N 
ATOM      7  C   UNL     1       0.596  11.185  20.455  0.00  0.00    +0.000 C 
ATOM      8  H   UNL     1       2.114  10.846  17.022  0.00  0.00    +0.000 HD
ATOM      9  H   UNL     1       1.510  13.095  20.258  0.00  0.00    +0.000 HD
ENDROOT
BRANCH   7  10
ATOM     10  C   UNL     1      -0.866  11.639  20.280  0.00  0.00    +0.000 A 
ATOM     11  C   UNL     1      -1.555  11.334  19.081  0.00  0.00    +0.000 A 
ATOM     12  C   UNL     1      -2.869  11.755  18.840  0.00  0.00    +0.000 A 
ATOM     13  C   UNL     1      -3.553  11.434  17.545  0.00  0.00    +0.000 C 
ATOM     14  C   UNL     1      -3.527  12.489  19.822  0.00  0.00    +0.000 A 
ATOM     15  C   UNL     1      -2.882  12.793  21.019  0.00  0.00    +0.000 A 
ATOM     16  C   UNL     1      -1.555  12.380  21.265  0.00  0.00    +0.000 A 
ATOM     17  C   UNL     1      -0.936  12.752  22.584  0.00  0.00    +0.000 C 
ENDBRANCH   7  10
BRANCH   1  18
ATOM     18  C   UNL     1       0.628   8.696  20.821  0.00  0.00    +0.000 C 
ATOM     19  O   UNL     1      -0.404   8.587  21.468  0.00  0.00    +0.000 OA
BRANCH  18  21
ATOM     20  C   UNL     1       1.423   6.483  21.071  0.00  0.00    +0.000 C 
ATOM     21  O   UNL     1       1.694   7.879  20.943  0.00  0.00    +0.000 OA
ENDBRANCH  18  21
ENDBRANCH   1  18
BRANCH   2  22
ATOM     22  C   UNL     1       1.537   8.449  17.782  0.00  0.00    +0.000 C 
BRANCH  22  23
ATOM     23  S   UNL     1       3.300   7.998  17.664  0.00  0.00    +0.000 S 
BRANCH  23  24
ATOM     24  C   UNL     1       3.206   6.333  18.160  0.00  0.00    +0.000 A 
ATOM     25  N   UNL     1       4.193   5.701  18.766  0.00  0.00    +0.000 NA
ATOM     26  C   UNL     1       3.789   4.393  18.772  0.00  0.00    +0.000 A 
ATOM     27  C   UNL     1       4.449   3.232  19.189  0.00  0.00    +0.000 A 
ATOM     28  C   UNL     1       3.805   2.002  18.994  0.00  0.00    +0.000 A 
ATOM     29  C   UNL     1       2.524   1.937  18.428  0.00  0.00    +0.000 A 
ATOM     30  C   UNL     1       1.838   3.095  18.035  0.00  0.00    +0.000 A 
ATOM     31  C   UNL     1       2.525   4.288  18.216  0.00  0.00    +0.000 A 
ATOM     32  O   UNL     1       2.129   5.540  17.849  0.00  0.00    +0.000 OA
ENDBRANCH  23  24
ENDBRANCH  22  23
ENDBRANCH   2  22
TORSDOF 6
ENDMDL
