MODEL 1
REMARK VINA RESULT:      -6.4      0.000      0.000
REMARK  Name = 
REMARK  8 active torsions:
REMARK  status: ('A' for Active; 'I' for Inactive)
REMARK    1  A    between atoms: S_2  and  C_4
REMARK    2  A    between atoms: S_2  and  C_15
REMARK    3  A    between atoms: C_7  and  O_8
REMARK    4  A    between atoms: O_8  and  C_9
REMARK    5  A    between atoms: C_9  and  C_10
REMARK    6  A    between atoms: C_18  and  O_19
REMARK    7  A    between atoms: O_19  and  C_20
REMARK    8  A    between atoms: C_20  and  C_21
REMARK                            x       y       z     vdW  Elec       q    Type
REMARK                         _______ _______ _______ _____ _____    ______ ____
ROOT
ATOM      1  O   UNL     1       5.972   5.830  14.771  0.00  0.00    +0.000 OA
ATOM      2  S   UNL     1       6.238   5.179  16.043  0.00  0.00    +0.000 S 
ATOM      3  O   UNL     1       7.017   3.955  16.085  0.00  0.00    +0.000 OA
ENDROOT
BRANCH   2   4
ATOM      4  C   UNL     1       7.055   6.362  17.088  0.00  0.00    +0.000 A 
ATOM      5  C   UNL     1       7.127   7.692  16.671  0.00  0.00    +0.000 A 
ATOM      6  C   UNL     1       7.812   8.627  17.450  0.00  0.00    +0.000 A 
ATOM      7  C   UNL     1       8.411   8.239  18.653  0.00  0.00    +0.000 A 
ATOM      8  C   UNL     1       8.369   6.896  19.040  0.00  0.00    +0.000 A 
ATOM      9  C   UNL     1       7.691   5.952  18.263  0.00  0.00    +0.000 A 
BRANCH   7  10
ATOM     10  O   UNL     1       9.060   9.084  19.515  0.00  0.00    +0.000 OA
BRANCH  10  11
ATOM     11  C   UNL     1       9.158  10.446  19.086  0.00  0.00    +0.000 C 
BRANCH  11  12
ATOM     12  C   UNL     1       9.703  11.270  20.205  0.00  0.00    +0.000 C 
ATOM     13  C   UNL     1      11.085  11.859  20.160  0.00  0.00    +0.000 C 
ATOM     14  O   UNL     1       9.920  12.649  19.875  0.00  0.00    +0.000 OA
ENDBRANCH  11  12
ENDBRANCH  10  11
ENDBRANCH   7  10
ENDBRANCH   2   4
BRANCH   2  15
ATOM     15  C   UNL     1       4.657   4.833  16.782  0.00  0.00    +0.000 A 
ATOM     16  C   UNL     1       3.969   5.861  17.426  0.00  0.00    +0.000 A 
ATOM     17  C   UNL     1       2.737   5.598  18.030  0.00  0.00    +0.000 A 
ATOM     18  C   UNL     1       2.182   4.317  17.976  0.00  0.00    +0.000 A 
ATOM     19  C   UNL     1       2.903   3.280  17.377  0.00  0.00    +0.000 A 
ATOM     20  C   UNL     1       4.143   3.533  16.778  0.00  0.00    +0.000 A 
BRANCH  18  21
ATOM     21  O   UNL     1       0.950   3.976  18.472  0.00  0.00    +0.000 OA
BRANCH  21  22
ATOM     22  C   UNL     1       0.949   2.901  19.417  0.00  0.00    +0.000 C 
BRANCH  22  23
ATOM     23  C   UNL     1       1.411   3.414  20.739  0.00  0.00    +0.000 C 
ATOM     24  C   UNL     1       1.577   2.510  21.928  0.00  0.00    +0.000 C 
ATOM     25  O   UNL     1       2.702   2.936  21.143  0.00  0.00    +0.000 OA
ENDBRANCH  22  23
ENDBRANCH  21  22
ENDBRANCH  18  21
ENDBRANCH   2  15
TORSDOF 8
ENDMDL
MODEL 2
REMARK VINA RESULT:      -6.3      7.024      9.015
REMARK  Name = 
REMARK  8 active torsions:
REMARK  status: ('A' for Active; 'I' for Inactive)
REMARK    1  A    between atoms: S_2  and  C_4
REMARK    2  A    between atoms: S_2  and  C_15
REMARK    3  A    between atoms: C_7  and  O_8
REMARK    4  A    between atoms: O_8  and  C_9
REMARK    5  A    between atoms: C_9  and  C_10
REMARK    6  A    between atoms: C_18  and  O_19
REMARK    7  A    between atoms: O_19  and  C_20
REMARK    8  A    between atoms: C_20  and  C_21
REMARK                            x       y       z     vdW  Elec       q    Type
REMARK                         _______ _______ _______ _____ _____    ______ ____
ROOT
ATOM      1  O   UNL     1       0.502  11.162  20.953  0.00  0.00    +0.000 OA
ATOM      2  S   UNL     1       0.637  11.015  19.513  0.00  0.00    +0.000 S 
ATOM      3  O   UNL     1       1.377  12.001  18.747  0.00  0.00    +0.000 OA
ENDROOT
BRANCH   2   4
ATOM      4  C   UNL     1       1.387   9.433  19.206  0.00  0.00    +0.000 A 
ATOM      5  C   UNL     1       1.381   8.476  20.222  0.00  0.00    +0.000 A 
ATOM      6  C   UNL     1       2.013   7.247  20.021  0.00  0.00    +0.000 A 
ATOM      7  C   UNL     1       2.638   6.966  18.801  0.00  0.00    +0.000 A 
ATOM      8  C   UNL     1       2.675   7.947  17.806  0.00  0.00    +0.000 A 
ATOM      9  C   UNL     1       2.050   9.183  18.001  0.00  0.00    +0.000 A 
BRANCH   7  10
ATOM     10  O   UNL     1       3.239   5.777  18.483  0.00  0.00    +0.000 OA
BRANCH  10  11
ATOM     11  C   UNL     1       4.186   5.289  19.440  0.00  0.00    +0.000 C 
BRANCH  11  12
ATOM     12  C   UNL     1       5.407   4.822  18.721  0.00  0.00    +0.000 C 
ATOM     13  C   UNL     1       6.539   5.753  18.385  0.00  0.00    +0.000 C 
ATOM     14  O   UNL     1       6.608   4.858  19.505  0.00  0.00    +0.000 OA
ENDBRANCH  11  12
ENDBRANCH  10  11
ENDBRANCH   7  10
ENDBRANCH   2   4
BRANCH   2  15
ATOM     15  C   UNL     1      -1.012  10.948  18.848  0.00  0.00    +0.000 A 
ATOM     16  C   UNL     1      -1.290  10.061  17.810  0.00  0.00    +0.000 A 
ATOM     17  C   UNL     1      -2.576  10.014  17.263  0.00  0.00    +0.000 A 
ATOM     18  C   UNL     1      -3.588  10.837  17.764  0.00  0.00    +0.000 A 
ATOM     19  C   UNL     1      -3.286  11.762  18.768  0.00  0.00    +0.000 A 
ATOM     20  C   UNL     1      -1.999  11.823  19.314  0.00  0.00    +0.000 A 
BRANCH  18  21
ATOM     21  O   UNL     1      -4.893  10.814  17.348  0.00  0.00    +0.000 OA
BRANCH  21  22
ATOM     22  C   UNL     1      -5.868  10.929  18.391  0.00  0.00    +0.000 C 
BRANCH  22  23
ATOM     23  C   UNL     1      -6.956  11.843  17.941  0.00  0.00    +0.000 C 
ATOM     24  C   UNL     1      -6.954  13.308  18.280  0.00  0.00    +0.000 C 
ATOM     25  O   UNL     1      -6.543  12.834  16.989  0.00  0.00    +0.000 OA
ENDBRANCH  22  23
ENDBRANCH  21  22
ENDBRANCH  18  21
ENDBRANCH   2  15
TORSDOF 8
ENDMDL
MODEL 3
REMARK VINA RESULT:      -6.3      0.653      1.167
REMARK  Name = 
REMARK  8 active torsions:
REMARK  status: ('A' for Active; 'I' for Inactive)
REMARK    1  A    between atoms: S_2  and  C_4
REMARK    2  A    between atoms: S_2  and  C_15
REMARK    3  A    between atoms: C_7  and  O_8
REMARK    4  A    between atoms: O_8  and  C_9
REMARK    5  A    between atoms: C_9  and  C_10
REMARK    6  A    between atoms: C_18  and  O_19
REMARK    7  A    between atoms: O_19  and  C_20
REMARK    8  A    between atoms: C_20  and  C_21
REMARK                            x       y       z     vdW  Elec       q    Type
REMARK                         _______ _______ _______ _____ _____    ______ ____
ROOT
ATOM      1  O   UNL     1       6.437   5.609  14.880  0.00  0.00    +0.000 OA
ATOM      2  S   UNL     1       6.608   5.113  16.235  0.00  0.00    +0.000 S 
ATOM      3  O   UNL     1       7.369   3.901  16.476  0.00  0.00    +0.000 OA
ENDROOT
BRANCH   2   4
ATOM      4  C   UNL     1       7.363   6.411  17.187  0.00  0.00    +0.000 A 
ATOM      5  C   UNL     1       7.874   6.108  18.451  0.00  0.00    +0.000 A 
ATOM      6  C   UNL     1       8.421   7.123  19.238  0.00  0.00    +0.000 A 
ATOM      7  C   UNL     1       8.473   8.437  18.760  0.00  0.00    +0.000 A 
ATOM      8  C   UNL     1       7.920   8.736  17.512  0.00  0.00    +0.000 A 
ATOM      9  C   UNL     1       7.364   7.727  16.719  0.00  0.00    +0.000 A 
BRANCH   7  10
ATOM     10  O   UNL     1       9.033   9.493  19.428  0.00  0.00    +0.000 OA
BRANCH  10  11
ATOM     11  C   UNL     1       9.220  10.683  18.655  0.00  0.00    +0.000 C 
BRANCH  11  12
ATOM     12  C   UNL     1      10.420  11.411  19.162  0.00  0.00    +0.000 C 
ATOM     13  C   UNL     1      11.646  11.612  18.316  0.00  0.00    +0.000 C 
ATOM     14  O   UNL     1      10.681  12.658  18.504  0.00  0.00    +0.000 OA
ENDBRANCH  11  12
ENDBRANCH  10  11
ENDBRANCH   7  10
ENDBRANCH   2   4
BRANCH   2  15
ATOM     15  C   UNL     1       4.976   4.862  16.897  0.00  0.00    +0.000 A 
ATOM     16  C   UNL     1       4.339   5.915  17.552  0.00  0.00    +0.000 A 
ATOM     17  C   UNL     1       3.066   5.724  18.097  0.00  0.00    +0.000 A 
ATOM     18  C   UNL     1       2.421   4.491  17.973  0.00  0.00    +0.000 A 
ATOM     19  C   UNL     1       3.089   3.425  17.364  0.00  0.00    +0.000 A 
ATOM     20  C   UNL     1       4.368   3.604  16.824  0.00  0.00    +0.000 A 
BRANCH  18  21
ATOM     21  O   UNL     1       1.148   4.226  18.406  0.00  0.00    +0.000 OA
BRANCH  21  22
ATOM     22  C   UNL     1       1.020   3.088  19.265  0.00  0.00    +0.000 C 
BRANCH  22  23
ATOM     23  C   UNL     1       1.177   3.527  20.681  0.00  0.00    +0.000 C 
ATOM     24  C   UNL     1       1.607   2.577  21.764  0.00  0.00    +0.000 C 
ATOM     25  O   UNL     1       2.527   3.501  21.164  0.00  0.00    +0.000 OA
ENDBRANCH  22  23
ENDBRANCH  21  22
ENDBRANCH  18  21
ENDBRANCH   2  15
TORSDOF 8
ENDMDL
MODEL 4
REMARK VINA RESULT:      -6.3      7.056      9.708
REMARK  Name = 
REMARK  8 active torsions:
REMARK  status: ('A' for Active; 'I' for Inactive)
REMARK    1  A    between atoms: S_2  and  C_4
REMARK    2  A    between atoms: S_2  and  C_15
REMARK    3  A    between atoms: C_7  and  O_8
REMARK    4  A    between atoms: O_8  and  C_9
REMARK    5  A    between atoms: C_9  and  C_10
REMARK    6  A    between atoms: C_18  and  O_19
REMARK    7  A    between atoms: O_19  and  C_20
REMARK    8  A    between atoms: C_20  and  C_21
REMARK                            x       y       z     vdW  Elec       q    Type
REMARK                         _______ _______ _______ _____ _____    ______ ____
ROOT
ATOM      1  O   UNL     1       0.646  11.230  20.845  0.00  0.00    +0.000 OA
ATOM      2  S   UNL     1       0.733  11.009  19.411  0.00  0.00    +0.000 S 
ATOM      3  O   UNL     1       1.476  11.934  18.576  0.00  0.00    +0.000 OA
ENDROOT
BRANCH   2   4
ATOM      4  C   UNL     1       1.430   9.392  19.162  0.00  0.00    +0.000 A 
ATOM      5  C   UNL     1       1.426   8.486  20.223  0.00  0.00    +0.000 A 
ATOM      6  C   UNL     1       2.018   7.231  20.066  0.00  0.00    +0.000 A 
ATOM      7  C   UNL     1       2.599   6.874  18.845  0.00  0.00    +0.000 A 
ATOM      8  C   UNL     1       2.635   7.804  17.802  0.00  0.00    +0.000 A 
ATOM      9  C   UNL     1       2.051   9.066  17.953  0.00  0.00    +0.000 A 
BRANCH   7  10
ATOM     10  O   UNL     1       3.158   5.654  18.570  0.00  0.00    +0.000 OA
BRANCH  10  11
ATOM     11  C   UNL     1       2.903   4.627  19.534  0.00  0.00    +0.000 C 
BRANCH  11  12
ATOM     12  C   UNL     1       1.764   3.786  19.059  0.00  0.00    +0.000 C 
ATOM     13  C   UNL     1       1.491   2.421  19.626  0.00  0.00    +0.000 C 
ATOM     14  O   UNL     1       0.737   3.572  20.037  0.00  0.00    +0.000 OA
ENDBRANCH  11  12
ENDBRANCH  10  11
ENDBRANCH   7  10
ENDBRANCH   2   4
BRANCH   2  15
ATOM     15  C   UNL     1      -0.937  10.957  18.799  0.00  0.00    +0.000 A 
ATOM     16  C   UNL     1      -1.263  10.050  17.792  0.00  0.00    +0.000 A 
ATOM     17  C   UNL     1      -2.565  10.015  17.285  0.00  0.00    +0.000 A 
ATOM     18  C   UNL     1      -3.546  10.869  17.796  0.00  0.00    +0.000 A 
ATOM     19  C   UNL     1      -3.197  11.813  18.767  0.00  0.00    +0.000 A 
ATOM     20  C   UNL     1      -1.892  11.862  19.271  0.00  0.00    +0.000 A 
BRANCH  18  21
ATOM     21  O   UNL     1      -4.864  10.861  17.421  0.00  0.00    +0.000 OA
BRANCH  21  22
ATOM     22  C   UNL     1      -5.767  11.469  18.351  0.00  0.00    +0.000 C 
BRANCH  22  23
ATOM     23  C   UNL     1      -6.817  12.211  17.596  0.00  0.00    +0.000 C 
ATOM     24  C   UNL     1      -7.658  13.275  18.244  0.00  0.00    +0.000 C 
ATOM     25  O   UNL     1      -6.538  13.606  17.408  0.00  0.00    +0.000 OA
ENDBRANCH  22  23
ENDBRANCH  21  22
ENDBRANCH  18  21
ENDBRANCH   2  15
TORSDOF 8
ENDMDL
MODEL 5
REMARK VINA RESULT:      -6.3      6.724      9.776
REMARK  Name = 
REMARK  8 active torsions:
REMARK  status: ('A' for Active; 'I' for Inactive)
REMARK    1  A    between atoms: S_2  and  C_4
REMARK    2  A    between atoms: S_2  and  C_15
REMARK    3  A    between atoms: C_7  and  O_8
REMARK    4  A    between atoms: O_8  and  C_9
REMARK    5  A    between atoms: C_9  and  C_10
REMARK    6  A    between atoms: C_18  and  O_19
REMARK    7  A    between atoms: O_19  and  C_20
REMARK    8  A    between atoms: C_20  and  C_21
REMARK                            x       y       z     vdW  Elec       q    Type
REMARK                         _______ _______ _______ _____ _____    ______ ____
ROOT
ATOM      1  O   UNL     1       1.832  11.508  18.231  0.00  0.00    +0.000 OA
ATOM      2  S   UNL     1       0.982  10.884  19.231  0.00  0.00    +0.000 S 
ATOM      3  O   UNL     1       0.929  11.420  20.578  0.00  0.00    +0.000 OA
ENDROOT
BRANCH   2   4
ATOM      4  C   UNL     1      -0.679  10.882  18.595  0.00  0.00    +0.000 A 
ATOM      5  C   UNL     1      -1.595  11.804  19.103  0.00  0.00    +0.000 A 
ATOM      6  C   UNL     1      -2.918  11.784  18.658  0.00  0.00    +0.000 A 
ATOM      7  C   UNL     1      -3.324  10.854  17.695  0.00  0.00    +0.000 A 
ATOM      8  C   UNL     1      -2.409   9.908  17.224  0.00  0.00    +0.000 A 
ATOM      9  C   UNL     1      -1.083   9.917  17.670  0.00  0.00    +0.000 A 
BRANCH   7  10
ATOM     10  O   UNL     1      -4.581  10.783  17.154  0.00  0.00    +0.000 OA
BRANCH  10  11
ATOM     11  C   UNL     1      -5.533  11.713  17.682  0.00  0.00    +0.000 C 
BRANCH  11  12
ATOM     12  C   UNL     1      -6.453  10.992  18.611  0.00  0.00    +0.000 C 
ATOM     13  C   UNL     1      -6.589  11.379  20.057  0.00  0.00    +0.000 C 
ATOM     14  O   UNL     1      -7.560  11.776  19.077  0.00  0.00    +0.000 OA
ENDBRANCH  11  12
ENDBRANCH  10  11
ENDBRANCH   7  10
ENDBRANCH   2   4
BRANCH   2  15
ATOM     15  C   UNL     1       1.496   9.184  19.351  0.00  0.00    +0.000 A 
ATOM     16  C   UNL     1       1.298   8.498  20.548  0.00  0.00    +0.000 A 
ATOM     17  C   UNL     1       1.718   7.169  20.663  0.00  0.00    +0.000 A 
ATOM     18  C   UNL     1       2.316   6.521  19.580  0.00  0.00    +0.000 A 
ATOM     19  C   UNL     1       2.560   7.233  18.402  0.00  0.00    +0.000 A 
ATOM     20  C   UNL     1       2.153   8.566  18.282  0.00  0.00    +0.000 A 
BRANCH  18  21
ATOM     21  O   UNL     1       2.694   5.203  19.568  0.00  0.00    +0.000 OA
BRANCH  21  22
ATOM     22  C   UNL     1       2.663   4.572  18.284  0.00  0.00    +0.000 C 
BRANCH  22  23
ATOM     23  C   UNL     1       2.658   3.092  18.468  0.00  0.00    +0.000 C 
ATOM     24  C   UNL     1       1.383   2.297  18.477  0.00  0.00    +0.000 C 
ATOM     25  O   UNL     1       2.227   2.352  17.317  0.00  0.00    +0.000 OA
ENDBRANCH  22  23
ENDBRANCH  21  22
ENDBRANCH  18  21
ENDBRANCH   2  15
TORSDOF 8
ENDMDL
MODEL 6
REMARK VINA RESULT:      -6.2      4.202      7.585
REMARK  Name = 
REMARK  8 active torsions:
REMARK  status: ('A' for Active; 'I' for Inactive)
REMARK    1  A    between atoms: S_2  and  C_4
REMARK    2  A    between atoms: S_2  and  C_15
REMARK    3  A    between atoms: C_7  and  O_8
REMARK    4  A    between atoms: O_8  and  C_9
REMARK    5  A    between atoms: C_9  and  C_10
REMARK    6  A    between atoms: C_18  and  O_19
REMARK    7  A    between atoms: O_19  and  C_20
REMARK    8  A    between atoms: C_20  and  C_21
REMARK                            x       y       z     vdW  Elec       q    Type
REMARK                         _______ _______ _______ _____ _____    ______ ____
ROOT
ATOM      1  O   UNL     1       2.981   4.615  20.894  0.00  0.00    +0.000 OA
ATOM      2  S   UNL     1       2.475   4.978  19.581  0.00  0.00    +0.000 S 
ATOM      3  O   UNL     1       1.331   4.281  19.023  0.00  0.00    +0.000 OA
ENDROOT
BRANCH   2   4
ATOM      4  C   UNL     1       2.073   6.709  19.622  0.00  0.00    +0.000 A 
ATOM      5  C   UNL     1       1.534   7.247  20.792  0.00  0.00    +0.000 A 
ATOM      6  C   UNL     1       1.159   8.592  20.828  0.00  0.00    +0.000 A 
ATOM      7  C   UNL     1       1.336   9.404  19.703  0.00  0.00    +0.000 A 
ATOM      8  C   UNL     1       1.836   8.844  18.523  0.00  0.00    +0.000 A 
ATOM      9  C   UNL     1       2.209   7.497  18.476  0.00  0.00    +0.000 A 
BRANCH   7  10
ATOM     10  O   UNL     1       1.051  10.743  19.649  0.00  0.00    +0.000 OA
BRANCH  10  11
ATOM     11  C   UNL     1       0.083  11.128  18.668  0.00  0.00    +0.000 C 
BRANCH  11  12
ATOM     12  C   UNL     1      -1.284  10.834  19.191  0.00  0.00    +0.000 C 
ATOM     13  C   UNL     1      -2.461  11.718  18.886  0.00  0.00    +0.000 C 
ATOM     14  O   UNL     1      -2.242  10.486  18.183  0.00  0.00    +0.000 OA
ENDBRANCH  11  12
ENDBRANCH  10  11
ENDBRANCH   7  10
ENDBRANCH   2   4
BRANCH   2  15
ATOM     15  C   UNL     1       3.828   4.784  18.441  0.00  0.00    +0.000 A 
ATOM     16  C   UNL     1       3.620   4.084  17.253  0.00  0.00    +0.000 A 
ATOM     17  C   UNL     1       4.680   3.905  16.359  0.00  0.00    +0.000 A 
ATOM     18  C   UNL     1       5.940   4.441  16.640  0.00  0.00    +0.000 A 
ATOM     19  C   UNL     1       6.153   5.093  17.858  0.00  0.00    +0.000 A 
ATOM     20  C   UNL     1       5.100   5.267  18.763  0.00  0.00    +0.000 A 
BRANCH  18  21
ATOM     21  O   UNL     1       7.019   4.384  15.798  0.00  0.00    +0.000 OA
BRANCH  21  22
ATOM     22  C   UNL     1       6.781   4.856  14.468  0.00  0.00    +0.000 C 
BRANCH  22  23
ATOM     23  C   UNL     1       6.628   3.687  13.556  0.00  0.00    +0.000 C 
ATOM     24  C   UNL     1       5.520   3.609  12.543  0.00  0.00    +0.000 C 
ATOM     25  O   UNL     1       6.856   3.981  12.170  0.00  0.00    +0.000 OA
ENDBRANCH  22  23
ENDBRANCH  21  22
ENDBRANCH  18  21
ENDBRANCH   2  15
TORSDOF 8
ENDMDL
MODEL 7
REMARK VINA RESULT:      -6.2      6.969      9.448
REMARK  Name = 
REMARK  8 active torsions:
REMARK  status: ('A' for Active; 'I' for Inactive)
REMARK    1  A    between atoms: S_2  and  C_4
REMARK    2  A    between atoms: S_2  and  C_15
REMARK    3  A    between atoms: C_7  and  O_8
REMARK    4  A    between atoms: O_8  and  C_9
REMARK    5  A    between atoms: C_9  and  C_10
REMARK    6  A    between atoms: C_18  and  O_19
REMARK    7  A    between atoms: O_19  and  C_20
REMARK    8  A    between atoms: C_20  and  C_21
REMARK                            x       y       z     vdW  Elec       q    Type
REMARK                         _______ _______ _______ _____ _____    ______ ____
ROOT
ATOM      1  O   UNL     1       0.203  10.721  21.259  0.00  0.00    +0.000 OA
ATOM      2  S   UNL     1       0.494  10.833  19.840  0.00  0.00    +0.000 S 
ATOM      3  O   UNL     1       1.287  11.942  19.345  0.00  0.00    +0.000 OA
ENDROOT
BRANCH   2   4
ATOM      4  C   UNL     1       1.311   9.334  19.342  0.00  0.00    +0.000 A 
ATOM      5  C   UNL     1       1.466   8.309  20.277  0.00  0.00    +0.000 A 
ATOM      6  C   UNL     1       2.153   7.146  19.923  0.00  0.00    +0.000 A 
ATOM      7  C   UNL     1       2.672   6.998  18.633  0.00  0.00    +0.000 A 
ATOM      8  C   UNL     1       2.549   8.048  17.718  0.00  0.00    +0.000 A 
ATOM      9  C   UNL     1       1.867   9.219  18.066  0.00  0.00    +0.000 A 
BRANCH   7  10
ATOM     10  O   UNL     1       3.315   5.880  18.170  0.00  0.00    +0.000 OA
BRANCH  10  11
ATOM     11  C   UNL     1       2.664   4.636  18.446  0.00  0.00    +0.000 C 
BRANCH  11  12
ATOM     12  C   UNL     1       3.700   3.581  18.656  0.00  0.00    +0.000 C 
ATOM     13  C   UNL     1       3.353   2.119  18.686  0.00  0.00    +0.000 C 
ATOM     14  O   UNL     1       3.923   2.734  17.521  0.00  0.00    +0.000 OA
ENDBRANCH  11  12
ENDBRANCH  10  11
ENDBRANCH   7  10
ENDBRANCH   2   4
BRANCH   2  15
ATOM     15  C   UNL     1      -1.073  10.877  18.997  0.00  0.00    +0.000 A 
ATOM     16  C   UNL     1      -1.331   9.945  17.993  0.00  0.00    +0.000 A 
ATOM     17  C   UNL     1      -2.548   9.983  17.308  0.00  0.00    +0.000 A 
ATOM     18  C   UNL     1      -3.515  10.936  17.637  0.00  0.00    +0.000 A 
ATOM     19  C   UNL     1      -3.227  11.901  18.607  0.00  0.00    +0.000 A 
ATOM     20  C   UNL     1      -2.006  11.876  19.290  0.00  0.00    +0.000 A 
BRANCH  18  21
ATOM     21  O   UNL     1      -4.764  11.009  17.078  0.00  0.00    +0.000 OA
BRANCH  21  22
ATOM     22  C   UNL     1      -5.605  12.045  17.597  0.00  0.00    +0.000 C 
BRANCH  22  23
ATOM     23  C   UNL     1      -6.852  11.434  18.140  0.00  0.00    +0.000 C 
ATOM     24  C   UNL     1      -7.067  11.246  19.616  0.00  0.00    +0.000 C 
ATOM     25  O   UNL     1      -7.672  12.334  18.899  0.00  0.00    +0.000 OA
ENDBRANCH  22  23
ENDBRANCH  21  22
ENDBRANCH  18  21
ENDBRANCH   2  15
TORSDOF 8
ENDMDL
MODEL 8
REMARK VINA RESULT:      -6.2      4.181      7.128
REMARK  Name = 
REMARK  8 active torsions:
REMARK  status: ('A' for Active; 'I' for Inactive)
REMARK    1  A    between atoms: S_2  and  C_4
REMARK    2  A    between atoms: S_2  and  C_15
REMARK    3  A    between atoms: C_7  and  O_8
REMARK    4  A    between atoms: O_8  and  C_9
REMARK    5  A    between atoms: C_9  and  C_10
REMARK    6  A    between atoms: C_18  and  O_19
REMARK    7  A    between atoms: O_19  and  C_20
REMARK    8  A    between atoms: C_20  and  C_21
REMARK                            x       y       z     vdW  Elec       q    Type
REMARK                         _______ _______ _______ _____ _____    ______ ____
ROOT
ATOM      1  O   UNL     1       1.766   3.895  18.884  0.00  0.00    +0.000 OA
ATOM      2  S   UNL     1       2.860   4.664  19.453  0.00  0.00    +0.000 S 
ATOM      3  O   UNL     1       3.389   4.320  20.760  0.00  0.00    +0.000 OA
ENDROOT
BRANCH   2   4
ATOM      4  C   UNL     1       4.213   4.601  18.301  0.00  0.00    +0.000 A 
ATOM      5  C   UNL     1       5.478   5.010  18.726  0.00  0.00    +0.000 A 
ATOM      6  C   UNL     1       6.543   5.021  17.822  0.00  0.00    +0.000 A 
ATOM      7  C   UNL     1       6.350   4.610  16.499  0.00  0.00    +0.000 A 
ATOM      8  C   UNL     1       5.069   4.243  16.074  0.00  0.00    +0.000 A 
ATOM      9  C   UNL     1       3.996   4.234  16.971  0.00  0.00    +0.000 A 
BRANCH   7  10
ATOM     10  O   UNL     1       7.334   4.533  15.550  0.00  0.00    +0.000 OA
BRANCH  10  11
ATOM     11  C   UNL     1       6.959   4.963  14.237  0.00  0.00    +0.000 C 
BRANCH  11  12
ATOM     12  C   UNL     1       7.017   3.797  13.308  0.00  0.00    +0.000 C 
ATOM     13  C   UNL     1       5.867   3.436  12.409  0.00  0.00    +0.000 C 
ATOM     14  O   UNL     1       7.013   4.145  11.917  0.00  0.00    +0.000 OA
ENDBRANCH  11  12
ENDBRANCH  10  11
ENDBRANCH   7  10
ENDBRANCH   2   4
BRANCH   2  15
ATOM     15  C   UNL     1       2.314   6.356  19.524  0.00  0.00    +0.000 A 
ATOM     16  C   UNL     1       1.737   6.834  20.699  0.00  0.00    +0.000 A 
ATOM     17  C   UNL     1       1.283   8.155  20.761  0.00  0.00    +0.000 A 
ATOM     18  C   UNL     1       1.422   9.003  19.659  0.00  0.00    +0.000 A 
ATOM     19  C   UNL     1       1.951   8.499  18.467  0.00  0.00    +0.000 A 
ATOM     20  C   UNL     1       2.398   7.174  18.394  0.00  0.00    +0.000 A 
BRANCH  18  21
ATOM     21  O   UNL     1       1.078  10.329  19.643  0.00  0.00    +0.000 OA
BRANCH  21  22
ATOM     22  C   UNL     1      -0.081  10.649  18.865  0.00  0.00    +0.000 C 
BRANCH  22  23
ATOM     23  C   UNL     1      -0.543  12.022  19.221  0.00  0.00    +0.000 C 
ATOM     24  C   UNL     1      -0.287  13.203  18.327  0.00  0.00    +0.000 C 
ATOM     25  O   UNL     1      -1.564  12.546  18.360  0.00  0.00    +0.000 OA
ENDBRANCH  22  23
ENDBRANCH  21  22
ENDBRANCH  18  21
ENDBRANCH   2  15
TORSDOF 8
ENDMDL
MODEL 9
REMARK VINA RESULT:      -6.2      7.190      9.097
REMARK  Name = 
REMARK  8 active torsions:
REMARK  status: ('A' for Active; 'I' for Inactive)
REMARK    1  A    between atoms: S_2  and  C_4
REMARK    2  A    between atoms: S_2  and  C_15
REMARK    3  A    between atoms: C_7  and  O_8
REMARK    4  A    between atoms: O_8  and  C_9
REMARK    5  A    between atoms: C_9  and  C_10
REMARK    6  A    between atoms: C_18  and  O_19
REMARK    7  A    between atoms: O_19  and  C_20
REMARK    8  A    between atoms: C_20  and  C_21
REMARK                            x       y       z     vdW  Elec       q    Type
REMARK                         _______ _______ _______ _____ _____    ______ ____
ROOT
ATOM      1  O   UNL     1       0.212  10.990  21.301  0.00  0.00    +0.000 OA
ATOM      2  S   UNL     1       0.439  11.047  19.867  0.00  0.00    +0.000 S 
ATOM      3  O   UNL     1       1.209  12.136  19.294  0.00  0.00    +0.000 OA
ENDROOT
BRANCH   2   4
ATOM      4  C   UNL     1       1.234   9.529  19.391  0.00  0.00    +0.000 A 
ATOM      5  C   UNL     1       1.359   8.509  20.335  0.00  0.00    +0.000 A 
ATOM      6  C   UNL     1       2.029   7.331  20.000  0.00  0.00    +0.000 A 
ATOM      7  C   UNL     1       2.561   7.163  18.717  0.00  0.00    +0.000 A 
ATOM      8  C   UNL     1       2.468   8.208  17.792  0.00  0.00    +0.000 A 
ATOM      9  C   UNL     1       1.804   9.394  18.122  0.00  0.00    +0.000 A 
BRANCH   7  10
ATOM     10  O   UNL     1       3.188   6.030  18.270  0.00  0.00    +0.000 OA
BRANCH  10  11
ATOM     11  C   UNL     1       4.559   6.193  17.892  0.00  0.00    +0.000 C 
BRANCH  11  12
ATOM     12  C   UNL     1       5.381   5.159  18.585  0.00  0.00    +0.000 C 
ATOM     13  C   UNL     1       6.729   4.735  18.070  0.00  0.00    +0.000 C 
ATOM     14  O   UNL     1       6.596   5.656  19.164  0.00  0.00    +0.000 OA
ENDBRANCH  11  12
ENDBRANCH  10  11
ENDBRANCH   7  10
ENDBRANCH   2   4
BRANCH   2  15
ATOM     15  C   UNL     1      -1.164  11.060  19.094  0.00  0.00    +0.000 A 
ATOM     16  C   UNL     1      -2.112  11.991  19.514  0.00  0.00    +0.000 A 
ATOM     17  C   UNL     1      -3.383  11.998  18.931  0.00  0.00    +0.000 A 
ATOM     18  C   UNL     1      -3.701  11.089  17.919  0.00  0.00    +0.000 A 
ATOM     19  C   UNL     1      -2.763  10.123  17.543  0.00  0.00    +0.000 A 
ATOM     20  C   UNL     1      -1.492  10.103  18.129  0.00  0.00    +0.000 A 
BRANCH  18  21
ATOM     21  O   UNL     1      -4.888  11.063  17.236  0.00  0.00    +0.000 OA
BRANCH  21  22
ATOM     22  C   UNL     1      -5.687  12.245  17.354  0.00  0.00    +0.000 C 
BRANCH  22  23
ATOM     23  C   UNL     1      -7.024  11.877  17.900  0.00  0.00    +0.000 C 
ATOM     24  C   UNL     1      -7.316  11.910  19.375  0.00  0.00    +0.000 C 
ATOM     25  O   UNL     1      -7.740  12.967  18.500  0.00  0.00    +0.000 OA
ENDBRANCH  22  23
ENDBRANCH  21  22
ENDBRANCH  18  21
ENDBRANCH   2  15
TORSDOF 8
ENDMDL
