MODEL 1
REMARK VINA RESULT:      -8.1      0.000      0.000
REMARK  Name = 
REMARK  10 active torsions:
REMARK  status: ('A' for Active; 'I' for Inactive)
REMARK    1  A    between atoms: C_1  and  O_2
REMARK    2  A    between atoms: O_2  and  C_3
REMARK    3  A    between atoms: N_11  and  C_12
REMARK    4  A    between atoms: C_12  and  C_13
REMARK    5  A    between atoms: C_13  and  N_14
REMARK    6  A    between atoms: C_17  and  N_18
REMARK    7  A    between atoms: N_18  and  C_19
REMARK    8  A    between atoms: C_19  and  C_20
REMARK    9  A    between atoms: C_23  and  C_24
REMARK   10  A    between atoms: C_25  and  C_26
REMARK                            x       y       z     vdW  Elec       q    Type
REMARK                         _______ _______ _______ _____ _____    ______ ____
ROOT
ATOM      1  N   UNL     1       3.234   2.416  18.879  0.00  0.00    +0.000 NA
ATOM      2  C   UNL     1       3.480   3.348  19.996  0.00  0.00    +0.000 C 
ATOM      3  C   UNL     1       2.487   3.129  21.135  0.00  0.00    +0.000 C 
ATOM      4  C   UNL     1       1.033   3.264  20.666  0.00  0.00    +0.000 C 
ATOM      5  C   UNL     1       0.842   2.299  19.484  0.00  0.00    +0.000 C 
ATOM      6  C   UNL     1       1.861   2.552  18.371  0.00  0.00    +0.000 C 
ENDROOT
BRANCH   4   7
ATOM      7  N   UNL     1       0.717   4.675  20.354  0.00  0.00    +0.000 NA
ATOM      8  H   UNL     1      -0.193   4.918  20.748  0.00  0.00    +0.000 HD
BRANCH   7   9
ATOM      9  C   UNL     1       1.722   5.594  20.904  0.00  0.00    +0.000 C 
BRANCH   9  10
ATOM     10  C   UNL     1       1.435   7.051  20.635  0.00  0.00    +0.000 A 
ATOM     11  C   UNL     1       1.807   7.650  19.438  0.00  0.00    +0.000 A 
ATOM     12  N   UNL     1       1.624   8.970  19.198  0.00  0.00    +0.000 NA
ATOM     13  C   UNL     1       1.050   9.694  20.197  0.00  0.00    +0.000 A 
ATOM     14  C   UNL     1       0.865  11.159  19.941  0.00  0.00    +0.000 C 
ATOM     15  C   UNL     1       0.667   9.093  21.391  0.00  0.00    +0.000 A 
ATOM     16  N   UNL     1       0.852   7.768  21.634  0.00  0.00    +0.000 NA
BRANCH  15  17
ATOM     17  C   UNL     1       0.081   9.841  22.468  0.00  0.00    +0.000 C 
ATOM     18  N   UNL     1      -0.379  10.483  23.324  0.00  0.00    +0.000 NA
ENDBRANCH  15  17
ENDBRANCH   9  10
ENDBRANCH   7   9
ENDBRANCH   4   7
BRANCH   1  19
ATOM     19  C   UNL     1       4.213   2.611  17.785  0.00  0.00    +0.000 C 
BRANCH  19  20
ATOM     20  C   UNL     1       3.837   3.796  16.874  0.00  0.00    +0.000 C 
BRANCH  20  29
ATOM     21  C   UNL     1       6.302   3.867  13.304  0.00  0.00    +0.000 A 
ATOM     22  C   UNL     1       7.457   4.636  13.373  0.00  0.00    +0.000 A 
ATOM     23  N   UNL     1       7.785   5.419  14.422  0.00  0.00    +0.000 NA
ATOM     24  C   UNL     1       6.916   5.434  15.457  0.00  0.00    +0.000 A 
ATOM     25  C   UNL     1       7.238   6.348  16.539  0.00  0.00    +0.000 A 
ATOM     26  C   UNL     1       6.388   6.501  17.558  0.00  0.00    +0.000 A 
ATOM     27  C   UNL     1       5.143   5.700  17.662  0.00  0.00    +0.000 A 
ATOM     28  O   UNL     1       4.409   5.876  18.634  0.00  0.00    +0.000 OA
ATOM     29  N   UNL     1       4.911   4.759  16.663  0.00  0.00    +0.000 N 
ATOM     30  C   UNL     1       5.748   4.671  15.514  0.00  0.00    +0.000 A 
ATOM     31  C   UNL     1       5.452   3.871  14.408  0.00  0.00    +0.000 A 
BRANCH  21  33
ATOM     32  C   UNL     1       4.590   3.375  11.748  0.00  0.00    +0.000 C 
ATOM     33  O   UNL     1       5.894   3.102  12.245  0.00  0.00    +0.000 OA
ENDBRANCH  21  33
ENDBRANCH  20  29
ENDBRANCH  19  20
ENDBRANCH   1  19
TORSDOF 8
ENDMDL
MODEL 2
REMARK VINA RESULT:      -8.1      2.341      7.572
REMARK  Name = 
REMARK  10 active torsions:
REMARK  status: ('A' for Active; 'I' for Inactive)
REMARK    1  A    between atoms: C_1  and  O_2
REMARK    2  A    between atoms: O_2  and  C_3
REMARK    3  A    between atoms: N_11  and  C_12
REMARK    4  A    between atoms: C_12  and  C_13
REMARK    5  A    between atoms: C_13  and  N_14
REMARK    6  A    between atoms: C_17  and  N_18
REMARK    7  A    between atoms: N_18  and  C_19
REMARK    8  A    between atoms: C_19  and  C_20
REMARK    9  A    between atoms: C_23  and  C_24
REMARK   10  A    between atoms: C_25  and  C_26
REMARK                            x       y       z     vdW  Elec       q    Type
REMARK                         _______ _______ _______ _____ _____    ______ ____
ROOT
ATOM      1  N   UNL     1       1.833   3.939  19.902  0.00  0.00    +0.000 NA
ATOM      2  C   UNL     1       1.218   3.667  18.588  0.00  0.00    +0.000 C 
ATOM      3  C   UNL     1       1.774   2.389  17.966  0.00  0.00    +0.000 C 
ATOM      4  C   UNL     1       3.300   2.436  17.818  0.00  0.00    +0.000 C 
ATOM      5  C   UNL     1       3.885   2.756  19.204  0.00  0.00    +0.000 C 
ATOM      6  C   UNL     1       3.295   4.041  19.789  0.00  0.00    +0.000 C 
ENDROOT
BRANCH   4   7
ATOM      7  N   UNL     1       3.689   3.395  16.760  0.00  0.00    +0.000 NA
ATOM      8  H   UNL     1       3.452   4.343  17.053  0.00  0.00    +0.000 HD
BRANCH   7   9
ATOM      9  C   UNL     1       5.129   3.342  16.477  0.00  0.00    +0.000 C 
BRANCH   9  10
ATOM     10  C   UNL     1       5.890   4.561  16.937  0.00  0.00    +0.000 A 
ATOM     11  C   UNL     1       6.024   5.678  16.122  0.00  0.00    +0.000 A 
ATOM     12  N   UNL     1       6.759   6.757  16.481  0.00  0.00    +0.000 NA
ATOM     13  C   UNL     1       7.369   6.697  17.697  0.00  0.00    +0.000 A 
ATOM     14  C   UNL     1       8.200   7.882  18.088  0.00  0.00    +0.000 C 
ATOM     15  C   UNL     1       7.227   5.584  18.518  0.00  0.00    +0.000 A 
ATOM     16  N   UNL     1       6.490   4.499  18.157  0.00  0.00    +0.000 NA
BRANCH  15  17
ATOM     17  C   UNL     1       7.880   5.489  19.794  0.00  0.00    +0.000 C 
ATOM     18  N   UNL     1       8.404   5.454  20.833  0.00  0.00    +0.000 NA
ENDBRANCH  15  17
ENDBRANCH   9  10
ENDBRANCH   7   9
ENDBRANCH   4   7
BRANCH   1  19
ATOM     19  C   UNL     1       1.275   5.165  20.518  0.00  0.00    +0.000 C 
BRANCH  19  20
ATOM     20  C   UNL     1       2.334   6.275  20.663  0.00  0.00    +0.000 C 
BRANCH  20  29
ATOM     21  C   UNL     1      -0.245   9.619  21.658  0.00  0.00    +0.000 A 
ATOM     22  C   UNL     1      -0.564  10.478  20.613  0.00  0.00    +0.000 A 
ATOM     23  N   UNL     1      -0.044  10.388  19.371  0.00  0.00    +0.000 NA
ATOM     24  C   UNL     1       0.838   9.386  19.160  0.00  0.00    +0.000 A 
ATOM     25  C   UNL     1       1.456   9.354  17.846  0.00  0.00    +0.000 A 
ATOM     26  C   UNL     1       2.410   8.459  17.578  0.00  0.00    +0.000 A 
ATOM     27  C   UNL     1       2.814   7.430  18.569  0.00  0.00    +0.000 A 
ATOM     28  O   UNL     1       3.688   6.623  18.256  0.00  0.00    +0.000 OA
ATOM     29  N   UNL     1       2.134   7.420  19.783  0.00  0.00    +0.000 N 
ATOM     30  C   UNL     1       1.201   8.440  20.122  0.00  0.00    +0.000 A 
ATOM     31  C   UNL     1       0.632   8.570  21.391  0.00  0.00    +0.000 A 
BRANCH  21  33
ATOM     32  C   UNL     1       0.262   9.431  23.960  0.00  0.00    +0.000 C 
ATOM     33  O   UNL     1      -0.698   9.700  22.947  0.00  0.00    +0.000 OA
ENDBRANCH  21  33
ENDBRANCH  20  29
ENDBRANCH  19  20
ENDBRANCH   1  19
TORSDOF 8
ENDMDL
MODEL 3
REMARK VINA RESULT:      -8.0      2.822      5.653
REMARK  Name = 
REMARK  10 active torsions:
REMARK  status: ('A' for Active; 'I' for Inactive)
REMARK    1  A    between atoms: C_1  and  O_2
REMARK    2  A    between atoms: O_2  and  C_3
REMARK    3  A    between atoms: N_11  and  C_12
REMARK    4  A    between atoms: C_12  and  C_13
REMARK    5  A    between atoms: C_13  and  N_14
REMARK    6  A    between atoms: C_17  and  N_18
REMARK    7  A    between atoms: N_18  and  C_19
REMARK    8  A    between atoms: C_19  and  C_20
REMARK    9  A    between atoms: C_23  and  C_24
REMARK   10  A    between atoms: C_25  and  C_26
REMARK                            x       y       z     vdW  Elec       q    Type
REMARK                         _______ _______ _______ _____ _____    ______ ____
ROOT
ATOM      1  N   UNL     1       1.349   8.428  18.957  0.00  0.00    +0.000 NA
ATOM      2  C   UNL     1       1.440   8.349  20.428  0.00  0.00    +0.000 C 
ATOM      3  C   UNL     1       0.175   8.882  21.095  0.00  0.00    +0.000 C 
ATOM      4  C   UNL     1      -0.132  10.326  20.679  0.00  0.00    +0.000 C 
ATOM      5  C   UNL     1      -0.182  10.358  19.142  0.00  0.00    +0.000 C 
ATOM      6  C   UNL     1       1.104   9.810  18.518  0.00  0.00    +0.000 C 
ENDROOT
BRANCH   4   7
ATOM      7  N   UNL     1       0.851  11.257  21.273  0.00  0.00    +0.000 NA
ATOM      8  H   UNL     1       1.783  11.050  20.911  0.00  0.00    +0.000 HD
BRANCH   7   9
ATOM      9  C   UNL     1       0.534  12.657  20.964  0.00  0.00    +0.000 C 
BRANCH   9  10
ATOM     10  C   UNL     1      -0.296  13.347  22.019  0.00  0.00    +0.000 A 
ATOM     11  C   UNL     1       0.110  14.549  22.585  0.00  0.00    +0.000 A 
ATOM     12  N   UNL     1      -0.579  15.154  23.581  0.00  0.00    +0.000 NA
ATOM     13  C   UNL     1      -1.706  14.521  24.010  0.00  0.00    +0.000 A 
ATOM     14  C   UNL     1      -2.460  15.178  25.126  0.00  0.00    +0.000 C 
ATOM     15  C   UNL     1      -2.119  13.324  23.436  0.00  0.00    +0.000 A 
ATOM     16  N   UNL     1      -1.426  12.715  22.437  0.00  0.00    +0.000 NA
BRANCH  15  17
ATOM     17  C   UNL     1      -3.291  12.626  23.888  0.00  0.00    +0.000 C 
ATOM     18  N   UNL     1      -4.216  12.033  24.274  0.00  0.00    +0.000 NA
ENDBRANCH  15  17
ENDBRANCH   9  10
ENDBRANCH   7   9
ENDBRANCH   4   7
BRANCH   1  19
ATOM     19  C   UNL     1       2.566   7.887  18.309  0.00  0.00    +0.000 C 
BRANCH  19  20
ATOM     20  C   UNL     1       3.259   6.818  19.176  0.00  0.00    +0.000 C 
BRANCH  20  29
ATOM     21  C   UNL     1       6.609   5.837  16.598  0.00  0.00    +0.000 A 
ATOM     22  C   UNL     1       6.471   4.689  15.827  0.00  0.00    +0.000 A 
ATOM     23  N   UNL     1       5.429   3.836  15.914  0.00  0.00    +0.000 NA
ATOM     24  C   UNL     1       4.473   4.147  16.818  0.00  0.00    +0.000 A 
ATOM     25  C   UNL     1       3.402   3.175  16.963  0.00  0.00    +0.000 A 
ATOM     26  C   UNL     1       2.466   3.349  17.898  0.00  0.00    +0.000 A 
ATOM     27  C   UNL     1       2.437   4.561  18.757  0.00  0.00    +0.000 A 
ATOM     28  O   UNL     1       1.538   4.671  19.589  0.00  0.00    +0.000 OA
ATOM     29  N   UNL     1       3.415   5.522  18.526  0.00  0.00    +0.000 N 
ATOM     30  C   UNL     1       4.485   5.293  17.615  0.00  0.00    +0.000 A 
ATOM     31  C   UNL     1       5.581   6.149  17.485  0.00  0.00    +0.000 A 
BRANCH  21  33
ATOM     32  C   UNL     1       7.673   7.688  17.615  0.00  0.00    +0.000 C 
ATOM     33  O   UNL     1       7.668   6.703  16.590  0.00  0.00    +0.000 OA
ENDBRANCH  21  33
ENDBRANCH  20  29
ENDBRANCH  19  20
ENDBRANCH   1  19
TORSDOF 8
ENDMDL
MODEL 4
REMARK VINA RESULT:      -8.0      2.036      8.401
REMARK  Name = 
REMARK  10 active torsions:
REMARK  status: ('A' for Active; 'I' for Inactive)
REMARK    1  A    between atoms: C_1  and  O_2
REMARK    2  A    between atoms: O_2  and  C_3
REMARK    3  A    between atoms: N_11  and  C_12
REMARK    4  A    between atoms: C_12  and  C_13
REMARK    5  A    between atoms: C_13  and  N_14
REMARK    6  A    between atoms: C_17  and  N_18
REMARK    7  A    between atoms: N_18  and  C_19
REMARK    8  A    between atoms: C_19  and  C_20
REMARK    9  A    between atoms: C_23  and  C_24
REMARK   10  A    between atoms: C_25  and  C_26
REMARK                            x       y       z     vdW  Elec       q    Type
REMARK                         _______ _______ _______ _____ _____    ______ ____
ROOT
ATOM      1  N   UNL     1       1.915   3.926  19.977  0.00  0.00    +0.000 NA
ATOM      2  C   UNL     1       1.474   3.168  18.791  0.00  0.00    +0.000 C 
ATOM      3  C   UNL     1       2.189   1.823  18.690  0.00  0.00    +0.000 C 
ATOM      4  C   UNL     1       3.714   1.981  18.658  0.00  0.00    +0.000 C 
ATOM      5  C   UNL     1       4.114   2.804  19.894  0.00  0.00    +0.000 C 
ATOM      6  C   UNL     1       3.370   4.140  19.955  0.00  0.00    +0.000 C 
ENDROOT
BRANCH   4   7
ATOM      7  N   UNL     1       4.148   2.568  17.371  0.00  0.00    +0.000 NA
ATOM      8  H   UNL     1       3.329   2.804  16.809  0.00  0.00    +0.000 HD
BRANCH   7   9
ATOM      9  C   UNL     1       4.942   3.787  17.568  0.00  0.00    +0.000 C 
BRANCH   9  10
ATOM     10  C   UNL     1       5.796   4.162  16.382  0.00  0.00    +0.000 A 
ATOM     11  C   UNL     1       6.857   5.050  16.507  0.00  0.00    +0.000 A 
ATOM     12  N   UNL     1       7.596   5.456  15.448  0.00  0.00    +0.000 NA
ATOM     13  C   UNL     1       7.247   4.946  14.235  0.00  0.00    +0.000 A 
ATOM     14  C   UNL     1       8.050   5.409  13.057  0.00  0.00    +0.000 C 
ATOM     15  C   UNL     1       6.193   4.048  14.109  0.00  0.00    +0.000 A 
ATOM     16  N   UNL     1       5.449   3.642  15.173  0.00  0.00    +0.000 NA
BRANCH  15  17
ATOM     17  C   UNL     1       5.792   3.516  12.837  0.00  0.00    +0.000 C 
ATOM     18  N   UNL     1       5.430   3.072  11.823  0.00  0.00    +0.000 NA
ENDBRANCH  15  17
ENDBRANCH   9  10
ENDBRANCH   7   9
ENDBRANCH   4   7
BRANCH   1  19
ATOM     19  C   UNL     1       1.204   5.220  20.089  0.00  0.00    +0.000 C 
BRANCH  19  20
ATOM     20  C   UNL     1       2.147   6.367  20.500  0.00  0.00    +0.000 C 
BRANCH  20  29
ATOM     21  C   UNL     1      -0.284   9.738  21.748  0.00  0.00    +0.000 A 
ATOM     22  C   UNL     1      -0.563  10.686  20.772  0.00  0.00    +0.000 A 
ATOM     23  N   UNL     1      -0.045  10.667  19.526  0.00  0.00    +0.000 NA
ATOM     24  C   UNL     1       0.793   9.646  19.239  0.00  0.00    +0.000 A 
ATOM     25  C   UNL     1       1.411   9.685  17.924  0.00  0.00    +0.000 A 
ATOM     26  C   UNL     1       2.325   8.773  17.588  0.00  0.00    +0.000 A 
ATOM     27  C   UNL     1       2.681   7.655  18.499  0.00  0.00    +0.000 A 
ATOM     28  O   UNL     1       3.520   6.836  18.124  0.00  0.00    +0.000 OA
ATOM     29  N   UNL     1       1.999   7.583  19.709  0.00  0.00    +0.000 N 
ATOM     30  C   UNL     1       1.111   8.615  20.126  0.00  0.00    +0.000 A 
ATOM     31  C   UNL     1       0.547   8.674  21.402  0.00  0.00    +0.000 A 
BRANCH  21  33
ATOM     32  C   UNL     1       0.245   9.497  24.041  0.00  0.00    +0.000 C 
ATOM     33  O   UNL     1      -0.736   9.741  23.040  0.00  0.00    +0.000 OA
ENDBRANCH  21  33
ENDBRANCH  20  29
ENDBRANCH  19  20
ENDBRANCH   1  19
TORSDOF 8
ENDMDL
MODEL 5
REMARK VINA RESULT:      -7.9      2.753      6.003
REMARK  Name = 
REMARK  10 active torsions:
REMARK  status: ('A' for Active; 'I' for Inactive)
REMARK    1  A    between atoms: C_1  and  O_2
REMARK    2  A    between atoms: O_2  and  C_3
REMARK    3  A    between atoms: N_11  and  C_12
REMARK    4  A    between atoms: C_12  and  C_13
REMARK    5  A    between atoms: C_13  and  N_14
REMARK    6  A    between atoms: C_17  and  N_18
REMARK    7  A    between atoms: N_18  and  C_19
REMARK    8  A    between atoms: C_19  and  C_20
REMARK    9  A    between atoms: C_23  and  C_24
REMARK   10  A    between atoms: C_25  and  C_26
REMARK                            x       y       z     vdW  Elec       q    Type
REMARK                         _______ _______ _______ _____ _____    ______ ____
ROOT
ATOM      1  N   UNL     1       1.481   8.429  18.540  0.00  0.00    +0.000 NA
ATOM      2  C   UNL     1       1.881   8.291  19.954  0.00  0.00    +0.000 C 
ATOM      3  C   UNL     1       0.712   8.569  20.895  0.00  0.00    +0.000 C 
ATOM      4  C   UNL     1       0.107   9.960  20.668  0.00  0.00    +0.000 C 
ATOM      5  C   UNL     1      -0.259  10.061  19.177  0.00  0.00    +0.000 C 
ATOM      6  C   UNL     1       0.941   9.770  18.274  0.00  0.00    +0.000 C 
ENDROOT
BRANCH   4   7
ATOM      7  N   UNL     1       1.035  11.012  21.137  0.00  0.00    +0.000 NA
ATOM      8  H   UNL     1       1.968  10.838  20.762  0.00  0.00    +0.000 HD
BRANCH   7   9
ATOM      9  C   UNL     1       0.605  12.350  20.711  0.00  0.00    +0.000 C 
BRANCH   9  10
ATOM     10  C   UNL     1      -0.159  13.114  21.764  0.00  0.00    +0.000 A 
ATOM     11  C   UNL     1       0.313  14.320  22.265  0.00  0.00    +0.000 A 
ATOM     12  N   UNL     1      -0.316  14.992  23.258  0.00  0.00    +0.000 NA
ATOM     13  C   UNL     1      -1.450  14.423  23.751  0.00  0.00    +0.000 A 
ATOM     14  C   UNL     1      -2.137  15.154  24.864  0.00  0.00    +0.000 C 
ATOM     15  C   UNL     1      -1.930  13.222  23.242  0.00  0.00    +0.000 A 
ATOM     16  N   UNL     1      -1.298  12.546  22.246  0.00  0.00    +0.000 NA
BRANCH  15  17
ATOM     17  C   UNL     1      -3.112  12.591  23.762  0.00  0.00    +0.000 C 
ATOM     18  N   UNL     1      -4.082  12.072  24.143  0.00  0.00    +0.000 NA
ENDBRANCH  15  17
ENDBRANCH   9  10
ENDBRANCH   7   9
ENDBRANCH   4   7
BRANCH   1  19
ATOM     19  C   UNL     1       2.609   8.134  17.626  0.00  0.00    +0.000 C 
BRANCH  19  20
ATOM     20  C   UNL     1       3.665   7.223  18.283  0.00  0.00    +0.000 C 
BRANCH  20  29
ATOM     21  C   UNL     1       1.995   3.320  19.178  0.00  0.00    +0.000 A 
ATOM     22  C   UNL     1       2.610   2.236  18.564  0.00  0.00    +0.000 A 
ATOM     23  N   UNL     1       3.599   2.341  17.652  0.00  0.00    +0.000 NA
ATOM     24  C   UNL     1       3.997   3.595  17.339  0.00  0.00    +0.000 A 
ATOM     25  C   UNL     1       5.000   3.696  16.293  0.00  0.00    +0.000 A 
ATOM     26  C   UNL     1       5.383   4.896  15.850  0.00  0.00    +0.000 A 
ATOM     27  C   UNL     1       4.867   6.151  16.452  0.00  0.00    +0.000 A 
ATOM     28  O   UNL     1       5.271   7.225  16.011  0.00  0.00    +0.000 OA
ATOM     29  N   UNL     1       3.985   6.022  17.521  0.00  0.00    +0.000 N 
ATOM     30  C   UNL     1       3.481   4.753  17.922  0.00  0.00    +0.000 A 
ATOM     31  C   UNL     1       2.462   4.595  18.865  0.00  0.00    +0.000 A 
BRANCH  21  33
ATOM     32  C   UNL     1       1.283   2.873  21.389  0.00  0.00    +0.000 C 
ATOM     33  O   UNL     1       0.953   3.271  20.064  0.00  0.00    +0.000 OA
ENDBRANCH  21  33
ENDBRANCH  20  29
ENDBRANCH  19  20
ENDBRANCH   1  19
TORSDOF 8
ENDMDL
MODEL 6
REMARK VINA RESULT:      -7.8      3.774      5.914
REMARK  Name = 
REMARK  10 active torsions:
REMARK  status: ('A' for Active; 'I' for Inactive)
REMARK    1  A    between atoms: C_1  and  O_2
REMARK    2  A    between atoms: O_2  and  C_3
REMARK    3  A    between atoms: N_11  and  C_12
REMARK    4  A    between atoms: C_12  and  C_13
REMARK    5  A    between atoms: C_13  and  N_14
REMARK    6  A    between atoms: C_17  and  N_18
REMARK    7  A    between atoms: N_18  and  C_19
REMARK    8  A    between atoms: C_19  and  C_20
REMARK    9  A    between atoms: C_23  and  C_24
REMARK   10  A    between atoms: C_25  and  C_26
REMARK                            x       y       z     vdW  Elec       q    Type
REMARK                         _______ _______ _______ _____ _____    ______ ____
ROOT
ATOM      1  N   UNL     1       1.998   8.461  19.862  0.00  0.00    +0.000 NA
ATOM      2  C   UNL     1       1.721   9.148  18.586  0.00  0.00    +0.000 C 
ATOM      3  C   UNL     1       1.290  10.595  18.812  0.00  0.00    +0.000 C 
ATOM      4  C   UNL     1       0.060  10.694  19.723  0.00  0.00    +0.000 C 
ATOM      5  C   UNL     1       0.389   9.936  21.020  0.00  0.00    +0.000 C 
ATOM      6  C   UNL     1       0.821   8.494  20.743  0.00  0.00    +0.000 C 
ENDROOT
BRANCH   4   7
ATOM      7  N   UNL     1      -1.146  10.201  19.021  0.00  0.00    +0.000 NA
ATOM      8  H   UNL     1      -1.910  10.089  19.689  0.00  0.00    +0.000 HD
BRANCH   7   9
ATOM      9  C   UNL     1      -1.582  11.128  17.969  0.00  0.00    +0.000 C 
BRANCH   9  10
ATOM     10  C   UNL     1      -3.060  11.430  17.990  0.00  0.00    +0.000 A 
ATOM     11  C   UNL     1      -3.851  11.244  16.863  0.00  0.00    +0.000 A 
ATOM     12  N   UNL     1      -5.164  11.572  16.833  0.00  0.00    +0.000 NA
ATOM     13  C   UNL     1      -5.683  12.098  17.976  0.00  0.00    +0.000 A 
ATOM     14  C   UNL     1      -7.132  12.481  17.940  0.00  0.00    +0.000 C 
ATOM     15  C   UNL     1      -4.896  12.274  19.108  0.00  0.00    +0.000 A 
ATOM     16  N   UNL     1      -3.576  11.947  19.138  0.00  0.00    +0.000 NA
BRANCH  15  17
ATOM     17  C   UNL     1      -5.416  12.849  20.317  0.00  0.00    +0.000 C 
ATOM     18  N   UNL     1      -5.863  13.339  21.274  0.00  0.00    +0.000 NA
ENDBRANCH  15  17
ENDBRANCH   9  10
ENDBRANCH   7   9
ENDBRANCH   4   7
BRANCH   1  19
ATOM     19  C   UNL     1       2.441   7.065  19.642  0.00  0.00    +0.000 C 
BRANCH  19  20
ATOM     20  C   UNL     1       2.691   6.765  18.151  0.00  0.00    +0.000 C 
BRANCH  20  29
ATOM     21  C   UNL     1       6.657   5.961  16.584  0.00  0.00    +0.000 A 
ATOM     22  C   UNL     1       6.877   4.675  16.107  0.00  0.00    +0.000 A 
ATOM     23  N   UNL     1       5.984   3.668  16.201  0.00  0.00    +0.000 NA
ATOM     24  C   UNL     1       4.808   3.960  16.799  0.00  0.00    +0.000 A 
ATOM     25  C   UNL     1       3.892   2.846  16.971  0.00  0.00    +0.000 A 
ATOM     26  C   UNL     1       2.748   3.019  17.638  0.00  0.00    +0.000 A 
ATOM     27  C   UNL     1       2.339   4.352  18.151  0.00  0.00    +0.000 A 
ATOM     28  O   UNL     1       1.265   4.449  18.743  0.00  0.00    +0.000 OA
ATOM     29  N   UNL     1       3.188   5.420  17.882  0.00  0.00    +0.000 N 
ATOM     30  C   UNL     1       4.462   5.226  17.278  0.00  0.00    +0.000 A 
ATOM     31  C   UNL     1       5.416   6.239  17.154  0.00  0.00    +0.000 A 
BRANCH  21  33
ATOM     32  C   UNL     1       7.755   7.661  17.809  0.00  0.00    +0.000 C 
ATOM     33  O   UNL     1       7.547   7.000  16.567  0.00  0.00    +0.000 OA
ENDBRANCH  21  33
ENDBRANCH  20  29
ENDBRANCH  19  20
ENDBRANCH   1  19
TORSDOF 8
ENDMDL
MODEL 7
REMARK VINA RESULT:      -7.8      3.046      5.699
REMARK  Name = 
REMARK  10 active torsions:
REMARK  status: ('A' for Active; 'I' for Inactive)
REMARK    1  A    between atoms: C_1  and  O_2
REMARK    2  A    between atoms: O_2  and  C_3
REMARK    3  A    between atoms: N_11  and  C_12
REMARK    4  A    between atoms: C_12  and  C_13
REMARK    5  A    between atoms: C_13  and  N_14
REMARK    6  A    between atoms: C_17  and  N_18
REMARK    7  A    between atoms: N_18  and  C_19
REMARK    8  A    between atoms: C_19  and  C_20
REMARK    9  A    between atoms: C_23  and  C_24
REMARK   10  A    between atoms: C_25  and  C_26
REMARK                            x       y       z     vdW  Elec       q    Type
REMARK                         _______ _______ _______ _____ _____    ______ ____
ROOT
ATOM      1  N   UNL     1       1.407   8.486  19.140  0.00  0.00    +0.000 NA
ATOM      2  C   UNL     1       1.544   8.327  20.601  0.00  0.00    +0.000 C 
ATOM      3  C   UNL     1       0.257   8.705  21.327  0.00  0.00    +0.000 C 
ATOM      4  C   UNL     1      -0.186  10.139  21.009  0.00  0.00    +0.000 C 
ATOM      5  C   UNL     1      -0.280  10.259  19.478  0.00  0.00    +0.000 C 
ATOM      6  C   UNL     1       1.031   9.865  18.794  0.00  0.00    +0.000 C 
ENDROOT
BRANCH   4   7
ATOM      7  N   UNL     1       0.729  11.116  21.639  0.00  0.00    +0.000 NA
ATOM      8  H   UNL     1       1.684  10.946  21.320  0.00  0.00    +0.000 HD
BRANCH   7   9
ATOM      9  C   UNL     1       0.366  12.499  21.304  0.00  0.00    +0.000 C 
BRANCH   9  10
ATOM     10  C   UNL     1       1.464  13.273  20.617  0.00  0.00    +0.000 A 
ATOM     11  C   UNL     1       1.388  13.589  19.266  0.00  0.00    +0.000 A 
ATOM     12  N   UNL     1       2.389  14.222  18.610  0.00  0.00    +0.000 NA
ATOM     13  C   UNL     1       3.490  14.540  19.344  0.00  0.00    +0.000 A 
ATOM     14  C   UNL     1       4.608  15.222  18.615  0.00  0.00    +0.000 C 
ATOM     15  C   UNL     1       3.563  14.234  20.699  0.00  0.00    +0.000 A 
ATOM     16  N   UNL     1       2.558  13.597  21.358  0.00  0.00    +0.000 NA
BRANCH  15  17
ATOM     17  C   UNL     1       4.723  14.539  21.488  0.00  0.00    +0.000 C 
ATOM     18  N   UNL     1       5.643  14.774  22.163  0.00  0.00    +0.000 NA
ENDBRANCH  15  17
ENDBRANCH   9  10
ENDBRANCH   7   9
ENDBRANCH   4   7
BRANCH   1  19
ATOM     19  C   UNL     1       2.648   8.095  18.433  0.00  0.00    +0.000 C 
BRANCH  19  20
ATOM     20  C   UNL     1       2.546   6.684  17.821  0.00  0.00    +0.000 C 
BRANCH  20  29
ATOM     21  C   UNL     1       6.862   6.488  17.421  0.00  0.00    +0.000 A 
ATOM     22  C   UNL     1       7.465   5.317  17.865  0.00  0.00    +0.000 A 
ATOM     23  N   UNL     1       6.810   4.316  18.489  0.00  0.00    +0.000 NA
ATOM     24  C   UNL     1       5.483   4.491  18.678  0.00  0.00    +0.000 A 
ATOM     25  C   UNL     1       4.808   3.446  19.428  0.00  0.00    +0.000 A 
ATOM     26  C   UNL     1       3.519   3.580  19.747  0.00  0.00    +0.000 A 
ATOM     27  C   UNL     1       2.719   4.743  19.288  0.00  0.00    +0.000 A 
ATOM     28  O   UNL     1       1.531   4.801  19.601  0.00  0.00    +0.000 OA
ATOM     29  N   UNL     1       3.366   5.677  18.485  0.00  0.00    +0.000 N 
ATOM     30  C   UNL     1       4.766   5.606  18.238  0.00  0.00    +0.000 A 
ATOM     31  C   UNL     1       5.485   6.614  17.592  0.00  0.00    +0.000 A 
BRANCH  21  33
ATOM     32  C   UNL     1       7.943   8.570  17.721  0.00  0.00    +0.000 C 
ATOM     33  O   UNL     1       7.487   7.555  16.836  0.00  0.00    +0.000 OA
ENDBRANCH  21  33
ENDBRANCH  20  29
ENDBRANCH  19  20
ENDBRANCH   1  19
TORSDOF 8
ENDMDL
MODEL 8
REMARK VINA RESULT:      -7.7      3.251      6.196
REMARK  Name = 
REMARK  10 active torsions:
REMARK  status: ('A' for Active; 'I' for Inactive)
REMARK    1  A    between atoms: C_1  and  O_2
REMARK    2  A    between atoms: O_2  and  C_3
REMARK    3  A    between atoms: N_11  and  C_12
REMARK    4  A    between atoms: C_12  and  C_13
REMARK    5  A    between atoms: C_13  and  N_14
REMARK    6  A    between atoms: C_17  and  N_18
REMARK    7  A    between atoms: N_18  and  C_19
REMARK    8  A    between atoms: C_19  and  C_20
REMARK    9  A    between atoms: C_23  and  C_24
REMARK   10  A    between atoms: C_25  and  C_26
REMARK                            x       y       z     vdW  Elec       q    Type
REMARK                         _______ _______ _______ _____ _____    ______ ____
ROOT
ATOM      1  N   UNL     1       1.076   8.259  20.297  0.00  0.00    +0.000 NA
ATOM      2  C   UNL     1       1.360   8.654  21.690  0.00  0.00    +0.000 C 
ATOM      3  C   UNL     1       0.198   9.435  22.298  0.00  0.00    +0.000 C 
ATOM      4  C   UNL     1      -0.153  10.680  21.475  0.00  0.00    +0.000 C 
ATOM      5  C   UNL     1      -0.406  10.217  20.030  0.00  0.00    +0.000 C 
ATOM      6  C   UNL     1       0.782   9.435  19.465  0.00  0.00    +0.000 C 
ENDROOT
BRANCH   4   7
ATOM      7  N   UNL     1       0.906  11.705  21.607  0.00  0.00    +0.000 NA
ATOM      8  H   UNL     1       1.678  11.484  20.976  0.00  0.00    +0.000 HD
BRANCH   7   9
ATOM      9  C   UNL     1       0.411  13.048  21.281  0.00  0.00    +0.000 C 
BRANCH   9  10
ATOM     10  C   UNL     1       1.203  13.751  20.207  0.00  0.00    +0.000 A 
ATOM     11  C   UNL     1       1.847  13.040  19.202  0.00  0.00    +0.000 A 
ATOM     12  N   UNL     1       2.620  13.640  18.267  0.00  0.00    +0.000 NA
ATOM     13  C   UNL     1       2.739  14.994  18.355  0.00  0.00    +0.000 A 
ATOM     14  C   UNL     1       3.610  15.658  17.333  0.00  0.00    +0.000 C 
ATOM     15  C   UNL     1       2.085  15.708  19.353  0.00  0.00    +0.000 A 
ATOM     16  N   UNL     1       1.310  15.105  20.295  0.00  0.00    +0.000 NA
BRANCH  15  17
ATOM     17  C   UNL     1       2.214  17.132  19.481  0.00  0.00    +0.000 C 
ATOM     18  N   UNL     1       2.285  18.292  19.559  0.00  0.00    +0.000 NA
ENDBRANCH  15  17
ENDBRANCH   9  10
ENDBRANCH   7   9
ENDBRANCH   4   7
BRANCH   1  19
ATOM     19  C   UNL     1       2.192   7.479  19.715  0.00  0.00    +0.000 C 
BRANCH  19  20
ATOM     20  C   UNL     1       2.368   6.113  20.407  0.00  0.00    +0.000 C 
BRANCH  20  29
ATOM     21  C   UNL     1       5.873   5.531  17.917  0.00  0.00    +0.000 A 
ATOM     22  C   UNL     1       5.750   4.596  16.897  0.00  0.00    +0.000 A 
ATOM     23  N   UNL     1       4.669   3.810  16.714  0.00  0.00    +0.000 NA
ATOM     24  C   UNL     1       3.655   3.968  17.594  0.00  0.00    +0.000 A 
ATOM     25  C   UNL     1       2.535   3.055  17.439  0.00  0.00    +0.000 A 
ATOM     26  C   UNL     1       1.533   3.073  18.321  0.00  0.00    +0.000 A 
ATOM     27  C   UNL     1       1.486   4.061  19.428  0.00  0.00    +0.000 A 
ATOM     28  O   UNL     1       0.527   4.036  20.199  0.00  0.00    +0.000 OA
ATOM     29  N   UNL     1       2.521   4.988  19.492  0.00  0.00    +0.000 N 
ATOM     30  C   UNL     1       3.651   4.904  18.631  0.00  0.00    +0.000 A 
ATOM     31  C   UNL     1       4.790   5.699  18.777  0.00  0.00    +0.000 A 
BRANCH  21  33
ATOM     32  C   UNL     1       7.888   5.787  19.129  0.00  0.00    +0.000 C 
ATOM     33  O   UNL     1       6.966   6.311  18.181  0.00  0.00    +0.000 OA
ENDBRANCH  21  33
ENDBRANCH  20  29
ENDBRANCH  19  20
ENDBRANCH   1  19
TORSDOF 8
ENDMDL
MODEL 9
REMARK VINA RESULT:      -7.7      2.951      5.699
REMARK  Name = 
REMARK  10 active torsions:
REMARK  status: ('A' for Active; 'I' for Inactive)
REMARK    1  A    between atoms: C_1  and  O_2
REMARK    2  A    between atoms: O_2  and  C_3
REMARK    3  A    between atoms: N_11  and  C_12
REMARK    4  A    between atoms: C_12  and  C_13
REMARK    5  A    between atoms: C_13  and  N_14
REMARK    6  A    between atoms: C_17  and  N_18
REMARK    7  A    between atoms: N_18  and  C_19
REMARK    8  A    between atoms: C_19  and  C_20
REMARK    9  A    between atoms: C_23  and  C_24
REMARK   10  A    between atoms: C_25  and  C_26
REMARK                            x       y       z     vdW  Elec       q    Type
REMARK                         _______ _______ _______ _____ _____    ______ ____
ROOT
ATOM      1  N   UNL     1       1.341   8.380  18.821  0.00  0.00    +0.000 NA
ATOM      2  C   UNL     1       1.449   8.537  20.285  0.00  0.00    +0.000 C 
ATOM      3  C   UNL     1       0.142   9.041  20.891  0.00  0.00    +0.000 C 
ATOM      4  C   UNL     1      -0.310  10.367  20.266  0.00  0.00    +0.000 C 
ATOM      5  C   UNL     1      -0.372  10.158  18.744  0.00  0.00    +0.000 C 
ATOM      6  C   UNL     1       0.957   9.647  18.183  0.00  0.00    +0.000 C 
ENDROOT
BRANCH   4   7
ATOM      7  N   UNL     1       0.581  11.470  20.690  0.00  0.00    +0.000 NA
ATOM      8  H   UNL     1       1.386  11.521  20.064  0.00  0.00    +0.000 HD
BRANCH   7   9
ATOM      9  C   UNL     1      -0.107  12.767  20.669  0.00  0.00    +0.000 C 
BRANCH   9  10
ATOM     10  C   UNL     1      -1.313  12.837  21.573  0.00  0.00    +0.000 A 
ATOM     11  C   UNL     1      -1.178  12.893  22.954  0.00  0.00    +0.000 A 
ATOM     12  N   UNL     1      -2.242  12.887  23.791  0.00  0.00    +0.000 NA
ATOM     13  C   UNL     1      -3.471  12.824  23.208  0.00  0.00    +0.000 A 
ATOM     14  C   UNL     1      -4.651  12.797  24.132  0.00  0.00    +0.000 C 
ATOM     15  C   UNL     1      -3.608  12.780  21.825  0.00  0.00    +0.000 A 
ATOM     16  N   UNL     1      -2.539  12.784  20.984  0.00  0.00    +0.000 NA
BRANCH  15  17
ATOM     17  C   UNL     1      -4.893  12.690  21.188  0.00  0.00    +0.000 C 
ATOM     18  N   UNL     1      -5.920  12.644  20.642  0.00  0.00    +0.000 NA
ENDBRANCH  15  17
ENDBRANCH   9  10
ENDBRANCH   7   9
ENDBRANCH   4   7
BRANCH   1  19
ATOM     19  C   UNL     1       2.601   7.866  18.236  0.00  0.00    +0.000 C 
BRANCH  19  20
ATOM     20  C   UNL     1       3.279   6.823  19.146  0.00  0.00    +0.000 C 
BRANCH  20  29
ATOM     21  C   UNL     1       6.671   5.798  16.641  0.00  0.00    +0.000 A 
ATOM     22  C   UNL     1       6.553   4.629  15.900  0.00  0.00    +0.000 A 
ATOM     23  N   UNL     1       5.516   3.771  15.996  0.00  0.00    +0.000 NA
ATOM     24  C   UNL     1       4.545   4.098  16.877  0.00  0.00    +0.000 A 
ATOM     25  C   UNL     1       3.479   3.123  17.034  0.00  0.00    +0.000 A 
ATOM     26  C   UNL     1       2.529   3.315  17.951  0.00  0.00    +0.000 A 
ATOM     27  C   UNL     1       2.479   4.549  18.776  0.00  0.00    +0.000 A 
ATOM     28  O   UNL     1       1.568   4.674  19.593  0.00  0.00    +0.000 OA
ATOM     29  N   UNL     1       3.454   5.511  18.533  0.00  0.00    +0.000 N 
ATOM     30  C   UNL     1       4.538   5.265  17.643  0.00  0.00    +0.000 A 
ATOM     31  C   UNL     1       5.629   6.126  17.506  0.00  0.00    +0.000 A 
BRANCH  21  33
ATOM     32  C   UNL     1       7.650   7.751  17.547  0.00  0.00    +0.000 C 
ATOM     33  O   UNL     1       7.725   6.671  16.624  0.00  0.00    +0.000 OA
ENDBRANCH  21  33
ENDBRANCH  20  29
ENDBRANCH  19  20
ENDBRANCH   1  19
TORSDOF 8
ENDMDL
