MODEL 1
REMARK VINA RESULT:      -7.7      0.000      0.000
REMARK  Name = 
REMARK  4 active torsions:
REMARK  status: ('A' for Active; 'I' for Inactive)
REMARK    1  A    between atoms: N_1  and  C_2
REMARK    2  A    between atoms: N_4  and  C_5
REMARK    3  A    between atoms: C_13  and  N_14
REMARK    4  A    between atoms: N_15  and  C_16
REMARK                            x       y       z     vdW  Elec       q    Type
REMARK                         _______ _______ _______ _____ _____    ______ ____
ROOT
ATOM      1  C   UNL     1       4.625   4.436  17.519  0.00  0.00    +0.000 A 
ATOM      2  N   UNL     1       5.177   3.786  16.431  0.00  0.00    +0.000 N 
ATOM      3  N   UNL     1       5.481   4.764  15.469  0.00  0.00    +0.000 N 
ATOM      4  C   UNL     1       5.046   6.005  15.934  0.00  0.00    +0.000 A 
ATOM      5  O   UNL     1       5.130   7.097  15.393  0.00  0.00    +0.000 OA
ATOM      6  C   UNL     1       4.441   5.748  17.297  0.00  0.00    +0.000 A 
ATOM      7  H   UNL     1       5.985   3.223  16.685  0.00  0.00    +0.000 HD
ENDROOT
BRANCH   3   8
ATOM      8  C   UNL     1       6.023   4.401  14.216  0.00  0.00    +0.000 A 
ATOM      9  C   UNL     1       7.219   4.964  13.747  0.00  0.00    +0.000 A 
ATOM     10  C   UNL     1       7.731   4.619  12.489  0.00  0.00    +0.000 A 
ATOM     11  C   UNL     1       7.050   3.719  11.679  0.00  0.00    +0.000 A 
ATOM     12  C   UNL     1       5.858   3.155  12.123  0.00  0.00    +0.000 A 
ATOM     13  C   UNL     1       5.355   3.488  13.386  0.00  0.00    +0.000 A 
ENDBRANCH   3   8
BRANCH   1  14
ATOM     14  N   UNL     1       4.329   3.779  18.693  0.00  0.00    +0.000 N 
ATOM     15  H   UNL     1       5.099   3.236  19.072  0.00  0.00    +0.000 HD
ATOM     16  H   UNL     1       3.839   4.345  19.371  0.00  0.00    +0.000 HD
ENDBRANCH   1  14
BRANCH   6  17
ATOM     17  N   UNL     1       3.884   6.662  18.147  0.00  0.00    +0.000 NA
ATOM     18  N   UNL     1       2.900   7.285  17.713  0.00  0.00    +0.000 NA
BRANCH  18  19
ATOM     19  C   UNL     1       2.266   8.080  18.689  0.00  0.00    +0.000 A 
ATOM     20  C   UNL     1       2.009   7.483  19.924  0.00  0.00    +0.000 A 
ATOM     21  C   UNL     1       1.392   8.193  20.955  0.00  0.00    +0.000 A 
ATOM     22  C   UNL     1       0.657   9.337  20.610  0.00  0.00    +0.000 A 
ATOM     23  N   UNL     1      -0.353   9.914  21.362  0.00  0.00    +0.000 NA
ATOM     24  C   UNL     1      -0.883  10.905  20.681  0.00  0.00    +0.000 A 
ATOM     25  S   UNL     1      -0.052  11.366  19.254  0.00  0.00    +0.000 S 
ATOM     26  C   UNL     1       0.922   9.947  19.381  0.00  0.00    +0.000 A 
ATOM     27  C   UNL     1       1.845   9.402  18.469  0.00  0.00    +0.000 A 
ENDBRANCH  18  19
ENDBRANCH   6  17
TORSDOF 4
ENDMDL
MODEL 2
REMARK VINA RESULT:      -7.5      2.103      3.386
REMARK  Name = 
REMARK  4 active torsions:
REMARK  status: ('A' for Active; 'I' for Inactive)
REMARK    1  A    between atoms: N_1  and  C_2
REMARK    2  A    between atoms: N_4  and  C_5
REMARK    3  A    between atoms: C_13  and  N_14
REMARK    4  A    between atoms: N_15  and  C_16
REMARK                            x       y       z     vdW  Elec       q    Type
REMARK                         _______ _______ _______ _____ _____    ______ ____
ROOT
ATOM      1  C   UNL     1       2.672   5.775  19.975  0.00  0.00    +0.000 A 
ATOM      2  N   UNL     1       3.560   5.037  19.213  0.00  0.00    +0.000 N 
ATOM      3  N   UNL     1       3.988   5.858  18.157  0.00  0.00    +0.000 N 
ATOM      4  C   UNL     1       3.308   7.074  18.225  0.00  0.00    +0.000 A 
ATOM      5  O   UNL     1       3.405   8.047  17.493  0.00  0.00    +0.000 OA
ATOM      6  C   UNL     1       2.404   6.975  19.434  0.00  0.00    +0.000 A 
ATOM      7  H   UNL     1       4.333   4.672  19.764  0.00  0.00    +0.000 HD
ENDROOT
BRANCH   3   8
ATOM      8  C   UNL     1       4.876   5.366  17.174  0.00  0.00    +0.000 A 
ATOM      9  C   UNL     1       4.597   4.193  16.459  0.00  0.00    +0.000 A 
ATOM     10  C   UNL     1       5.500   3.699  15.507  0.00  0.00    +0.000 A 
ATOM     11  C   UNL     1       6.696   4.364  15.266  0.00  0.00    +0.000 A 
ATOM     12  C   UNL     1       6.994   5.527  15.970  0.00  0.00    +0.000 A 
ATOM     13  C   UNL     1       6.085   6.027  16.910  0.00  0.00    +0.000 A 
ENDBRANCH   3   8
BRANCH   1  14
ATOM     14  N   UNL     1       2.159   5.305  21.164  0.00  0.00    +0.000 N 
ATOM     15  H   UNL     1       1.151   5.396  21.247  0.00  0.00    +0.000 HD
ATOM     16  H   UNL     1       2.526   4.407  21.446  0.00  0.00    +0.000 HD
ENDBRANCH   1  14
BRANCH   6  17
ATOM     17  N   UNL     1       1.544   7.925  19.911  0.00  0.00    +0.000 NA
ATOM     18  N   UNL     1       1.614   8.165  21.129  0.00  0.00    +0.000 NA
BRANCH  18  19
ATOM     19  C   UNL     1       0.833   9.269  21.527  0.00  0.00    +0.000 A 
ATOM     20  C   UNL     1       0.133   9.152  22.728  0.00  0.00    +0.000 A 
ATOM     21  C   UNL     1      -0.660  10.195  23.208  0.00  0.00    +0.000 A 
ATOM     22  C   UNL     1      -1.087  11.165  22.287  0.00  0.00    +0.000 A 
ATOM     23  N   UNL     1      -2.186  11.996  22.431  0.00  0.00    +0.000 NA
ATOM     24  C   UNL     1      -2.340  12.698  21.332  0.00  0.00    +0.000 A 
ATOM     25  S   UNL     1      -1.060  12.606  20.195  0.00  0.00    +0.000 S 
ATOM     26  C   UNL     1      -0.381  11.296  21.090  0.00  0.00    +0.000 A 
ATOM     27  C   UNL     1       0.689  10.440  20.765  0.00  0.00    +0.000 A 
ENDBRANCH  18  19
ENDBRANCH   6  17
TORSDOF 4
ENDMDL
MODEL 3
REMARK VINA RESULT:      -7.4      3.718      5.476
REMARK  Name = 
REMARK  4 active torsions:
REMARK  status: ('A' for Active; 'I' for Inactive)
REMARK    1  A    between atoms: N_1  and  C_2
REMARK    2  A    between atoms: N_4  and  C_5
REMARK    3  A    between atoms: C_13  and  N_14
REMARK    4  A    between atoms: N_15  and  C_16
REMARK                            x       y       z     vdW  Elec       q    Type
REMARK                         _______ _______ _______ _____ _____    ______ ____
ROOT
ATOM      1  C   UNL     1       1.920   9.201  18.334  0.00  0.00    +0.000 A 
ATOM      2  N   UNL     1       2.601   8.151  17.747  0.00  0.00    +0.000 N 
ATOM      3  N   UNL     1       2.514   7.055  18.620  0.00  0.00    +0.000 N 
ATOM      4  C   UNL     1       1.844   7.451  19.778  0.00  0.00    +0.000 A 
ATOM      5  O   UNL     1       1.566   6.789  20.766  0.00  0.00    +0.000 OA
ATOM      6  C   UNL     1       1.490   8.908  19.573  0.00  0.00    +0.000 A 
ATOM      7  H   UNL     1       2.256   7.937  16.815  0.00  0.00    +0.000 HD
ENDROOT
BRANCH   3   8
ATOM      8  C   UNL     1       3.155   5.833  18.315  0.00  0.00    +0.000 A 
ATOM      9  C   UNL     1       2.454   4.763  17.741  0.00  0.00    +0.000 A 
ATOM     10  C   UNL     1       3.095   3.546  17.471  0.00  0.00    +0.000 A 
ATOM     11  C   UNL     1       4.439   3.379  17.780  0.00  0.00    +0.000 A 
ATOM     12  C   UNL     1       5.151   4.428  18.355  0.00  0.00    +0.000 A 
ATOM     13  C   UNL     1       4.514   5.647  18.611  0.00  0.00    +0.000 A 
ENDBRANCH   3   8
BRANCH   1  14
ATOM     14  N   UNL     1       1.707  10.395  17.680  0.00  0.00    +0.000 N 
ATOM     15  H   UNL     1       1.603  10.305  16.674  0.00  0.00    +0.000 HD
ATOM     16  H   UNL     1       1.023  10.992  18.123  0.00  0.00    +0.000 HD
ENDBRANCH   1  14
BRANCH   6  17
ATOM     17  N   UNL     1       0.822   9.732  20.435  0.00  0.00    +0.000 NA
ATOM     18  N   UNL     1      -0.110  10.395  19.948  0.00  0.00    +0.000 NA
BRANCH  18  19
ATOM     19  C   UNL     1      -0.868  11.088  20.914  0.00  0.00    +0.000 A 
ATOM     20  C   UNL     1      -0.754  10.659  22.236  0.00  0.00    +0.000 A 
ATOM     21  C   UNL     1      -1.459  11.289  23.263  0.00  0.00    +0.000 A 
ATOM     22  C   UNL     1      -2.586  12.047  22.910  0.00  0.00    +0.000 A 
ATOM     23  N   UNL     1      -3.642  12.375  23.744  0.00  0.00    +0.000 NA
ATOM     24  C   UNL     1      -4.562  13.002  23.047  0.00  0.00    +0.000 A 
ATOM     25  S   UNL     1      -4.116  13.462  21.457  0.00  0.00    +0.000 S 
ATOM     26  C   UNL     1      -2.697  12.491  21.590  0.00  0.00    +0.000 A 
ATOM     27  C   UNL     1      -1.751  12.137  20.609  0.00  0.00    +0.000 A 
ENDBRANCH  18  19
ENDBRANCH   6  17
TORSDOF 4
ENDMDL
MODEL 4
REMARK VINA RESULT:      -7.4      3.972      9.699
REMARK  Name = 
REMARK  4 active torsions:
REMARK  status: ('A' for Active; 'I' for Inactive)
REMARK    1  A    between atoms: N_1  and  C_2
REMARK    2  A    between atoms: N_4  and  C_5
REMARK    3  A    between atoms: C_13  and  N_14
REMARK    4  A    between atoms: N_15  and  C_16
REMARK                            x       y       z     vdW  Elec       q    Type
REMARK                         _______ _______ _______ _____ _____    ______ ____
ROOT
ATOM      1  C   UNL     1       1.118  10.670  18.816  0.00  0.00    +0.000 A 
ATOM      2  N   UNL     1       0.133  11.581  19.147  0.00  0.00    +0.000 N 
ATOM      3  N   UNL     1      -0.536  11.082  20.276  0.00  0.00    +0.000 N 
ATOM      4  C   UNL     1      -0.013   9.828  20.595  0.00  0.00    +0.000 A 
ATOM      5  O   UNL     1      -0.325   9.078  21.507  0.00  0.00    +0.000 OA
ATOM      6  C   UNL     1       1.071   9.561  19.574  0.00  0.00    +0.000 A 
ATOM      7  H   UNL     1       0.504  12.517  19.294  0.00  0.00    +0.000 HD
ENDROOT
BRANCH   3   8
ATOM      8  C   UNL     1      -1.634  11.776  20.832  0.00  0.00    +0.000 A 
ATOM      9  C   UNL     1      -1.782  11.921  22.219  0.00  0.00    +0.000 A 
ATOM     10  C   UNL     1      -2.891  12.585  22.759  0.00  0.00    +0.000 A 
ATOM     11  C   UNL     1      -3.872  13.102  21.922  0.00  0.00    +0.000 A 
ATOM     12  C   UNL     1      -3.748  12.964  20.543  0.00  0.00    +0.000 A 
ATOM     13  C   UNL     1      -2.632  12.313  20.004  0.00  0.00    +0.000 A 
ENDBRANCH   3   8
BRANCH   1  14
ATOM     14  N   UNL     1       2.044  10.917  17.825  0.00  0.00    +0.000 N 
ATOM     15  H   UNL     1       1.637  11.140  16.922  0.00  0.00    +0.000 HD
ATOM     16  H   UNL     1       2.800  11.524  18.108  0.00  0.00    +0.000 HD
ENDBRANCH   1  14
BRANCH   6  17
ATOM     17  N   UNL     1       1.873   8.458  19.479  0.00  0.00    +0.000 NA
ATOM     18  N   UNL     1       2.113   8.053  18.328  0.00  0.00    +0.000 NA
BRANCH  18  19
ATOM     19  C   UNL     1       3.080   7.027  18.287  0.00  0.00    +0.000 A 
ATOM     20  C   UNL     1       3.007   6.046  19.276  0.00  0.00    +0.000 A 
ATOM     21  C   UNL     1       3.915   4.987  19.311  0.00  0.00    +0.000 A 
ATOM     22  C   UNL     1       5.132   5.150  18.632  0.00  0.00    +0.000 A 
ATOM     23  N   UNL     1       6.305   4.457  18.884  0.00  0.00    +0.000 NA
ATOM     24  C   UNL     1       7.262   4.943  18.128  0.00  0.00    +0.000 A 
ATOM     25  S   UNL     1       6.771   6.046  16.910  0.00  0.00    +0.000 S 
ATOM     26  C   UNL     1       5.205   6.121  17.631  0.00  0.00    +0.000 A 
ATOM     27  C   UNL     1       4.121   6.973  17.346  0.00  0.00    +0.000 A 
ENDBRANCH  18  19
ENDBRANCH   6  17
TORSDOF 4
ENDMDL
MODEL 5
REMARK VINA RESULT:      -7.4      3.950      9.864
REMARK  Name = 
REMARK  4 active torsions:
REMARK  status: ('A' for Active; 'I' for Inactive)
REMARK    1  A    between atoms: N_1  and  C_2
REMARK    2  A    between atoms: N_4  and  C_5
REMARK    3  A    between atoms: C_13  and  N_14
REMARK    4  A    between atoms: N_15  and  C_16
REMARK                            x       y       z     vdW  Elec       q    Type
REMARK                         _______ _______ _______ _____ _____    ______ ____
ROOT
ATOM      1  C   UNL     1       0.301  10.108  19.141  0.00  0.00    +0.000 A 
ATOM      2  N   UNL     1      -0.427  11.139  19.703  0.00  0.00    +0.000 N 
ATOM      3  N   UNL     1      -0.135  11.159  21.077  0.00  0.00    +0.000 N 
ATOM      4  C   UNL     1       0.714  10.092  21.373  0.00  0.00    +0.000 A 
ATOM      5  O   UNL     1       1.195   9.774  22.450  0.00  0.00    +0.000 OA
ATOM      6  C   UNL     1       0.960   9.382  20.060  0.00  0.00    +0.000 A 
ATOM      7  H   UNL     1      -0.247  12.033  19.252  0.00  0.00    +0.000 HD
ENDROOT
BRANCH   3   8
ATOM      8  C   UNL     1      -0.766  12.084  21.938  0.00  0.00    +0.000 A 
ATOM      9  C   UNL     1      -0.239  13.367  22.145  0.00  0.00    +0.000 A 
ATOM     10  C   UNL     1      -0.858  14.265  23.025  0.00  0.00    +0.000 A 
ATOM     11  C   UNL     1      -2.002  13.890  23.717  0.00  0.00    +0.000 A 
ATOM     12  C   UNL     1      -2.537  12.619  23.531  0.00  0.00    +0.000 A 
ATOM     13  C   UNL     1      -1.927  11.728  22.641  0.00  0.00    +0.000 A 
ENDBRANCH   3   8
BRANCH   1  14
ATOM     14  N   UNL     1       0.340   9.893  17.781  0.00  0.00    +0.000 N 
ATOM     15  H   UNL     1       0.392   8.915  17.514  0.00  0.00    +0.000 HD
ATOM     16  H   UNL     1      -0.331  10.437  17.257  0.00  0.00    +0.000 HD
ENDBRANCH   1  14
BRANCH   6  17
ATOM     17  N   UNL     1       1.735   8.277  19.843  0.00  0.00    +0.000 NA
ATOM     18  N   UNL     1       2.102   8.087  18.670  0.00  0.00    +0.000 NA
BRANCH  18  19
ATOM     19  C   UNL     1       3.036   7.040  18.539  0.00  0.00    +0.000 A 
ATOM     20  C   UNL     1       3.029   6.055  19.528  0.00  0.00    +0.000 A 
ATOM     21  C   UNL     1       3.911   4.975  19.479  0.00  0.00    +0.000 A 
ATOM     22  C   UNL     1       5.066   5.112  18.693  0.00  0.00    +0.000 A 
ATOM     23  N   UNL     1       6.240   4.391  18.838  0.00  0.00    +0.000 NA
ATOM     24  C   UNL     1       7.137   4.858  18.000  0.00  0.00    +0.000 A 
ATOM     25  S   UNL     1       6.565   5.978  16.834  0.00  0.00    +0.000 S 
ATOM     26  C   UNL     1       5.072   6.086  17.693  0.00  0.00    +0.000 A 
ATOM     27  C   UNL     1       3.987   6.965  17.509  0.00  0.00    +0.000 A 
ENDBRANCH  18  19
ENDBRANCH   6  17
TORSDOF 4
ENDMDL
MODEL 6
REMARK VINA RESULT:      -7.4      4.044      5.141
REMARK  Name = 
REMARK  4 active torsions:
REMARK  status: ('A' for Active; 'I' for Inactive)
REMARK    1  A    between atoms: N_1  and  C_2
REMARK    2  A    between atoms: N_4  and  C_5
REMARK    3  A    between atoms: C_13  and  N_14
REMARK    4  A    between atoms: N_15  and  C_16
REMARK                            x       y       z     vdW  Elec       q    Type
REMARK                         _______ _______ _______ _____ _____    ______ ____
ROOT
ATOM      1  C   UNL     1       2.418   7.737  18.576  0.00  0.00    +0.000 A 
ATOM      2  N   UNL     1       2.897   6.540  18.078  0.00  0.00    +0.000 N 
ATOM      3  N   UNL     1       2.542   5.534  18.992  0.00  0.00    +0.000 N 
ATOM      4  C   UNL     1       1.911   6.121  20.089  0.00  0.00    +0.000 A 
ATOM      5  O   UNL     1       1.454   5.585  21.086  0.00  0.00    +0.000 OA
ATOM      6  C   UNL     1       1.876   7.606  19.799  0.00  0.00    +0.000 A 
ATOM      7  H   UNL     1       2.562   6.350  17.137  0.00  0.00    +0.000 HD
ENDROOT
BRANCH   3   8
ATOM      8  C   UNL     1       2.934   4.193  18.779  0.00  0.00    +0.000 A 
ATOM      9  C   UNL     1       2.367   3.420  17.755  0.00  0.00    +0.000 A 
ATOM     10  C   UNL     1       2.742   2.082  17.574  0.00  0.00    +0.000 A 
ATOM     11  C   UNL     1       3.676   1.496  18.418  0.00  0.00    +0.000 A 
ATOM     12  C   UNL     1       4.245   2.245  19.444  0.00  0.00    +0.000 A 
ATOM     13  C   UNL     1       3.882   3.585  19.616  0.00  0.00    +0.000 A 
ENDBRANCH   3   8
BRANCH   1  14
ATOM     14  N   UNL     1       2.487   8.911  17.859  0.00  0.00    +0.000 N 
ATOM     15  H   UNL     1       2.899   8.812  16.935  0.00  0.00    +0.000 HD
ATOM     16  H   UNL     1       1.642   9.462  17.886  0.00  0.00    +0.000 HD
ENDBRANCH   1  14
BRANCH   6  17
ATOM     17  N   UNL     1       1.349   8.596  20.582  0.00  0.00    +0.000 NA
ATOM     18  N   UNL     1       0.512   9.337  20.039  0.00  0.00    +0.000 NA
BRANCH  18  19
ATOM     19  C   UNL     1      -0.120  10.219  20.939  0.00  0.00    +0.000 A 
ATOM     20  C   UNL     1      -0.331   9.757  22.238  0.00  0.00    +0.000 A 
ATOM     21  C   UNL     1      -0.941  10.562  23.202  0.00  0.00    +0.000 A 
ATOM     22  C   UNL     1      -1.716  11.642  22.752  0.00  0.00    +0.000 A 
ATOM     23  N   UNL     1      -2.723  12.274  23.462  0.00  0.00    +0.000 NA
ATOM     24  C   UNL     1      -3.297  13.169  22.691  0.00  0.00    +0.000 A 
ATOM     25  S   UNL     1      -2.513  13.489  21.200  0.00  0.00    +0.000 S 
ATOM     26  C   UNL     1      -1.498  12.117  21.456  0.00  0.00    +0.000 A 
ATOM     27  C   UNL     1      -0.582  11.497  20.585  0.00  0.00    +0.000 A 
ENDBRANCH  18  19
ENDBRANCH   6  17
TORSDOF 4
ENDMDL
MODEL 7
REMARK VINA RESULT:      -7.3      3.028      4.801
REMARK  Name = 
REMARK  4 active torsions:
REMARK  status: ('A' for Active; 'I' for Inactive)
REMARK    1  A    between atoms: N_1  and  C_2
REMARK    2  A    between atoms: N_4  and  C_5
REMARK    3  A    between atoms: C_13  and  N_14
REMARK    4  A    between atoms: N_15  and  C_16
REMARK                            x       y       z     vdW  Elec       q    Type
REMARK                         _______ _______ _______ _____ _____    ______ ____
ROOT
ATOM      1  C   UNL     1       1.940   9.126  18.124  0.00  0.00    +0.000 A 
ATOM      2  N   UNL     1       2.778   8.307  17.390  0.00  0.00    +0.000 N 
ATOM      3  N   UNL     1       2.941   7.116  18.116  0.00  0.00    +0.000 N 
ATOM      4  C   UNL     1       2.264   7.230  19.330  0.00  0.00    +0.000 A 
ATOM      5  O   UNL     1       2.163   6.410  20.230  0.00  0.00    +0.000 OA
ATOM      6  C   UNL     1       1.633   8.605  19.324  0.00  0.00    +0.000 A 
ATOM      7  H   UNL     1       2.436   8.147  16.446  0.00  0.00    +0.000 HD
ENDROOT
BRANCH   3   8
ATOM      8  C   UNL     1       3.786   6.088  17.639  0.00  0.00    +0.000 A 
ATOM      9  C   UNL     1       5.082   6.363  17.179  0.00  0.00    +0.000 A 
ATOM     10  C   UNL     1       5.899   5.339  16.681  0.00  0.00    +0.000 A 
ATOM     11  C   UNL     1       5.430   4.033  16.625  0.00  0.00    +0.000 A 
ATOM     12  C   UNL     1       4.144   3.741  17.072  0.00  0.00    +0.000 A 
ATOM     13  C   UNL     1       3.334   4.761  17.582  0.00  0.00    +0.000 A 
ENDBRANCH   3   8
BRANCH   1  14
ATOM     14  N   UNL     1       1.475  10.327  17.635  0.00  0.00    +0.000 N 
ATOM     15  H   UNL     1       0.829  10.237  16.856  0.00  0.00    +0.000 HD
ATOM     16  H   UNL     1       1.185  10.979  18.349  0.00  0.00    +0.000 HD
ENDBRANCH   1  14
BRANCH   6  17
ATOM     17  N   UNL     1       0.863   9.173  20.301  0.00  0.00    +0.000 NA
ATOM     18  N   UNL     1       1.020  10.393  20.481  0.00  0.00    +0.000 NA
BRANCH  18  19
ATOM     19  C   UNL     1       0.081  10.952  21.372  0.00  0.00    +0.000 A 
ATOM     20  C   UNL     1      -0.340  10.152  22.434  0.00  0.00    +0.000 A 
ATOM     21  C   UNL     1      -1.261  10.621  23.373  0.00  0.00    +0.000 A 
ATOM     22  C   UNL     1      -2.069  11.707  23.005  0.00  0.00    +0.000 A 
ATOM     23  N   UNL     1      -3.291  12.041  23.566  0.00  0.00    +0.000 NA
ATOM     24  C   UNL     1      -3.807  13.051  22.904  0.00  0.00    +0.000 A 
ATOM     25  S   UNL     1      -2.770  13.815  21.772  0.00  0.00    +0.000 S 
ATOM     26  C   UNL     1      -1.644  12.520  21.951  0.00  0.00    +0.000 A 
ATOM     27  C   UNL     1      -0.477  12.232  21.219  0.00  0.00    +0.000 A 
ENDBRANCH  18  19
ENDBRANCH   6  17
TORSDOF 4
ENDMDL
MODEL 8
REMARK VINA RESULT:      -7.3      4.966      6.593
REMARK  Name = 
REMARK  4 active torsions:
REMARK  status: ('A' for Active; 'I' for Inactive)
REMARK    1  A    between atoms: N_1  and  C_2
REMARK    2  A    between atoms: N_4  and  C_5
REMARK    3  A    between atoms: C_13  and  N_14
REMARK    4  A    between atoms: N_15  and  C_16
REMARK                            x       y       z     vdW  Elec       q    Type
REMARK                         _______ _______ _______ _____ _____    ______ ____
ROOT
ATOM      1  C   UNL     1       6.601   5.512  16.460  0.00  0.00    +0.000 A 
ATOM      2  N   UNL     1       5.607   4.552  16.426  0.00  0.00    +0.000 N 
ATOM      3  N   UNL     1       4.807   4.736  17.565  0.00  0.00    +0.000 N 
ATOM      4  C   UNL     1       5.353   5.760  18.340  0.00  0.00    +0.000 A 
ATOM      5  O   UNL     1       4.948   6.218  19.398  0.00  0.00    +0.000 OA
ATOM      6  C   UNL     1       6.578   6.237  17.591  0.00  0.00    +0.000 A 
ATOM      7  H   UNL     1       5.070   4.579  15.562  0.00  0.00    +0.000 HD
ENDROOT
BRANCH   3   8
ATOM      8  C   UNL     1       3.723   3.871  17.836  0.00  0.00    +0.000 A 
ATOM      9  C   UNL     1       2.397   4.325  17.789  0.00  0.00    +0.000 A 
ATOM     10  C   UNL     1       1.332   3.465  18.089  0.00  0.00    +0.000 A 
ATOM     11  C   UNL     1       1.577   2.147  18.450  0.00  0.00    +0.000 A 
ATOM     12  C   UNL     1       2.887   1.679  18.508  0.00  0.00    +0.000 A 
ATOM     13  C   UNL     1       3.949   2.534  18.195  0.00  0.00    +0.000 A 
ENDBRANCH   3   8
BRANCH   1  14
ATOM     14  N   UNL     1       7.486   5.689  15.419  0.00  0.00    +0.000 N 
ATOM     15  H   UNL     1       7.091   5.509  14.501  0.00  0.00    +0.000 HD
ATOM     16  H   UNL     1       8.034   6.535  15.483  0.00  0.00    +0.000 HD
ENDBRANCH   1  14
BRANCH   6  17
ATOM     17  N   UNL     1       7.442   7.233  17.954  0.00  0.00    +0.000 NA
ATOM     18  N   UNL     1       7.350   8.296  17.317  0.00  0.00    +0.000 NA
BRANCH  18  19
ATOM     19  C   UNL     1       8.139   9.336  17.850  0.00  0.00    +0.000 A 
ATOM     20  C   UNL     1       8.853   9.058  19.016  0.00  0.00    +0.000 A 
ATOM     21  C   UNL     1       9.667  10.022  19.612  0.00  0.00    +0.000 A 
ATOM     22  C   UNL     1       9.427  11.367  19.291  0.00  0.00    +0.000 A 
ATOM     23  N   UNL     1       9.788  12.464  20.055  0.00  0.00    +0.000 NA
ATOM     24  C   UNL     1       9.311  13.553  19.496  0.00  0.00    +0.000 A 
ATOM     25  S   UNL     1       8.651  13.363  17.925  0.00  0.00    +0.000 S 
ATOM     26  C   UNL     1       8.725  11.650  18.117  0.00  0.00    +0.000 A 
ATOM     27  C   UNL     1       8.203  10.628  17.302  0.00  0.00    +0.000 A 
ENDBRANCH  18  19
ENDBRANCH   6  17
TORSDOF 4
ENDMDL
MODEL 9
REMARK VINA RESULT:      -7.2      4.503      9.968
REMARK  Name = 
REMARK  4 active torsions:
REMARK  status: ('A' for Active; 'I' for Inactive)
REMARK    1  A    between atoms: N_1  and  C_2
REMARK    2  A    between atoms: N_4  and  C_5
REMARK    3  A    between atoms: C_13  and  N_14
REMARK    4  A    between atoms: N_15  and  C_16
REMARK                            x       y       z     vdW  Elec       q    Type
REMARK                         _______ _______ _______ _____ _____    ______ ____
ROOT
ATOM      1  C   UNL     1       0.394  10.074  19.218  0.00  0.00    +0.000 A 
ATOM      2  N   UNL     1      -0.323  11.116  19.776  0.00  0.00    +0.000 N 
ATOM      3  N   UNL     1      -0.023  11.144  21.147  0.00  0.00    +0.000 N 
ATOM      4  C   UNL     1       0.819  10.073  21.448  0.00  0.00    +0.000 A 
ATOM      5  O   UNL     1       1.303   9.759  22.524  0.00  0.00    +0.000 OA
ATOM      6  C   UNL     1       1.052   9.350  20.139  0.00  0.00    +0.000 A 
ATOM      7  H   UNL     1      -0.138  12.004  19.316  0.00  0.00    +0.000 HD
ENDROOT
BRANCH   3   8
ATOM      8  C   UNL     1      -0.642  12.081  22.004  0.00  0.00    +0.000 A 
ATOM      9  C   UNL     1      -1.774  11.744  22.760  0.00  0.00    +0.000 A 
ATOM     10  C   UNL     1      -2.397  12.692  23.584  0.00  0.00    +0.000 A 
ATOM     11  C   UNL     1      -1.906  13.989  23.653  0.00  0.00    +0.000 A 
ATOM     12  C   UNL     1      -0.787  14.345  22.906  0.00  0.00    +0.000 A 
ATOM     13  C   UNL     1      -0.157  13.395  22.095  0.00  0.00    +0.000 A 
ENDBRANCH   3   8
BRANCH   1  14
ATOM     14  N   UNL     1       0.423   9.848  17.859  0.00  0.00    +0.000 N 
ATOM     15  H   UNL     1       1.005   9.064  17.580  0.00  0.00    +0.000 HD
ATOM     16  H   UNL     1      -0.484   9.880  17.415  0.00  0.00    +0.000 HD
ENDBRANCH   1  14
BRANCH   6  17
ATOM     17  N   UNL     1       1.817   8.237  19.926  0.00  0.00    +0.000 NA
ATOM     18  N   UNL     1       1.419   7.189  20.463  0.00  0.00    +0.000 NA
BRANCH  18  19
ATOM     19  C   UNL     1       2.145   6.047  20.066  0.00  0.00    +0.000 A 
ATOM     20  C   UNL     1       3.335   6.262  19.371  0.00  0.00    +0.000 A 
ATOM     21  C   UNL     1       4.126   5.194  18.945  0.00  0.00    +0.000 A 
ATOM     22  C   UNL     1       3.516   3.935  18.836  0.00  0.00    +0.000 A 
ATOM     23  N   UNL     1       3.957   2.882  18.051  0.00  0.00    +0.000 NA
ATOM     24  C   UNL     1       3.085   1.902  18.118  0.00  0.00    +0.000 A 
ATOM     25  S   UNL     1       1.854   2.071  19.300  0.00  0.00    +0.000 S 
ATOM     26  C   UNL     1       2.332   3.711  19.542  0.00  0.00    +0.000 A 
ATOM     27  C   UNL     1       1.713   4.730  20.291  0.00  0.00    +0.000 A 
ENDBRANCH  18  19
ENDBRANCH   6  17
TORSDOF 4
ENDMDL
