MODEL 1
REMARK VINA RESULT:      -8.6      0.000      0.000
REMARK  Name = 
REMARK  9 active torsions:
REMARK  status: ('A' for Active; 'I' for Inactive)
REMARK    1  A    between atoms: C_1  and  C_2
REMARK    2  A    between atoms: C_2  and  O_3
REMARK    3  A    between atoms: O_3  and  C_4
REMARK    4  A    between atoms: C_8  and  C_9
REMARK    5  A    between atoms: C_15  and  C_16
REMARK    6  A    between atoms: C_16  and  O_17
REMARK    7  A    between atoms: O_17  and  C_18
REMARK    8  A    between atoms: C_18  and  C_20
REMARK    9  A    between atoms: C_21  and  C_22
REMARK                            x       y       z     vdW  Elec       q    Type
REMARK                         _______ _______ _______ _____ _____    ______ ____
ROOT
ATOM      1  C   UNL     1       5.113   4.191  17.227  0.00  0.00    +0.000 A 
ATOM      2  C   UNL     1       4.613   3.087  17.931  0.00  0.00    +0.000 A 
ATOM      3  C   UNL     1       3.630   3.224  18.912  0.00  0.00    +0.000 A 
ATOM      4  C   UNL     1       3.113   4.474  19.234  0.00  0.00    +0.000 A 
ATOM      5  C   UNL     1       2.060   4.674  20.241  0.00  0.00    +0.000 A 
ATOM      6  C   UNL     1       1.419   3.537  20.983  0.00  0.00    +0.000 C 
ATOM      7  C   UNL     1       1.649   5.928  20.484  0.00  0.00    +0.000 A 
ATOM      8  C   UNL     1       2.192   7.110  19.804  0.00  0.00    +0.000 A 
ATOM      9  O   UNL     1       1.762   8.230  20.058  0.00  0.00    +0.000 OA
ATOM     10  O   UNL     1       3.183   6.881  18.870  0.00  0.00    +0.000 OA
ATOM     11  C   UNL     1       3.640   5.580  18.549  0.00  0.00    +0.000 A 
ATOM     12  C   UNL     1       4.628   5.474  17.539  0.00  0.00    +0.000 A 
ENDROOT
BRANCH   1  13
ATOM     13  O   UNL     1       6.069   4.070  16.240  0.00  0.00    +0.000 OA
BRANCH  13  15
ATOM     14  C   UNL     1       6.455   4.211  13.840  0.00  0.00    +0.000 C 
ATOM     15  C   UNL     1       5.579   3.670  14.952  0.00  0.00    +0.000 C 
ENDBRANCH  13  15
ENDBRANCH   1  13
BRANCH  12  16
ATOM     16  C   UNL     1       5.166   6.730  16.882  0.00  0.00    +0.000 C 
BRANCH  16  17
ATOM     17  O   UNL     1       6.113   7.392  17.748  0.00  0.00    +0.000 OA
BRANCH  17  18
ATOM     18  C   UNL     1       7.401   7.414  17.320  0.00  0.00    +0.000 C 
ATOM     19  O   UNL     1       7.902   6.720  16.452  0.00  0.00    +0.000 OA
BRANCH  18  20
ATOM     20  C   UNL     1       8.123   8.445  18.097  0.00  0.00    +0.000 C 
ATOM     21  C   UNL     1       8.265   9.693  17.622  0.00  0.00    +0.000 C 
BRANCH  21  22
ATOM     22  C   UNL     1       8.939  10.791  18.334  0.00  0.00    +0.000 A 
ATOM     23  C   UNL     1       8.954  12.107  17.849  0.00  0.00    +0.000 A 
ATOM     24  C   UNL     1       9.606  13.123  18.554  0.00  0.00    +0.000 A 
ATOM     25  C   UNL     1      10.235  12.836  19.762  0.00  0.00    +0.000 A 
ATOM     26 CL   UNL     1      11.045  14.087  20.623  0.00  0.00    +0.000 Cl
ATOM     27  C   UNL     1      10.209  11.543  20.274  0.00  0.00    +0.000 A 
ATOM     28  C   UNL     1       9.559  10.526  19.565  0.00  0.00    +0.000 A 
ENDBRANCH  21  22
ENDBRANCH  18  20
ENDBRANCH  17  18
ENDBRANCH  16  17
ENDBRANCH  12  16
TORSDOF 7
ENDMDL
MODEL 2
REMARK VINA RESULT:      -8.5      0.899      1.259
REMARK  Name = 
REMARK  9 active torsions:
REMARK  status: ('A' for Active; 'I' for Inactive)
REMARK    1  A    between atoms: C_1  and  C_2
REMARK    2  A    between atoms: C_2  and  O_3
REMARK    3  A    between atoms: O_3  and  C_4
REMARK    4  A    between atoms: C_8  and  C_9
REMARK    5  A    between atoms: C_15  and  C_16
REMARK    6  A    between atoms: C_16  and  O_17
REMARK    7  A    between atoms: O_17  and  C_18
REMARK    8  A    between atoms: C_18  and  C_20
REMARK    9  A    between atoms: C_21  and  C_22
REMARK                            x       y       z     vdW  Elec       q    Type
REMARK                         _______ _______ _______ _____ _____    ______ ____
ROOT
ATOM      1  C   UNL     1       4.872   4.667  16.448  0.00  0.00    +0.000 A 
ATOM      2  C   UNL     1       4.273   3.441  16.772  0.00  0.00    +0.000 A 
ATOM      3  C   UNL     1       3.309   3.336  17.776  0.00  0.00    +0.000 A 
ATOM      4  C   UNL     1       2.911   4.453  18.501  0.00  0.00    +0.000 A 
ATOM      5  C   UNL     1       1.882   4.405  19.552  0.00  0.00    +0.000 A 
ATOM      6  C   UNL     1       1.140   3.148  19.906  0.00  0.00    +0.000 C 
ATOM      7  C   UNL     1       1.590   5.542  20.201  0.00  0.00    +0.000 A 
ATOM      8  C   UNL     1       2.238   6.829  19.924  0.00  0.00    +0.000 A 
ATOM      9  O   UNL     1       1.914   7.838  20.541  0.00  0.00    +0.000 OA
ATOM     10  O   UNL     1       3.202   6.831  18.935  0.00  0.00    +0.000 OA
ATOM     11  C   UNL     1       3.536   5.672  18.195  0.00  0.00    +0.000 A 
ATOM     12  C   UNL     1       4.508   5.815  17.174  0.00  0.00    +0.000 A 
ENDROOT
BRANCH   1  13
ATOM     13  O   UNL     1       5.810   4.792  15.445  0.00  0.00    +0.000 OA
BRANCH  13  15
ATOM     14  C   UNL     1       6.728   4.098  13.299  0.00  0.00    +0.000 C 
ATOM     15  C   UNL     1       5.572   3.996  14.274  0.00  0.00    +0.000 C 
ENDBRANCH  13  15
ENDBRANCH   1  13
BRANCH  12  16
ATOM     16  C   UNL     1       5.158   7.165  16.943  0.00  0.00    +0.000 C 
BRANCH  16  17
ATOM     17  O   UNL     1       6.557   7.007  16.618  0.00  0.00    +0.000 OA
BRANCH  17  18
ATOM     18  C   UNL     1       7.430   7.155  17.648  0.00  0.00    +0.000 C 
ATOM     19  O   UNL     1       7.824   6.291  18.411  0.00  0.00    +0.000 OA
BRANCH  18  20
ATOM     20  C   UNL     1       7.839   8.576  17.698  0.00  0.00    +0.000 C 
ATOM     21  C   UNL     1       8.650   9.025  18.669  0.00  0.00    +0.000 C 
BRANCH  21  22
ATOM     22  C   UNL     1       9.134  10.410  18.785  0.00  0.00    +0.000 A 
ATOM     23  C   UNL     1      10.039  10.812  19.778  0.00  0.00    +0.000 A 
ATOM     24  C   UNL     1      10.476  12.139  19.856  0.00  0.00    +0.000 A 
ATOM     25  C   UNL     1      10.024  13.074  18.929  0.00  0.00    +0.000 A 
ATOM     26 CL   UNL     1      10.555  14.707  19.032  0.00  0.00    +0.000 Cl
ATOM     27  C   UNL     1       9.146  12.690  17.920  0.00  0.00    +0.000 A 
ATOM     28  C   UNL     1       8.708  11.362  17.846  0.00  0.00    +0.000 A 
ENDBRANCH  21  22
ENDBRANCH  18  20
ENDBRANCH  17  18
ENDBRANCH  16  17
ENDBRANCH  12  16
TORSDOF 7
ENDMDL
MODEL 3
REMARK VINA RESULT:      -8.3      1.148      1.453
REMARK  Name = 
REMARK  9 active torsions:
REMARK  status: ('A' for Active; 'I' for Inactive)
REMARK    1  A    between atoms: C_1  and  C_2
REMARK    2  A    between atoms: C_2  and  O_3
REMARK    3  A    between atoms: O_3  and  C_4
REMARK    4  A    between atoms: C_8  and  C_9
REMARK    5  A    between atoms: C_15  and  C_16
REMARK    6  A    between atoms: C_16  and  O_17
REMARK    7  A    between atoms: O_17  and  C_18
REMARK    8  A    between atoms: C_18  and  C_20
REMARK    9  A    between atoms: C_21  and  C_22
REMARK                            x       y       z     vdW  Elec       q    Type
REMARK                         _______ _______ _______ _____ _____    ______ ____
ROOT
ATOM      1  C   UNL     1       5.746   5.125  15.842  0.00  0.00    +0.000 A 
ATOM      2  C   UNL     1       5.166   3.849  15.832  0.00  0.00    +0.000 A 
ATOM      3  C   UNL     1       4.091   3.523  16.660  0.00  0.00    +0.000 A 
ATOM      4  C   UNL     1       3.558   4.459  17.538  0.00  0.00    +0.000 A 
ATOM      5  C   UNL     1       2.411   4.178  18.415  0.00  0.00    +0.000 A 
ATOM      6  C   UNL     1       1.686   2.863  18.409  0.00  0.00    +0.000 C 
ATOM      7  C   UNL     1       1.992   5.152  19.237  0.00  0.00    +0.000 A 
ATOM      8  C   UNL     1       2.612   6.480  19.313  0.00  0.00    +0.000 A 
ATOM      9  O   UNL     1       2.172   7.334  20.073  0.00  0.00    +0.000 OA
ATOM     10  O   UNL     1       3.690   6.702  18.477  0.00  0.00    +0.000 OA
ATOM     11  C   UNL     1       4.163   5.725  17.568  0.00  0.00    +0.000 A 
ATOM     12  C   UNL     1       5.246   6.093  16.732  0.00  0.00    +0.000 A 
ENDROOT
BRANCH   1  13
ATOM     13  O   UNL     1       6.795   5.470  15.015  0.00  0.00    +0.000 OA
BRANCH  13  15
ATOM     14  C   UNL     1       7.904   5.342  12.852  0.00  0.00    +0.000 C 
ATOM     15  C   UNL     1       6.887   4.725  13.792  0.00  0.00    +0.000 C 
ENDBRANCH  13  15
ENDBRANCH   1  13
BRANCH  12  16
ATOM     16  C   UNL     1       5.861   7.472  16.864  0.00  0.00    +0.000 C 
BRANCH  16  17
ATOM     17  O   UNL     1       7.300   7.383  16.941  0.00  0.00    +0.000 OA
BRANCH  17  18
ATOM     18  C   UNL     1       7.813   7.013  18.143  0.00  0.00    +0.000 C 
ATOM     19  O   UNL     1       7.720   5.924  18.681  0.00  0.00    +0.000 OA
BRANCH  18  20
ATOM     20  C   UNL     1       8.525   8.178  18.713  0.00  0.00    +0.000 C 
ATOM     21  C   UNL     1       8.463   9.381  18.121  0.00  0.00    +0.000 C 
BRANCH  21  22
ATOM     22  C   UNL     1       9.111  10.601  18.628  0.00  0.00    +0.000 A 
ATOM     23  C   UNL     1       9.233  11.766  17.857  0.00  0.00    +0.000 A 
ATOM     24  C   UNL     1       9.856  12.906  18.375  0.00  0.00    +0.000 A 
ATOM     25  C   UNL     1      10.349  12.897  19.677  0.00  0.00    +0.000 A 
ATOM     26 CL   UNL     1      11.123  14.297  20.309  0.00  0.00    +0.000 Cl
ATOM     27  C   UNL     1      10.214  11.760  20.467  0.00  0.00    +0.000 A 
ATOM     28  C   UNL     1       9.593  10.619  19.946  0.00  0.00    +0.000 A 
ENDBRANCH  21  22
ENDBRANCH  18  20
ENDBRANCH  17  18
ENDBRANCH  16  17
ENDBRANCH  12  16
TORSDOF 7
ENDMDL
MODEL 4
REMARK VINA RESULT:      -8.1      1.523      2.404
REMARK  Name = 
REMARK  9 active torsions:
REMARK  status: ('A' for Active; 'I' for Inactive)
REMARK    1  A    between atoms: C_1  and  C_2
REMARK    2  A    between atoms: C_2  and  O_3
REMARK    3  A    between atoms: O_3  and  C_4
REMARK    4  A    between atoms: C_8  and  C_9
REMARK    5  A    between atoms: C_15  and  C_16
REMARK    6  A    between atoms: C_16  and  O_17
REMARK    7  A    between atoms: O_17  and  C_18
REMARK    8  A    between atoms: C_18  and  C_20
REMARK    9  A    between atoms: C_21  and  C_22
REMARK                            x       y       z     vdW  Elec       q    Type
REMARK                         _______ _______ _______ _____ _____    ______ ____
ROOT
ATOM      1  C   UNL     1       3.964   4.843  18.793  0.00  0.00    +0.000 A 
ATOM      2  C   UNL     1       3.224   4.742  19.980  0.00  0.00    +0.000 A 
ATOM      3  C   UNL     1       2.401   5.778  20.424  0.00  0.00    +0.000 A 
ATOM      4  C   UNL     1       2.292   6.962  19.702  0.00  0.00    +0.000 A 
ATOM      5  C   UNL     1       1.422   8.075  20.110  0.00  0.00    +0.000 A 
ATOM      6  C   UNL     1       0.541   8.015  21.325  0.00  0.00    +0.000 C 
ATOM      7  C   UNL     1       1.410   9.178  19.347  0.00  0.00    +0.000 A 
ATOM      8  C   UNL     1       2.215   9.338  18.130  0.00  0.00    +0.000 A 
ATOM      9  O   UNL     1       2.146  10.365  17.465  0.00  0.00    +0.000 OA
ATOM     10  O   UNL     1       3.022   8.272  17.784  0.00  0.00    +0.000 OA
ATOM     11  C   UNL     1       3.060   7.071  18.533  0.00  0.00    +0.000 A 
ATOM     12  C   UNL     1       3.894   6.034  18.047  0.00  0.00    +0.000 A 
ENDROOT
BRANCH   1  13
ATOM     13  O   UNL     1       4.765   3.821  18.329  0.00  0.00    +0.000 OA
BRANCH  13  15
ATOM     14  C   UNL     1       3.582   1.696  18.417  0.00  0.00    +0.000 C 
ATOM     15  C   UNL     1       4.098   2.822  17.544  0.00  0.00    +0.000 C 
ENDBRANCH  13  15
ENDBRANCH   1  13
BRANCH  12  16
ATOM     16  C   UNL     1       4.718   6.259  16.794  0.00  0.00    +0.000 C 
BRANCH  16  17
ATOM     17  O   UNL     1       5.767   7.219  17.041  0.00  0.00    +0.000 OA
BRANCH  17  18
ATOM     18  C   UNL     1       7.002   6.707  17.280  0.00  0.00    +0.000 C 
ATOM     19  O   UNL     1       7.422   5.610  16.956  0.00  0.00    +0.000 OA
BRANCH  18  20
ATOM     20  C   UNL     1       7.782   7.723  18.021  0.00  0.00    +0.000 C 
ATOM     21  C   UNL     1       7.894   8.978  17.558  0.00  0.00    +0.000 C 
BRANCH  21  22
ATOM     22  C   UNL     1       8.621  10.063  18.238  0.00  0.00    +0.000 A 
ATOM     23  C   UNL     1       8.687  11.365  17.722  0.00  0.00    +0.000 A 
ATOM     24  C   UNL     1       9.389  12.368  18.398  0.00  0.00    +0.000 A 
ATOM     25  C   UNL     1      10.018  12.082  19.607  0.00  0.00    +0.000 A 
ATOM     26 CL   UNL     1      10.888  13.316  20.431  0.00  0.00    +0.000 Cl
ATOM     27  C   UNL     1       9.942  10.803  20.149  0.00  0.00    +0.000 A 
ATOM     28  C   UNL     1       9.241   9.800  19.469  0.00  0.00    +0.000 A 
ENDBRANCH  21  22
ENDBRANCH  18  20
ENDBRANCH  17  18
ENDBRANCH  16  17
ENDBRANCH  12  16
TORSDOF 7
ENDMDL
MODEL 5
REMARK VINA RESULT:      -7.9      1.211      1.272
REMARK  Name = 
REMARK  9 active torsions:
REMARK  status: ('A' for Active; 'I' for Inactive)
REMARK    1  A    between atoms: C_1  and  C_2
REMARK    2  A    between atoms: C_2  and  O_3
REMARK    3  A    between atoms: O_3  and  C_4
REMARK    4  A    between atoms: C_8  and  C_9
REMARK    5  A    between atoms: C_15  and  C_16
REMARK    6  A    between atoms: C_16  and  O_17
REMARK    7  A    between atoms: O_17  and  C_18
REMARK    8  A    between atoms: C_18  and  C_20
REMARK    9  A    between atoms: C_21  and  C_22
REMARK                            x       y       z     vdW  Elec       q    Type
REMARK                         _______ _______ _______ _____ _____    ______ ____
ROOT
ATOM      1  C   UNL     1       4.965   4.794  16.117  0.00  0.00    +0.000 A 
ATOM      2  C   UNL     1       4.425   3.534  16.411  0.00  0.00    +0.000 A 
ATOM      3  C   UNL     1       3.491   3.355  17.432  0.00  0.00    +0.000 A 
ATOM      4  C   UNL     1       3.066   4.428  18.207  0.00  0.00    +0.000 A 
ATOM      5  C   UNL     1       2.067   4.301  19.279  0.00  0.00    +0.000 A 
ATOM      6  C   UNL     1       1.385   3.003  19.605  0.00  0.00    +0.000 C 
ATOM      7  C   UNL     1       1.746   5.402  19.975  0.00  0.00    +0.000 A 
ATOM      8  C   UNL     1       2.334   6.724  19.730  0.00  0.00    +0.000 A 
ATOM      9  O   UNL     1       1.986   7.696  20.390  0.00  0.00    +0.000 OA
ATOM     10  O   UNL     1       3.272   6.800  18.719  0.00  0.00    +0.000 OA
ATOM     11  C   UNL     1       3.634   5.681  17.930  0.00  0.00    +0.000 A 
ATOM     12  C   UNL     1       4.574   5.900  16.893  0.00  0.00    +0.000 A 
ENDROOT
BRANCH   1  13
ATOM     13  O   UNL     1       5.873   4.992  15.097  0.00  0.00    +0.000 OA
BRANCH  13  15
ATOM     14  C   UNL     1       5.950   3.749  13.005  0.00  0.00    +0.000 C 
ATOM     15  C   UNL     1       6.359   3.800  14.464  0.00  0.00    +0.000 C 
ENDBRANCH  13  15
ENDBRANCH   1  13
BRANCH  12  16
ATOM     16  C   UNL     1       5.163   7.283  16.694  0.00  0.00    +0.000 C 
BRANCH  16  17
ATOM     17  O   UNL     1       5.986   7.652  17.822  0.00  0.00    +0.000 OA
BRANCH  17  18
ATOM     18  C   UNL     1       7.322   7.450  17.679  0.00  0.00    +0.000 C 
ATOM     19  O   UNL     1       7.923   6.395  17.772  0.00  0.00    +0.000 OA
BRANCH  18  20
ATOM     20  C   UNL     1       7.951   8.757  17.384  0.00  0.00    +0.000 C 
ATOM     21  C   UNL     1       8.550   9.468  18.352  0.00  0.00    +0.000 C 
BRANCH  21  22
ATOM     22  C   UNL     1       9.227  10.759  18.150  0.00  0.00    +0.000 A 
ATOM     23  C   UNL     1       8.525  11.945  17.890  0.00  0.00    +0.000 A 
ATOM     24  C   UNL     1       9.205  13.153  17.702  0.00  0.00    +0.000 A 
ATOM     25  C   UNL     1      10.594  13.189  17.791  0.00  0.00    +0.000 A 
ATOM     26 CL   UNL     1      11.428  14.675  17.550  0.00  0.00    +0.000 Cl
ATOM     27  C   UNL     1      11.307  12.029  18.074  0.00  0.00    +0.000 A 
ATOM     28  C   UNL     1      10.625  10.820  18.259  0.00  0.00    +0.000 A 
ENDBRANCH  21  22
ENDBRANCH  18  20
ENDBRANCH  17  18
ENDBRANCH  16  17
ENDBRANCH  12  16
TORSDOF 7
ENDMDL
MODEL 6
REMARK VINA RESULT:      -7.8      1.560      3.555
REMARK  Name = 
REMARK  9 active torsions:
REMARK  status: ('A' for Active; 'I' for Inactive)
REMARK    1  A    between atoms: C_1  and  C_2
REMARK    2  A    between atoms: C_2  and  O_3
REMARK    3  A    between atoms: O_3  and  C_4
REMARK    4  A    between atoms: C_8  and  C_9
REMARK    5  A    between atoms: C_15  and  C_16
REMARK    6  A    between atoms: C_16  and  O_17
REMARK    7  A    between atoms: O_17  and  C_18
REMARK    8  A    between atoms: C_18  and  C_20
REMARK    9  A    between atoms: C_21  and  C_22
REMARK                            x       y       z     vdW  Elec       q    Type
REMARK                         _______ _______ _______ _____ _____    ______ ____
ROOT
ATOM      1  C   UNL     1       2.918   6.936  18.703  0.00  0.00    +0.000 A 
ATOM      2  C   UNL     1       1.849   6.780  19.597  0.00  0.00    +0.000 A 
ATOM      3  C   UNL     1       1.675   5.612  20.340  0.00  0.00    +0.000 A 
ATOM      4  C   UNL     1       2.561   4.548  20.213  0.00  0.00    +0.000 A 
ATOM      5  C   UNL     1       2.441   3.304  20.988  0.00  0.00    +0.000 A 
ATOM      6  C   UNL     1       1.370   3.090  22.020  0.00  0.00    +0.000 C 
ATOM      7  C   UNL     1       3.342   2.335  20.770  0.00  0.00    +0.000 A 
ATOM      8  C   UNL     1       4.439   2.444  19.801  0.00  0.00    +0.000 A 
ATOM      9  O   UNL     1       5.242   1.529  19.660  0.00  0.00    +0.000 OA
ATOM     10  O   UNL     1       4.515   3.625  19.090  0.00  0.00    +0.000 OA
ATOM     11  C   UNL     1       3.611   4.696  19.293  0.00  0.00    +0.000 A 
ATOM     12  C   UNL     1       3.823   5.873  18.533  0.00  0.00    +0.000 A 
ENDROOT
BRANCH   1  13
ATOM     13  O   UNL     1       3.116   8.092  17.977  0.00  0.00    +0.000 OA
BRANCH  13  15
ATOM     14  C   UNL     1       1.118   9.447  17.664  0.00  0.00    +0.000 C 
ATOM     15  C   UNL     1       2.401   9.245  18.445  0.00  0.00    +0.000 C 
ENDBRANCH  13  15
ENDBRANCH   1  13
BRANCH  12  16
ATOM     16  C   UNL     1       4.962   5.925  17.534  0.00  0.00    +0.000 C 
BRANCH  16  17
ATOM     17  O   UNL     1       6.177   6.375  18.171  0.00  0.00    +0.000 OA
BRANCH  17  18
ATOM     18  C   UNL     1       7.214   6.666  17.343  0.00  0.00    +0.000 C 
ATOM     19  O   UNL     1       7.453   6.169  16.257  0.00  0.00    +0.000 OA
BRANCH  18  20
ATOM     20  C   UNL     1       8.033   7.716  17.989  0.00  0.00    +0.000 C 
ATOM     21  C   UNL     1       7.831   9.014  17.715  0.00  0.00    +0.000 C 
BRANCH  21  22
ATOM     22  C   UNL     1       8.573  10.128  18.328  0.00  0.00    +0.000 A 
ATOM     23  C   UNL     1       9.304   9.983  19.516  0.00  0.00    +0.000 A 
ATOM     24  C   UNL     1       9.995  11.065  20.069  0.00  0.00    +0.000 A 
ATOM     25  C   UNL     1       9.976  12.301  19.428  0.00  0.00    +0.000 A 
ATOM     26 CL   UNL     1      10.820  13.634  20.115  0.00  0.00    +0.000 Cl
ATOM     27  C   UNL     1       9.279  12.459  18.235  0.00  0.00    +0.000 A 
ATOM     28  C   UNL     1       8.585  11.375  17.685  0.00  0.00    +0.000 A 
ENDBRANCH  21  22
ENDBRANCH  18  20
ENDBRANCH  17  18
ENDBRANCH  16  17
ENDBRANCH  12  16
TORSDOF 7
ENDMDL
MODEL 7
REMARK VINA RESULT:      -7.8      0.762      1.272
REMARK  Name = 
REMARK  9 active torsions:
REMARK  status: ('A' for Active; 'I' for Inactive)
REMARK    1  A    between atoms: C_1  and  C_2
REMARK    2  A    between atoms: C_2  and  O_3
REMARK    3  A    between atoms: O_3  and  C_4
REMARK    4  A    between atoms: C_8  and  C_9
REMARK    5  A    between atoms: C_15  and  C_16
REMARK    6  A    between atoms: C_16  and  O_17
REMARK    7  A    between atoms: O_17  and  C_18
REMARK    8  A    between atoms: C_18  and  C_20
REMARK    9  A    between atoms: C_21  and  C_22
REMARK                            x       y       z     vdW  Elec       q    Type
REMARK                         _______ _______ _______ _____ _____    ______ ____
ROOT
ATOM      1  C   UNL     1       4.765   4.700  16.692  0.00  0.00    +0.000 A 
ATOM      2  C   UNL     1       4.171   3.489  17.077  0.00  0.00    +0.000 A 
ATOM      3  C   UNL     1       3.210   3.430  18.088  0.00  0.00    +0.000 A 
ATOM      4  C   UNL     1       2.810   4.580  18.760  0.00  0.00    +0.000 A 
ATOM      5  C   UNL     1       1.786   4.579  19.815  0.00  0.00    +0.000 A 
ATOM      6  C   UNL     1       1.048   3.339  20.232  0.00  0.00    +0.000 C 
ATOM      7  C   UNL     1       1.492   5.745  20.410  0.00  0.00    +0.000 A 
ATOM      8  C   UNL     1       2.135   7.020  20.070  0.00  0.00    +0.000 A 
ATOM      9  O   UNL     1       1.811   8.056  20.638  0.00  0.00    +0.000 OA
ATOM     10  O   UNL     1       3.096   6.977  19.078  0.00  0.00    +0.000 OA
ATOM     11  C   UNL     1       3.431   5.784  18.394  0.00  0.00    +0.000 A 
ATOM     12  C   UNL     1       4.400   5.881  17.364  0.00  0.00    +0.000 A 
ENDROOT
BRANCH   1  13
ATOM     13  O   UNL     1       5.700   4.779  15.681  0.00  0.00    +0.000 OA
BRANCH  13  15
ATOM     14  C   UNL     1       7.565   4.270  17.160  0.00  0.00    +0.000 C 
ATOM     15  C   UNL     1       6.864   3.959  15.853  0.00  0.00    +0.000 C 
ENDBRANCH  13  15
ENDBRANCH   1  13
BRANCH  12  16
ATOM     16  C   UNL     1       5.045   7.220  17.066  0.00  0.00    +0.000 C 
BRANCH  16  17
ATOM     17  O   UNL     1       6.146   7.466  17.968  0.00  0.00    +0.000 OA
BRANCH  17  18
ATOM     18  C   UNL     1       7.349   7.715  17.388  0.00  0.00    +0.000 C 
ATOM     19  O   UNL     1       7.808   7.194  16.387  0.00  0.00    +0.000 OA
BRANCH  18  20
ATOM     20  C   UNL     1       8.036   8.752  18.191  0.00  0.00    +0.000 C 
ATOM     21  C   UNL     1       8.428   9.908  17.633  0.00  0.00    +0.000 C 
BRANCH  21  22
ATOM     22  C   UNL     1       9.089  11.007  18.354  0.00  0.00    +0.000 A 
ATOM     23  C   UNL     1       9.929  10.789  19.456  0.00  0.00    +0.000 A 
ATOM     24  C   UNL     1      10.538  11.860  20.116  0.00  0.00    +0.000 A 
ATOM     25  C   UNL     1      10.327  13.162  19.670  0.00  0.00    +0.000 A 
ATOM     26 CL   UNL     1      11.070  14.479  20.489  0.00  0.00    +0.000 Cl
ATOM     27  C   UNL     1       9.518  13.398  18.563  0.00  0.00    +0.000 A 
ATOM     28  C   UNL     1       8.906  12.324  17.905  0.00  0.00    +0.000 A 
ENDBRANCH  21  22
ENDBRANCH  18  20
ENDBRANCH  17  18
ENDBRANCH  16  17
ENDBRANCH  12  16
TORSDOF 7
ENDMDL
MODEL 8
REMARK VINA RESULT:      -7.7      1.661      2.990
REMARK  Name = 
REMARK  9 active torsions:
REMARK  status: ('A' for Active; 'I' for Inactive)
REMARK    1  A    between atoms: C_1  and  C_2
REMARK    2  A    between atoms: C_2  and  O_3
REMARK    3  A    between atoms: O_3  and  C_4
REMARK    4  A    between atoms: C_8  and  C_9
REMARK    5  A    between atoms: C_15  and  C_16
REMARK    6  A    between atoms: C_16  and  O_17
REMARK    7  A    between atoms: O_17  and  C_18
REMARK    8  A    between atoms: C_18  and  C_20
REMARK    9  A    between atoms: C_21  and  C_22
REMARK                            x       y       z     vdW  Elec       q    Type
REMARK                         _______ _______ _______ _____ _____    ______ ____
ROOT
ATOM      1  C   UNL     1       3.444   5.314  19.351  0.00  0.00    +0.000 A 
ATOM      2  C   UNL     1       2.524   5.362  20.408  0.00  0.00    +0.000 A 
ATOM      3  C   UNL     1       1.726   6.482  20.638  0.00  0.00    +0.000 A 
ATOM      4  C   UNL     1       1.821   7.605  19.824  0.00  0.00    +0.000 A 
ATOM      5  C   UNL     1       0.988   8.804  20.005  0.00  0.00    +0.000 A 
ATOM      6  C   UNL     1      -0.072   8.904  21.065  0.00  0.00    +0.000 C 
ATOM      7  C   UNL     1       1.178   9.837  19.171  0.00  0.00    +0.000 A 
ATOM      8  C   UNL     1       2.171   9.841  18.090  0.00  0.00    +0.000 A 
ATOM      9  O   UNL     1       2.286  10.810  17.350  0.00  0.00    +0.000 OA
ATOM     10  O   UNL     1       2.937   8.699  17.957  0.00  0.00    +0.000 OA
ATOM     11  C   UNL     1       2.766   7.566  18.787  0.00  0.00    +0.000 A 
ATOM     12  C   UNL     1       3.582   6.439  18.518  0.00  0.00    +0.000 A 
ENDROOT
BRANCH   1  13
ATOM     13  O   UNL     1       4.226   4.206  19.096  0.00  0.00    +0.000 OA
BRANCH  13  15
ATOM     14  C   UNL     1       2.909   2.994  17.446  0.00  0.00    +0.000 C 
ATOM     15  C   UNL     1       3.508   2.991  18.838  0.00  0.00    +0.000 C 
ENDBRANCH  13  15
ENDBRANCH   1  13
BRANCH  12  16
ATOM     16  C   UNL     1       4.604   6.504  17.400  0.00  0.00    +0.000 C 
BRANCH  16  17
ATOM     17  O   UNL     1       5.932   6.251  17.908  0.00  0.00    +0.000 OA
BRANCH  17  18
ATOM     18  C   UNL     1       6.961   6.589  17.088  0.00  0.00    +0.000 C 
ATOM     19  O   UNL     1       7.188   6.155  15.973  0.00  0.00    +0.000 OA
BRANCH  18  20
ATOM     20  C   UNL     1       7.788   7.598  17.786  0.00  0.00    +0.000 C 
ATOM     21  C   UNL     1       7.654   8.906  17.515  0.00  0.00    +0.000 C 
BRANCH  21  22
ATOM     22  C   UNL     1       8.409   9.982  18.177  0.00  0.00    +0.000 A 
ATOM     23  C   UNL     1       9.153   9.772  19.347  0.00  0.00    +0.000 A 
ATOM     24  C   UNL     1       9.857  10.821  19.947  0.00  0.00    +0.000 A 
ATOM     25  C   UNL     1       9.836  12.089  19.372  0.00  0.00    +0.000 A 
ATOM     26 CL   UNL     1      10.695  13.380  20.117  0.00  0.00    +0.000 Cl
ATOM     27  C   UNL     1       9.125  12.312  18.197  0.00  0.00    +0.000 A 
ATOM     28  C   UNL     1       8.420  11.262  17.600  0.00  0.00    +0.000 A 
ENDBRANCH  21  22
ENDBRANCH  18  20
ENDBRANCH  17  18
ENDBRANCH  16  17
ENDBRANCH  12  16
TORSDOF 7
ENDMDL
MODEL 9
REMARK VINA RESULT:      -7.7      1.980      4.748
REMARK  Name = 
REMARK  9 active torsions:
REMARK  status: ('A' for Active; 'I' for Inactive)
REMARK    1  A    between atoms: C_1  and  C_2
REMARK    2  A    between atoms: C_2  and  O_3
REMARK    3  A    between atoms: O_3  and  C_4
REMARK    4  A    between atoms: C_8  and  C_9
REMARK    5  A    between atoms: C_15  and  C_16
REMARK    6  A    between atoms: C_16  and  O_17
REMARK    7  A    between atoms: O_17  and  C_18
REMARK    8  A    between atoms: C_18  and  C_20
REMARK    9  A    between atoms: C_21  and  C_22
REMARK                            x       y       z     vdW  Elec       q    Type
REMARK                         _______ _______ _______ _____ _____    ______ ____
ROOT
ATOM      1  C   UNL     1       5.419   4.164  17.591  0.00  0.00    +0.000 A 
ATOM      2  C   UNL     1       4.445   3.588  16.765  0.00  0.00    +0.000 A 
ATOM      3  C   UNL     1       4.579   3.563  15.376  0.00  0.00    +0.000 A 
ATOM      4  C   UNL     1       5.691   4.122  14.757  0.00  0.00    +0.000 A 
ATOM      5  C   UNL     1       5.896   4.102  13.301  0.00  0.00    +0.000 A 
ATOM      6  C   UNL     1       4.938   3.437  12.354  0.00  0.00    +0.000 C 
ATOM      7  C   UNL     1       6.998   4.689  12.811  0.00  0.00    +0.000 A 
ATOM      8  C   UNL     1       8.009   5.351  13.643  0.00  0.00    +0.000 A 
ATOM      9  O   UNL     1       9.005   5.854  13.137  0.00  0.00    +0.000 OA
ATOM     10  O   UNL     1       7.778   5.352  15.005  0.00  0.00    +0.000 OA
ATOM     11  C   UNL     1       6.648   4.727  15.586  0.00  0.00    +0.000 A 
ATOM     12  C   UNL     1       6.549   4.758  16.999  0.00  0.00    +0.000 A 
ENDROOT
BRANCH   1  13
ATOM     13  O   UNL     1       5.312   4.179  18.967  0.00  0.00    +0.000 OA
BRANCH  13  15
ATOM     14  C   UNL     1       4.388   2.250  20.129  0.00  0.00    +0.000 C 
ATOM     15  C   UNL     1       4.112   3.600  19.498  0.00  0.00    +0.000 C 
ENDBRANCH  13  15
ENDBRANCH   1  13
BRANCH  12  16
ATOM     16  C   UNL     1       7.614   5.470  17.810  0.00  0.00    +0.000 C 
BRANCH  16  17
ATOM     17  O   UNL     1       7.894   6.772  17.250  0.00  0.00    +0.000 OA
BRANCH  17  18
ATOM     18  C   UNL     1       6.958   7.731  17.469  0.00  0.00    +0.000 C 
ATOM     19  O   UNL     1       5.747   7.593  17.473  0.00  0.00    +0.000 OA
BRANCH  18  20
ATOM     20  C   UNL     1       7.662   9.009  17.709  0.00  0.00    +0.000 C 
ATOM     21  C   UNL     1       8.651   9.093  18.614  0.00  0.00    +0.000 C 
BRANCH  21  22
ATOM     22  C   UNL     1       9.428  10.310  18.900  0.00  0.00    +0.000 A 
ATOM     23  C   UNL     1      10.059  11.055  17.894  0.00  0.00    +0.000 A 
ATOM     24  C   UNL     1      10.790  12.206  18.206  0.00  0.00    +0.000 A 
ATOM     25  C   UNL     1      10.881  12.633  19.528  0.00  0.00    +0.000 A 
ATOM     26 CL   UNL     1      11.788  14.044  19.911  0.00  0.00    +0.000 Cl
ATOM     27  C   UNL     1      10.240  11.923  20.538  0.00  0.00    +0.000 A 
ATOM     28  C   UNL     1       9.512  10.769  20.224  0.00  0.00    +0.000 A 
ENDBRANCH  21  22
ENDBRANCH  18  20
ENDBRANCH  17  18
ENDBRANCH  16  17
ENDBRANCH  12  16
TORSDOF 7
ENDMDL
