MODEL 1
REMARK VINA RESULT:      -7.4      0.000      0.000
REMARK  Name = 
REMARK  4 active torsions:
REMARK  status: ('A' for Active; 'I' for Inactive)
REMARK    1  A    between atoms: C_1  and  C_2
REMARK    2  A    between atoms: C_2  and  N_3
REMARK    3  A    between atoms: C_7  and  C_8
REMARK    4  A    between atoms: C_11  and  C_12
REMARK                            x       y       z     vdW  Elec       q    Type
REMARK                         _______ _______ _______ _____ _____    ______ ____
ROOT
ATOM      1  C   UNL     1       1.263   9.198  19.578  0.00  0.00    +0.000 A 
ATOM      2  C   UNL     1       1.673   9.436  18.264  0.00  0.00    +0.000 A 
ATOM      3  C   UNL     1       2.444   8.482  17.590  0.00  0.00    +0.000 A 
ATOM      4  C   UNL     1       2.823   7.279  18.208  0.00  0.00    +0.000 A 
ATOM      5  C   UNL     1       2.378   7.054  19.520  0.00  0.00    +0.000 A 
ATOM      6  C   UNL     1       1.595   7.989  20.191  0.00  0.00    +0.000 A 
ENDROOT
BRANCH   1  11
ATOM      7  N   UNL     1      -2.475  12.237  19.889  0.00  0.00    +0.000 N 
ATOM      8  C   UNL     1      -1.346  11.856  20.592  0.00  0.00    +0.000 C 
ATOM      9  O   UNL     1      -0.956  12.336  21.661  0.00  0.00    +0.000 OA
ATOM     10  C   UNL     1      -0.646  10.744  19.896  0.00  0.00    +0.000 C 
ATOM     11  C   UNL     1       0.504  10.208  20.326  0.00  0.00    +0.000 C 
ATOM     12  S   UNL     1      -1.515  10.302  18.483  0.00  0.00    +0.000 S 
ATOM     13  C   UNL     1      -2.797  11.461  18.793  0.00  0.00    +0.000 C 
ATOM     14  S   UNL     1      -4.171  11.497  17.848  0.00  0.00    +0.000 S 
BRANCH   7  16
ATOM     15  C   UNL     1      -4.372  12.909  21.379  0.00  0.00    +0.000 C 
ATOM     16  C   UNL     1      -3.293  13.347  20.395  0.00  0.00    +0.000 C 
ENDBRANCH   7  16
ENDBRANCH   1  11
BRANCH   4  17
ATOM     17  C   UNL     1       3.655   6.278  17.518  0.00  0.00    +0.000 A 
ATOM     18  C   UNL     1       4.748   6.656  16.723  0.00  0.00    +0.000 A 
ATOM     19  C   UNL     1       5.526   5.701  16.068  0.00  0.00    +0.000 A 
ATOM     20  C   UNL     1       5.227   4.347  16.203  0.00  0.00    +0.000 A 
ATOM     21  C   UNL     1       4.157   3.947  16.995  0.00  0.00    +0.000 A 
ATOM     22  C   UNL     1       3.379   4.905  17.646  0.00  0.00    +0.000 A 
ENDBRANCH   4  17
TORSDOF 3
ENDMDL
MODEL 2
REMARK VINA RESULT:      -7.3      0.225      1.469
REMARK  Name = 
REMARK  4 active torsions:
REMARK  status: ('A' for Active; 'I' for Inactive)
REMARK    1  A    between atoms: C_1  and  C_2
REMARK    2  A    between atoms: C_2  and  N_3
REMARK    3  A    between atoms: C_7  and  C_8
REMARK    4  A    between atoms: C_11  and  C_12
REMARK                            x       y       z     vdW  Elec       q    Type
REMARK                         _______ _______ _______ _____ _____    ______ ____
ROOT
ATOM      1  C   UNL     1       1.203   9.250  19.740  0.00  0.00    +0.000 A 
ATOM      2  C   UNL     1       1.564   8.057  20.371  0.00  0.00    +0.000 A 
ATOM      3  C   UNL     1       2.322   7.104  19.681  0.00  0.00    +0.000 A 
ATOM      4  C   UNL     1       2.734   7.319  18.356  0.00  0.00    +0.000 A 
ATOM      5  C   UNL     1       2.379   8.535  17.753  0.00  0.00    +0.000 A 
ATOM      6  C   UNL     1       1.641   9.496  18.438  0.00  0.00    +0.000 A 
ENDROOT
BRANCH   1  11
ATOM      7  N   UNL     1      -2.628  12.189  19.734  0.00  0.00    +0.000 N 
ATOM      8  C   UNL     1      -1.551  11.837  20.529  0.00  0.00    +0.000 C 
ATOM      9  O   UNL     1      -1.264  12.327  21.626  0.00  0.00    +0.000 OA
ATOM     10  C   UNL     1      -0.767  10.745  19.896  0.00  0.00    +0.000 C 
ATOM     11  C   UNL     1       0.358  10.239  20.421  0.00  0.00    +0.000 C 
ATOM     12  S   UNL     1      -1.503  10.280  18.416  0.00  0.00    +0.000 S 
ATOM     13  C   UNL     1      -2.836  11.405  18.617  0.00  0.00    +0.000 C 
ATOM     14  S   UNL     1      -4.128  11.405  17.560  0.00  0.00    +0.000 S 
BRANCH   7  16
ATOM     15  C   UNL     1      -4.663  12.809  21.055  0.00  0.00    +0.000 C 
ATOM     16  C   UNL     1      -3.513  13.276  20.168  0.00  0.00    +0.000 C 
ENDBRANCH   7  16
ENDBRANCH   1  11
BRANCH   4  17
ATOM     17  C   UNL     1       3.512   6.313  17.611  0.00  0.00    +0.000 A 
ATOM     18  C   UNL     1       3.210   4.945  17.693  0.00  0.00    +0.000 A 
ATOM     19  C   UNL     1       3.958   4.000  16.989  0.00  0.00    +0.000 A 
ATOM     20  C   UNL     1       5.018   4.410  16.184  0.00  0.00    +0.000 A 
ATOM     21  C   UNL     1       5.328   5.761  16.077  0.00  0.00    +0.000 A 
ATOM     22  C   UNL     1       4.582   6.702  16.784  0.00  0.00    +0.000 A 
ENDBRANCH   4  17
TORSDOF 3
ENDMDL
MODEL 3
REMARK VINA RESULT:      -7.3      0.238      1.053
REMARK  Name = 
REMARK  4 active torsions:
REMARK  status: ('A' for Active; 'I' for Inactive)
REMARK    1  A    between atoms: C_1  and  C_2
REMARK    2  A    between atoms: C_2  and  N_3
REMARK    3  A    between atoms: C_7  and  C_8
REMARK    4  A    between atoms: C_11  and  C_12
REMARK                            x       y       z     vdW  Elec       q    Type
REMARK                         _______ _______ _______ _____ _____    ______ ____
ROOT
ATOM      1  C   UNL     1       1.196   9.256  19.727  0.00  0.00    +0.000 A 
ATOM      2  C   UNL     1       1.550   8.060  20.356  0.00  0.00    +0.000 A 
ATOM      3  C   UNL     1       2.314   7.110  19.669  0.00  0.00    +0.000 A 
ATOM      4  C   UNL     1       2.738   7.330  18.348  0.00  0.00    +0.000 A 
ATOM      5  C   UNL     1       2.390   8.549  17.748  0.00  0.00    +0.000 A 
ATOM      6  C   UNL     1       1.646   9.508  18.430  0.00  0.00    +0.000 A 
ENDROOT
BRANCH   1  11
ATOM      7  N   UNL     1      -2.647  12.180  19.709  0.00  0.00    +0.000 N 
ATOM      8  C   UNL     1      -1.570  11.834  20.507  0.00  0.00    +0.000 C 
ATOM      9  O   UNL     1      -1.287  12.327  21.603  0.00  0.00    +0.000 OA
ATOM     10  C   UNL     1      -0.780  10.744  19.877  0.00  0.00    +0.000 C 
ATOM     11  C   UNL     1       0.346  10.243  20.405  0.00  0.00    +0.000 C 
ATOM     12  S   UNL     1      -1.512  10.273  18.397  0.00  0.00    +0.000 S 
ATOM     13  C   UNL     1      -2.850  11.393  18.593  0.00  0.00    +0.000 C 
ATOM     14  S   UNL     1      -4.139  11.386  17.534  0.00  0.00    +0.000 S 
BRANCH   7  16
ATOM     15  C   UNL     1      -4.687  12.794  21.024  0.00  0.00    +0.000 C 
ATOM     16  C   UNL     1      -3.537  13.265  20.140  0.00  0.00    +0.000 C 
ENDBRANCH   7  16
ENDBRANCH   1  11
BRANCH   4  17
ATOM     17  C   UNL     1       3.522   6.327  17.606  0.00  0.00    +0.000 A 
ATOM     18  C   UNL     1       4.599   6.698  16.787  0.00  0.00    +0.000 A 
ATOM     19  C   UNL     1       5.330   5.741  16.082  0.00  0.00    +0.000 A 
ATOM     20  C   UNL     1       4.999   4.392  16.191  0.00  0.00    +0.000 A 
ATOM     21  C   UNL     1       3.944   3.999  17.006  0.00  0.00    +0.000 A 
ATOM     22  C   UNL     1       3.213   4.958  17.706  0.00  0.00    +0.000 A 
ENDBRANCH   4  17
TORSDOF 3
ENDMDL
MODEL 4
REMARK VINA RESULT:      -7.3      1.704      2.023
REMARK  Name = 
REMARK  4 active torsions:
REMARK  status: ('A' for Active; 'I' for Inactive)
REMARK    1  A    between atoms: C_1  and  C_2
REMARK    2  A    between atoms: C_2  and  N_3
REMARK    3  A    between atoms: C_7  and  C_8
REMARK    4  A    between atoms: C_11  and  C_12
REMARK                            x       y       z     vdW  Elec       q    Type
REMARK                         _______ _______ _______ _____ _____    ______ ____
ROOT
ATOM      1  C   UNL     1       1.713   7.733  20.390  0.00  0.00    +0.000 A 
ATOM      2  C   UNL     1       2.030   8.415  19.213  0.00  0.00    +0.000 A 
ATOM      3  C   UNL     1       2.765   7.772  18.210  0.00  0.00    +0.000 A 
ATOM      4  C   UNL     1       3.197   6.444  18.357  0.00  0.00    +0.000 A 
ATOM      5  C   UNL     1       2.845   5.773  19.538  0.00  0.00    +0.000 A 
ATOM      6  C   UNL     1       2.099   6.399  20.533  0.00  0.00    +0.000 A 
ENDROOT
BRANCH   1  11
ATOM      7  N   UNL     1      -1.133  11.308  21.948  0.00  0.00    +0.000 N 
ATOM      8  C   UNL     1      -0.418  10.225  22.427  0.00  0.00    +0.000 C 
ATOM      9  O   UNL     1      -0.308   9.889  23.610  0.00  0.00    +0.000 OA
ATOM     10  C   UNL     1       0.205   9.471  21.307  0.00  0.00    +0.000 C 
ATOM     11  C   UNL     1       0.996   8.403  21.481  0.00  0.00    +0.000 C 
ATOM     12  S   UNL     1      -0.221  10.194  19.809  0.00  0.00    +0.000 S 
ATOM     13  C   UNL     1      -1.238  11.404  20.574  0.00  0.00    +0.000 C 
ATOM     14  S   UNL     1      -2.175  12.440  19.662  0.00  0.00    +0.000 S 
BRANCH   7  16
ATOM     15  C   UNL     1      -1.052  13.511  23.135  0.00  0.00    +0.000 C 
ATOM     16  C   UNL     1      -1.801  12.203  22.901  0.00  0.00    +0.000 C 
ENDBRANCH   7  16
ENDBRANCH   1  11
BRANCH   4  17
ATOM     17  C   UNL     1       3.992   5.765  17.319  0.00  0.00    +0.000 A 
ATOM     18  C   UNL     1       4.764   6.488  16.397  0.00  0.00    +0.000 A 
ATOM     19  C   UNL     1       5.507   5.835  15.413  0.00  0.00    +0.000 A 
ATOM     20  C   UNL     1       5.496   4.444  15.339  0.00  0.00    +0.000 A 
ATOM     21  C   UNL     1       4.748   3.706  16.250  0.00  0.00    +0.000 A 
ATOM     22  C   UNL     1       4.004   4.361  17.229  0.00  0.00    +0.000 A 
ENDBRANCH   4  17
TORSDOF 3
ENDMDL
MODEL 5
REMARK VINA RESULT:      -7.3      0.348      1.082
REMARK  Name = 
REMARK  4 active torsions:
REMARK  status: ('A' for Active; 'I' for Inactive)
REMARK    1  A    between atoms: C_1  and  C_2
REMARK    2  A    between atoms: C_2  and  N_3
REMARK    3  A    between atoms: C_7  and  C_8
REMARK    4  A    between atoms: C_11  and  C_12
REMARK                            x       y       z     vdW  Elec       q    Type
REMARK                         _______ _______ _______ _____ _____    ______ ____
ROOT
ATOM      1  C   UNL     1       1.456   8.905  19.540  0.00  0.00    +0.000 A 
ATOM      2  C   UNL     1       1.852   9.175  18.227  0.00  0.00    +0.000 A 
ATOM      3  C   UNL     1       2.621   8.240  17.524  0.00  0.00    +0.000 A 
ATOM      4  C   UNL     1       3.010   7.025  18.111  0.00  0.00    +0.000 A 
ATOM      5  C   UNL     1       2.580   6.768  19.422  0.00  0.00    +0.000 A 
ATOM      6  C   UNL     1       1.799   7.684  20.122  0.00  0.00    +0.000 A 
ENDROOT
BRANCH   1  11
ATOM      7  N   UNL     1      -2.185  12.057  19.886  0.00  0.00    +0.000 N 
ATOM      8  C   UNL     1      -1.102  11.590  20.610  0.00  0.00    +0.000 C 
ATOM      9  O   UNL     1      -0.744  11.987  21.724  0.00  0.00    +0.000 OA
ATOM     10  C   UNL     1      -0.411  10.499  19.875  0.00  0.00    +0.000 C 
ATOM     11  C   UNL     1       0.700   9.894  20.318  0.00  0.00    +0.000 C 
ATOM     12  S   UNL     1      -1.231  10.178  18.401  0.00  0.00    +0.000 S 
ATOM     13  C   UNL     1      -2.484  11.363  18.730  0.00  0.00    +0.000 C 
ATOM     14  S   UNL     1      -3.813  11.510  17.732  0.00  0.00    +0.000 S 
BRANCH   7  16
ATOM     15  C   UNL     1      -4.145  12.703  21.305  0.00  0.00    +0.000 C 
ATOM     16  C   UNL     1      -2.985  13.163  20.427  0.00  0.00    +0.000 C 
ENDBRANCH   7  16
ENDBRANCH   1  11
BRANCH   4  17
ATOM     17  C   UNL     1       3.840   6.044  17.390  0.00  0.00    +0.000 A 
ATOM     18  C   UNL     1       3.659   4.663  17.563  0.00  0.00    +0.000 A 
ATOM     19  C   UNL     1       4.456   3.742  16.880  0.00  0.00    +0.000 A 
ATOM     20  C   UNL     1       5.445   4.189  16.007  0.00  0.00    +0.000 A 
ATOM     21  C   UNL     1       5.635   5.551  15.811  0.00  0.00    +0.000 A 
ATOM     22  C   UNL     1       4.840   6.469  16.496  0.00  0.00    +0.000 A 
ENDBRANCH   4  17
TORSDOF 3
ENDMDL
MODEL 6
REMARK VINA RESULT:      -7.1      6.802      8.687
REMARK  Name = 
REMARK  4 active torsions:
REMARK  status: ('A' for Active; 'I' for Inactive)
REMARK    1  A    between atoms: C_1  and  C_2
REMARK    2  A    between atoms: C_2  and  N_3
REMARK    3  A    between atoms: C_7  and  C_8
REMARK    4  A    between atoms: C_11  and  C_12
REMARK                            x       y       z     vdW  Elec       q    Type
REMARK                         _______ _______ _______ _____ _____    ______ ____
ROOT
ATOM      1  C   UNL     1       6.789   6.314  17.750  0.00  0.00    +0.000 A 
ATOM      2  C   UNL     1       6.539   7.505  17.065  0.00  0.00    +0.000 A 
ATOM      3  C   UNL     1       7.275   8.655  17.374  0.00  0.00    +0.000 A 
ATOM      4  C   UNL     1       8.269   8.643  18.365  0.00  0.00    +0.000 A 
ATOM      5  C   UNL     1       8.518   7.428  19.022  0.00  0.00    +0.000 A 
ATOM      6  C   UNL     1       7.804   6.274  18.709  0.00  0.00    +0.000 A 
ENDROOT
BRANCH   1  11
ATOM      7  N   UNL     1       3.199   3.327  18.976  0.00  0.00    +0.000 N 
ATOM      8  C   UNL     1       4.207   3.459  18.037  0.00  0.00    +0.000 C 
ATOM      9  O   UNL     1       4.479   2.653  17.141  0.00  0.00    +0.000 OA
ATOM     10  C   UNL     1       4.935   4.741  18.225  0.00  0.00    +0.000 C 
ATOM     11  C   UNL     1       5.991   5.110  17.487  0.00  0.00    +0.000 C 
ATOM     12  S   UNL     1       4.235   5.624  19.521  0.00  0.00    +0.000 S 
ATOM     13  C   UNL     1       2.984   4.422  19.789  0.00  0.00    +0.000 C 
ATOM     14  S   UNL     1       1.747   4.696  20.876  0.00  0.00    +0.000 S 
BRANCH   7  16
ATOM     15  C   UNL     1       0.936   2.345  18.551  0.00  0.00    +0.000 C 
ATOM     16  C   UNL     1       2.380   2.109  18.980  0.00  0.00    +0.000 C 
ENDBRANCH   7  16
ENDBRANCH   1  11
BRANCH   4  17
ATOM     17  C   UNL     1       9.034   9.853  18.716  0.00  0.00    +0.000 A 
ATOM     18  C   UNL     1       9.601  10.673  17.729  0.00  0.00    +0.000 A 
ATOM     19  C   UNL     1      10.329  11.813  18.072  0.00  0.00    +0.000 A 
ATOM     20  C   UNL     1      10.497  12.155  19.412  0.00  0.00    +0.000 A 
ATOM     21  C   UNL     1       9.934  11.365  20.407  0.00  0.00    +0.000 A 
ATOM     22  C   UNL     1       9.210  10.225  20.061  0.00  0.00    +0.000 A 
ENDBRANCH   4  17
TORSDOF 3
ENDMDL
MODEL 7
REMARK VINA RESULT:      -7.1      1.873      2.344
REMARK  Name = 
REMARK  4 active torsions:
REMARK  status: ('A' for Active; 'I' for Inactive)
REMARK    1  A    between atoms: C_1  and  C_2
REMARK    2  A    between atoms: C_2  and  N_3
REMARK    3  A    between atoms: C_7  and  C_8
REMARK    4  A    between atoms: C_11  and  C_12
REMARK                            x       y       z     vdW  Elec       q    Type
REMARK                         _______ _______ _______ _____ _____    ______ ____
ROOT
ATOM      1  C   UNL     1       1.670   7.664  20.387  0.00  0.00    +0.000 A 
ATOM      2  C   UNL     1       1.925   8.334  19.188  0.00  0.00    +0.000 A 
ATOM      3  C   UNL     1       2.687   7.715  18.190  0.00  0.00    +0.000 A 
ATOM      4  C   UNL     1       3.210   6.423  18.366  0.00  0.00    +0.000 A 
ATOM      5  C   UNL     1       2.919   5.762  19.569  0.00  0.00    +0.000 A 
ATOM      6  C   UNL     1       2.146   6.363  20.559  0.00  0.00    +0.000 A 
ENDROOT
BRANCH   1  11
ATOM      7  N   UNL     1      -0.759  11.471  22.095  0.00  0.00    +0.000 N 
ATOM      8  C   UNL     1      -0.298  10.228  22.495  0.00  0.00    +0.000 C 
ATOM      9  O   UNL     1      -0.409   9.739  23.624  0.00  0.00    +0.000 OA
ATOM     10  C   UNL     1       0.346   9.517  21.360  0.00  0.00    +0.000 C 
ATOM     11  C   UNL     1       0.924   8.313  21.471  0.00  0.00    +0.000 C 
ATOM     12  S   UNL     1       0.253  10.479  19.941  0.00  0.00    +0.000 S 
ATOM     13  C   UNL     1      -0.655  11.748  20.746  0.00  0.00    +0.000 C 
ATOM     14  S   UNL     1      -1.279  13.036  19.889  0.00  0.00    +0.000 S 
BRANCH   7  16
ATOM     15  C   UNL     1      -2.898  12.098  23.236  0.00  0.00    +0.000 C 
ATOM     16  C   UNL     1      -1.401  12.348  23.081  0.00  0.00    +0.000 C 
ENDBRANCH   7  16
ENDBRANCH   1  11
BRANCH   4  17
ATOM     17  C   UNL     1       4.034   5.771  17.333  0.00  0.00    +0.000 A 
ATOM     18  C   UNL     1       4.237   4.382  17.327  0.00  0.00    +0.000 A 
ATOM     19  C   UNL     1       5.026   3.775  16.349  0.00  0.00    +0.000 A 
ATOM     20  C   UNL     1       5.620   4.548  15.354  0.00  0.00    +0.000 A 
ATOM     21  C   UNL     1       5.423   5.923  15.333  0.00  0.00    +0.000 A 
ATOM     22  C   UNL     1       4.638   6.528  16.313  0.00  0.00    +0.000 A 
ENDBRANCH   4  17
TORSDOF 3
ENDMDL
MODEL 8
REMARK VINA RESULT:      -6.9      4.261      8.882
REMARK  Name = 
REMARK  4 active torsions:
REMARK  status: ('A' for Active; 'I' for Inactive)
REMARK    1  A    between atoms: C_1  and  C_2
REMARK    2  A    between atoms: C_2  and  N_3
REMARK    3  A    between atoms: C_7  and  C_8
REMARK    4  A    between atoms: C_11  and  C_12
REMARK                            x       y       z     vdW  Elec       q    Type
REMARK                         _______ _______ _______ _____ _____    ______ ____
ROOT
ATOM      1  C   UNL     1       2.488   8.408  18.304  0.00  0.00    +0.000 A 
ATOM      2  C   UNL     1       2.222   7.832  19.549  0.00  0.00    +0.000 A 
ATOM      3  C   UNL     1       1.343   8.464  20.436  0.00  0.00    +0.000 A 
ATOM      4  C   UNL     1       0.715   9.675  20.104  0.00  0.00    +0.000 A 
ATOM      5  C   UNL     1       0.980  10.220  18.839  0.00  0.00    +0.000 A 
ATOM      6  C   UNL     1       1.838   9.589  17.943  0.00  0.00    +0.000 A 
ENDROOT
BRANCH   1  11
ATOM      7  N   UNL     1       4.845   4.514  16.692  0.00  0.00    +0.000 N 
ATOM      8  C   UNL     1       4.774   5.882  16.490  0.00  0.00    +0.000 C 
ATOM      9  O   UNL     1       5.469   6.540  15.709  0.00  0.00    +0.000 OA
ATOM     10  C   UNL     1       3.710   6.483  17.335  0.00  0.00    +0.000 C 
ATOM     11  C   UNL     1       3.451   7.797  17.380  0.00  0.00    +0.000 C 
ATOM     12  S   UNL     1       2.917   5.254  18.235  0.00  0.00    +0.000 S 
ATOM     13  C   UNL     1       3.869   3.972  17.505  0.00  0.00    +0.000 C 
ATOM     14  S   UNL     1       3.525   2.368  17.805  0.00  0.00    +0.000 S 
BRANCH   7  16
ATOM     15  C   UNL     1       5.768   3.872  14.455  0.00  0.00    +0.000 C 
ATOM     16  C   UNL     1       5.859   3.735  15.971  0.00  0.00    +0.000 C 
ENDBRANCH   7  16
ENDBRANCH   1  11
BRANCH   4  17
ATOM     17  C   UNL     1      -0.193  10.362  21.040  0.00  0.00    +0.000 A 
ATOM     18  C   UNL     1      -0.312   9.955  22.378  0.00  0.00    +0.000 A 
ATOM     19  C   UNL     1      -1.181  10.608  23.253  0.00  0.00    +0.000 A 
ATOM     20  C   UNL     1      -1.941  11.686  22.806  0.00  0.00    +0.000 A 
ATOM     21  C   UNL     1      -1.831  12.115  21.489  0.00  0.00    +0.000 A 
ATOM     22  C   UNL     1      -0.965  11.458  20.615  0.00  0.00    +0.000 A 
ENDBRANCH   4  17
TORSDOF 3
ENDMDL
MODEL 9
REMARK VINA RESULT:      -6.9      4.225      8.834
REMARK  Name = 
REMARK  4 active torsions:
REMARK  status: ('A' for Active; 'I' for Inactive)
REMARK    1  A    between atoms: C_1  and  C_2
REMARK    2  A    between atoms: C_2  and  N_3
REMARK    3  A    between atoms: C_7  and  C_8
REMARK    4  A    between atoms: C_11  and  C_12
REMARK                            x       y       z     vdW  Elec       q    Type
REMARK                         _______ _______ _______ _____ _____    ______ ____
ROOT
ATOM      1  C   UNL     1       2.461   8.471  18.338  0.00  0.00    +0.000 A 
ATOM      2  C   UNL     1       2.176   7.904  19.583  0.00  0.00    +0.000 A 
ATOM      3  C   UNL     1       1.279   8.539  20.450  0.00  0.00    +0.000 A 
ATOM      4  C   UNL     1       0.652   9.745  20.098  0.00  0.00    +0.000 A 
ATOM      5  C   UNL     1       0.937  10.281  18.833  0.00  0.00    +0.000 A 
ATOM      6  C   UNL     1       1.813   9.647  17.956  0.00  0.00    +0.000 A 
ENDROOT
BRANCH   1  11
ATOM      7  N   UNL     1       4.808   4.562  16.750  0.00  0.00    +0.000 N 
ATOM      8  C   UNL     1       4.763   5.932  16.562  0.00  0.00    +0.000 C 
ATOM      9  O   UNL     1       5.490   6.589  15.810  0.00  0.00    +0.000 OA
ATOM     10  C   UNL     1       3.683   6.539  17.383  0.00  0.00    +0.000 C 
ATOM     11  C   UNL     1       3.442   7.856  17.435  0.00  0.00    +0.000 C 
ATOM     12  S   UNL     1       2.845   5.312  18.244  0.00  0.00    +0.000 S 
ATOM     13  C   UNL     1       3.801   4.025  17.527  0.00  0.00    +0.000 C 
ATOM     14  S   UNL     1       3.424   2.422  17.797  0.00  0.00    +0.000 S 
BRANCH   7  16
ATOM     15  C   UNL     1       5.730   3.861  14.530  0.00  0.00    +0.000 C 
ATOM     16  C   UNL     1       5.831   3.776  16.049  0.00  0.00    +0.000 C 
ENDBRANCH   7  16
ENDBRANCH   1  11
BRANCH   4  17
ATOM     17  C   UNL     1      -0.274  10.436  21.012  0.00  0.00    +0.000 A 
ATOM     18  C   UNL     1      -1.090  11.489  20.571  0.00  0.00    +0.000 A 
ATOM     19  C   UNL     1      -1.959  12.142  21.446  0.00  0.00    +0.000 A 
ATOM     20  C   UNL     1      -2.031  11.746  22.780  0.00  0.00    +0.000 A 
ATOM     21  C   UNL     1      -1.243  10.696  23.237  0.00  0.00    +0.000 A 
ATOM     22  C   UNL     1      -0.373  10.049  22.360  0.00  0.00    +0.000 A 
ENDBRANCH   4  17
TORSDOF 3
ENDMDL
