MODEL 1
REMARK VINA RESULT:      -8.9      0.000      0.000
REMARK  Name = 
REMARK  11 active torsions:
REMARK  status: ('A' for Active; 'I' for Inactive)
REMARK    1  A    between atoms: C_1  and  C_2
REMARK    2  A    between atoms: C_3  and  C_4
REMARK    3  A    between atoms: C_4  and  O_5
REMARK    4  A    between atoms: O_5  and  C_6
REMARK    5  A    between atoms: C_9  and  S_10
REMARK    6  A    between atoms: S_10  and  C_13
REMARK    7  A    between atoms: C_13  and  C_14
REMARK    8  A    between atoms: C_14  and  C_15
REMARK    9  A    between atoms: N_17  and  O_18
REMARK   10  A    between atoms: C_22  and  C_24
REMARK   11  A    between atoms: C_27  and  C_28
REMARK                            x       y       z     vdW  Elec       q    Type
REMARK                         _______ _______ _______ _____ _____    ______ ____
ROOT
ATOM      1  C   UNL     1       2.162   4.856  19.674  0.00  0.00    +0.000 C 
ATOM      2  C   UNL     1       2.253   5.421  18.218  0.00  0.00    +0.000 C 
ATOM      3  C   UNL     1       2.724   6.871  18.098  0.00  0.00    +0.000 C 
ATOM      4  N   UNL     1       2.018   7.728  19.040  0.00  0.00    +0.000 N 
ATOM      5  C   UNL     1       1.512   8.933  18.547  0.00  0.00    +0.000 C 
ATOM      6  O   UNL     1       1.703   9.317  17.385  0.00  0.00    +0.000 OA
ATOM      7  C   UNL     1       2.051   7.281  20.434  0.00  0.00    +0.000 C 
ATOM      8  C   UNL     1       1.412   5.910  20.526  0.00  0.00    +0.000 C 
ENDROOT
BRANCH   5   9
ATOM      9  C   UNL     1       0.698   9.802  19.440  0.00  0.00    +0.000 A 
ATOM     10  C   UNL     1      -0.463  10.362  18.908  0.00  0.00    +0.000 A 
ATOM     11  C   UNL     1      -1.258  11.187  19.704  0.00  0.00    +0.000 A 
ATOM     12  C   UNL     1      -0.904  11.461  21.045  0.00  0.00    +0.000 A 
ATOM     13  C   UNL     1      -1.788  12.280  21.908  0.00  0.00    +0.000 C 
ATOM     14  C   UNL     1       0.265  10.904  21.564  0.00  0.00    +0.000 A 
ATOM     15  C   UNL     1       1.022  10.047  20.781  0.00  0.00    +0.000 A 
ENDBRANCH   5   9
BRANCH   1  16
ATOM     16  C   UNL     1       1.280   3.594  19.617  0.00  0.00    +0.000 C 
ATOM     17  O   UNL     1       0.758   3.089  20.611  0.00  0.00    +0.000 OA
ATOM     18  N   UNL     1       1.056   3.072  18.369  0.00  0.00    +0.000 N 
ATOM     19  H   UNL     1       1.529   3.331  17.513  0.00  0.00    +0.000 HD
BRANCH  18  20
ATOM     20  O   UNL     1       0.250   1.913  18.313  0.00  0.00    +0.000 OA
ATOM     21  H   UNL     1      -0.656   2.279  18.430  0.00  0.00    +0.000 HD
ENDBRANCH  18  20
ENDBRANCH   1  16
BRANCH   1  22
ATOM     22  C   UNL     1       3.563   4.513  20.276  0.00  0.00    +0.000 C 
BRANCH  22  23
ATOM     23  S   UNL     1       4.620   3.627  19.110  0.00  0.00    +0.000 S 
ATOM     24  O   UNL     1       3.828   3.294  17.938  0.00  0.00    +0.000 OA
ATOM     25  O   UNL     1       5.375   2.622  19.824  0.00  0.00    +0.000 OA
BRANCH  23  29
ATOM     26  C   UNL     1       7.512   6.836  17.729  0.00  0.00    +0.000 A 
ATOM     27  C   UNL     1       6.559   6.333  16.850  0.00  0.00    +0.000 A 
ATOM     28  C   UNL     1       5.703   5.330  17.277  0.00  0.00    +0.000 A 
ATOM     29  C   UNL     1       5.843   4.799  18.565  0.00  0.00    +0.000 A 
ATOM     30  C   UNL     1       6.787   5.304  19.456  0.00  0.00    +0.000 A 
ATOM     31  C   UNL     1       7.629   6.331  19.029  0.00  0.00    +0.000 A 
BRANCH  26  32
ATOM     32  O   UNL     1       8.280   7.839  17.223  0.00  0.00    +0.000 OA
BRANCH  32  33
ATOM     33  C   UNL     1       7.750   9.128  17.467  0.00  0.00    +0.000 C 
BRANCH  33  36
ATOM     34  C   UNL     1      10.507  11.186  20.119  0.00  0.00    +0.000 C 
ATOM     35  C   UNL     1       9.543  10.465  19.191  0.00  0.00    +0.000 C 
ATOM     36  C   UNL     1       8.715   9.848  18.395  0.00  0.00    +0.000 C 
ENDBRANCH  33  36
ENDBRANCH  32  33
ENDBRANCH  26  32
ENDBRANCH  23  29
ENDBRANCH  22  23
ENDBRANCH   1  22
TORSDOF 9
ENDMDL
MODEL 2
REMARK VINA RESULT:      -8.8      0.969      1.045
REMARK  Name = 
REMARK  11 active torsions:
REMARK  status: ('A' for Active; 'I' for Inactive)
REMARK    1  A    between atoms: C_1  and  C_2
REMARK    2  A    between atoms: C_3  and  C_4
REMARK    3  A    between atoms: C_4  and  O_5
REMARK    4  A    between atoms: O_5  and  C_6
REMARK    5  A    between atoms: C_9  and  S_10
REMARK    6  A    between atoms: S_10  and  C_13
REMARK    7  A    between atoms: C_13  and  C_14
REMARK    8  A    between atoms: C_14  and  C_15
REMARK    9  A    between atoms: N_17  and  O_18
REMARK   10  A    between atoms: C_22  and  C_24
REMARK   11  A    between atoms: C_27  and  C_28
REMARK                            x       y       z     vdW  Elec       q    Type
REMARK                         _______ _______ _______ _____ _____    ______ ____
ROOT
ATOM      1  C   UNL     1       2.214   5.037  19.705  0.00  0.00    +0.000 C 
ATOM      2  C   UNL     1       2.088   5.718  18.302  0.00  0.00    +0.000 C 
ATOM      3  C   UNL     1       2.484   7.194  18.243  0.00  0.00    +0.000 C 
ATOM      4  N   UNL     1       1.879   7.940  19.337  0.00  0.00    +0.000 N 
ATOM      5  C   UNL     1       1.267   9.154  19.017  0.00  0.00    +0.000 C 
ATOM      6  O   UNL     1       1.286   9.636  17.876  0.00  0.00    +0.000 OA
ATOM      7  C   UNL     1       2.115   7.388  20.673  0.00  0.00    +0.000 C 
ATOM      8  C   UNL     1       1.546   5.985  20.733  0.00  0.00    +0.000 C 
ENDROOT
BRANCH   5   9
ATOM      9  C   UNL     1       0.548   9.910  20.078  0.00  0.00    +0.000 A 
ATOM     10  C   UNL     1       0.442  11.292  19.923  0.00  0.00    +0.000 A 
ATOM     11  C   UNL     1      -0.218  12.046  20.893  0.00  0.00    +0.000 A 
ATOM     12  C   UNL     1      -0.786  11.429  22.031  0.00  0.00    +0.000 A 
ATOM     13  C   UNL     1      -1.547  12.224  23.022  0.00  0.00    +0.000 C 
ATOM     14  C   UNL     1      -0.664  10.047  22.182  0.00  0.00    +0.000 A 
ATOM     15  C   UNL     1      -0.049   9.301  21.190  0.00  0.00    +0.000 A 
ENDBRANCH   5   9
BRANCH   1  16
ATOM     16  C   UNL     1       1.380   3.743  19.659  0.00  0.00    +0.000 C 
ATOM     17  O   UNL     1       0.910   3.206  20.662  0.00  0.00    +0.000 OA
ATOM     18  N   UNL     1       1.138   3.228  18.411  0.00  0.00    +0.000 N 
ATOM     19  H   UNL     1       1.574   3.515  17.545  0.00  0.00    +0.000 HD
BRANCH  18  20
ATOM     20  O   UNL     1       0.375   2.039  18.365  0.00  0.00    +0.000 OA
ATOM     21  H   UNL     1       0.450   1.703  19.286  0.00  0.00    +0.000 HD
ENDBRANCH  18  20
ENDBRANCH   1  16
BRANCH   1  22
ATOM     22  C   UNL     1       3.695   4.717  20.089  0.00  0.00    +0.000 C 
BRANCH  22  23
ATOM     23  S   UNL     1       4.647   4.070  18.696  0.00  0.00    +0.000 S 
ATOM     24  O   UNL     1       3.777   4.021  17.533  0.00  0.00    +0.000 OA
ATOM     25  O   UNL     1       5.395   2.913  19.131  0.00  0.00    +0.000 OA
BRANCH  23  29
ATOM     26  C   UNL     1       7.617   7.406  17.908  0.00  0.00    +0.000 A 
ATOM     27  C   UNL     1       6.471   7.295  17.127  0.00  0.00    +0.000 A 
ATOM     28  C   UNL     1       5.588   6.252  17.360  0.00  0.00    +0.000 A 
ATOM     29  C   UNL     1       5.887   5.294  18.337  0.00  0.00    +0.000 A 
ATOM     30  C   UNL     1       7.027   5.403  19.131  0.00  0.00    +0.000 A 
ATOM     31  C   UNL     1       7.898   6.469  18.909  0.00  0.00    +0.000 A 
BRANCH  26  32
ATOM     32  O   UNL     1       8.400   8.481  17.621  0.00  0.00    +0.000 OA
BRANCH  32  33
ATOM     33  C   UNL     1       8.766   9.228  18.765  0.00  0.00    +0.000 C 
BRANCH  33  36
ATOM     34  C   UNL     1      10.354  13.028  17.383  0.00  0.00    +0.000 C 
ATOM     35  C   UNL     1       9.798  11.698  17.867  0.00  0.00    +0.000 C 
ATOM     36  C   UNL     1       9.322  10.557  18.282  0.00  0.00    +0.000 C 
ENDBRANCH  33  36
ENDBRANCH  32  33
ENDBRANCH  26  32
ENDBRANCH  23  29
ENDBRANCH  22  23
ENDBRANCH   1  22
TORSDOF 9
ENDMDL
MODEL 3
REMARK VINA RESULT:      -8.5      2.246      3.711
REMARK  Name = 
REMARK  11 active torsions:
REMARK  status: ('A' for Active; 'I' for Inactive)
REMARK    1  A    between atoms: C_1  and  C_2
REMARK    2  A    between atoms: C_3  and  C_4
REMARK    3  A    between atoms: C_4  and  O_5
REMARK    4  A    between atoms: O_5  and  C_6
REMARK    5  A    between atoms: C_9  and  S_10
REMARK    6  A    between atoms: S_10  and  C_13
REMARK    7  A    between atoms: C_13  and  C_14
REMARK    8  A    between atoms: C_14  and  C_15
REMARK    9  A    between atoms: N_17  and  O_18
REMARK   10  A    between atoms: C_22  and  C_24
REMARK   11  A    between atoms: C_27  and  C_28
REMARK                            x       y       z     vdW  Elec       q    Type
REMARK                         _______ _______ _______ _____ _____    ______ ____
ROOT
ATOM      1  C   UNL     1       2.121   5.084  19.709  0.00  0.00    +0.000 C 
ATOM      2  C   UNL     1       2.285   5.606  18.244  0.00  0.00    +0.000 C 
ATOM      3  C   UNL     1       2.780   7.047  18.105  0.00  0.00    +0.000 C 
ATOM      4  N   UNL     1       2.042   7.938  18.989  0.00  0.00    +0.000 N 
ATOM      5  C   UNL     1       1.574   9.135  18.441  0.00  0.00    +0.000 C 
ATOM      6  O   UNL     1       1.823   9.484  17.278  0.00  0.00    +0.000 OA
ATOM      7  C   UNL     1       2.005   7.531  20.396  0.00  0.00    +0.000 C 
ATOM      8  C   UNL     1       1.345   6.170  20.496  0.00  0.00    +0.000 C 
ENDROOT
BRANCH   5   9
ATOM      9  C   UNL     1       0.731  10.037  19.271  0.00  0.00    +0.000 A 
ATOM     10  C   UNL     1      -0.571  10.282  18.834  0.00  0.00    +0.000 A 
ATOM     11  C   UNL     1      -1.399  11.125  19.575  0.00  0.00    +0.000 A 
ATOM     12  C   UNL     1      -0.939  11.731  20.766  0.00  0.00    +0.000 A 
ATOM     13  C   UNL     1      -1.845  12.569  21.587  0.00  0.00    +0.000 C 
ATOM     14  C   UNL     1       0.369  11.489  21.188  0.00  0.00    +0.000 A 
ATOM     15  C   UNL     1       1.167  10.612  20.472  0.00  0.00    +0.000 A 
ENDBRANCH   5   9
BRANCH   1  16
ATOM     16  C   UNL     1       1.226   3.831  19.646  0.00  0.00    +0.000 C 
ATOM     17  O   UNL     1       0.720   3.312  20.641  0.00  0.00    +0.000 OA
ATOM     18  N   UNL     1       0.975   3.334  18.393  0.00  0.00    +0.000 N 
ATOM     19  H   UNL     1       1.433   3.604  17.533  0.00  0.00    +0.000 HD
BRANCH  18  20
ATOM     20  O   UNL     1       0.157   2.183  18.332  0.00  0.00    +0.000 OA
ATOM     21  H   UNL     1       0.490   1.728  17.527  0.00  0.00    +0.000 HD
ENDBRANCH  18  20
ENDBRANCH   1  16
BRANCH   1  22
ATOM     22  C   UNL     1       3.489   4.743  20.385  0.00  0.00    +0.000 C 
BRANCH  22  23
ATOM     23  S   UNL     1       4.287   3.302  19.644  0.00  0.00    +0.000 S 
ATOM     24  O   UNL     1       3.251   2.389  19.191  0.00  0.00    +0.000 OA
ATOM     25  O   UNL     1       5.361   2.861  20.504  0.00  0.00    +0.000 OA
BRANCH  23  29
ATOM     26  C   UNL     1       6.112   4.980  15.847  0.00  0.00    +0.000 A 
ATOM     27  C   UNL     1       5.103   4.026  15.771  0.00  0.00    +0.000 A 
ATOM     28  C   UNL     1       4.577   3.500  16.940  0.00  0.00    +0.000 A 
ATOM     29  C   UNL     1       5.103   3.892  18.177  0.00  0.00    +0.000 A 
ATOM     30  C   UNL     1       6.107   4.854  18.263  0.00  0.00    +0.000 A 
ATOM     31  C   UNL     1       6.615   5.399  17.083  0.00  0.00    +0.000 A 
BRANCH  26  32
ATOM     32  O   UNL     1       6.537   5.456  14.644  0.00  0.00    +0.000 OA
BRANCH  32  33
ATOM     33  C   UNL     1       7.116   4.461  13.822  0.00  0.00    +0.000 C 
BRANCH  33  36
ATOM     34  C   UNL     1       4.030   3.064  11.103  0.00  0.00    +0.000 C 
ATOM     35  C   UNL     1       5.111   3.553  12.054  0.00  0.00    +0.000 C 
ATOM     36  C   UNL     1       6.037   3.972  12.871  0.00  0.00    +0.000 C 
ENDBRANCH  33  36
ENDBRANCH  32  33
ENDBRANCH  26  32
ENDBRANCH  23  29
ENDBRANCH  22  23
ENDBRANCH   1  22
TORSDOF 9
ENDMDL
MODEL 4
REMARK VINA RESULT:      -8.4      0.859      1.221
REMARK  Name = 
REMARK  11 active torsions:
REMARK  status: ('A' for Active; 'I' for Inactive)
REMARK    1  A    between atoms: C_1  and  C_2
REMARK    2  A    between atoms: C_3  and  C_4
REMARK    3  A    between atoms: C_4  and  O_5
REMARK    4  A    between atoms: O_5  and  C_6
REMARK    5  A    between atoms: C_9  and  S_10
REMARK    6  A    between atoms: S_10  and  C_13
REMARK    7  A    between atoms: C_13  and  C_14
REMARK    8  A    between atoms: C_14  and  C_15
REMARK    9  A    between atoms: N_17  and  O_18
REMARK   10  A    between atoms: C_22  and  C_24
REMARK   11  A    between atoms: C_27  and  C_28
REMARK                            x       y       z     vdW  Elec       q    Type
REMARK                         _______ _______ _______ _____ _____    ______ ____
ROOT
ATOM      1  C   UNL     1       2.088   5.312  19.417  0.00  0.00    +0.000 C 
ATOM      2  C   UNL     1       2.237   6.170  18.118  0.00  0.00    +0.000 C 
ATOM      3  C   UNL     1       2.661   7.625  18.329  0.00  0.00    +0.000 C 
ATOM      4  N   UNL     1       1.874   8.249  19.382  0.00  0.00    +0.000 N 
ATOM      5  C   UNL     1       1.350   9.517  19.119  0.00  0.00    +0.000 C 
ATOM      6  O   UNL     1       1.591  10.140  18.075  0.00  0.00    +0.000 OA
ATOM      7  C   UNL     1       1.846   7.522  20.654  0.00  0.00    +0.000 C 
ATOM      8  C   UNL     1       1.254   6.147  20.421  0.00  0.00    +0.000 C 
ENDROOT
BRANCH   5   9
ATOM      9  C   UNL     1       0.457  10.160  20.121  0.00  0.00    +0.000 A 
ATOM     10  C   UNL     1       0.516   9.687  21.431  0.00  0.00    +0.000 A 
ATOM     11  C   UNL     1      -0.304  10.254  22.406  0.00  0.00    +0.000 A 
ATOM     12  C   UNL     1      -1.193  11.305  22.086  0.00  0.00    +0.000 A 
ATOM     13  C   UNL     1      -2.011  11.951  23.139  0.00  0.00    +0.000 C 
ATOM     14  C   UNL     1      -1.253  11.763  20.769  0.00  0.00    +0.000 A 
ATOM     15  C   UNL     1      -0.399  11.227  19.819  0.00  0.00    +0.000 A 
ENDBRANCH   5   9
BRANCH   1  16
ATOM     16  C   UNL     1       1.257   4.069  19.047  0.00  0.00    +0.000 C 
ATOM     17  O   UNL     1       1.057   3.711  17.887  0.00  0.00    +0.000 OA
ATOM     18  N   UNL     1       0.777   3.331  20.099  0.00  0.00    +0.000 N 
ATOM     19  H   UNL     1       0.778   3.599  21.074  0.00  0.00    +0.000 HD
BRANCH  18  20
ATOM     20  O   UNL     1       0.012   2.191  19.763  0.00  0.00    +0.000 OA
ATOM     21  H   UNL     1       0.703   1.540  19.507  0.00  0.00    +0.000 HD
ENDBRANCH  18  20
ENDBRANCH   1  16
BRANCH   1  22
ATOM     22  C   UNL     1       3.466   4.887  20.020  0.00  0.00    +0.000 C 
BRANCH  22  23
ATOM     23  S   UNL     1       4.519   4.046  18.817  0.00  0.00    +0.000 S 
ATOM     24  O   UNL     1       3.758   3.867  17.592  0.00  0.00    +0.000 OA
ATOM     25  O   UNL     1       5.186   2.939  19.463  0.00  0.00    +0.000 OA
BRANCH  23  29
ATOM     26  C   UNL     1       7.661   7.190  17.913  0.00  0.00    +0.000 A 
ATOM     27  C   UNL     1       6.562   7.043  17.074  0.00  0.00    +0.000 A 
ATOM     28  C   UNL     1       5.626   6.057  17.346  0.00  0.00    +0.000 A 
ATOM     29  C   UNL     1       5.827   5.188  18.426  0.00  0.00    +0.000 A 
ATOM     30  C   UNL     1       6.919   5.334  19.278  0.00  0.00    +0.000 A 
ATOM     31  C   UNL     1       7.844   6.344  19.013  0.00  0.00    +0.000 A 
BRANCH  26  32
ATOM     32  O   UNL     1       8.502   8.206  17.578  0.00  0.00    +0.000 OA
BRANCH  32  33
ATOM     33  C   UNL     1       7.963   9.488  17.840  0.00  0.00    +0.000 C 
BRANCH  33  36
ATOM     34  C   UNL     1      10.947  11.719  20.074  0.00  0.00    +0.000 C 
ATOM     35  C   UNL     1       9.902  10.938  19.292  0.00  0.00    +0.000 C 
ATOM     36  C   UNL     1       9.007  10.268  18.622  0.00  0.00    +0.000 C 
ENDBRANCH  33  36
ENDBRANCH  32  33
ENDBRANCH  26  32
ENDBRANCH  23  29
ENDBRANCH  22  23
ENDBRANCH   1  22
TORSDOF 9
ENDMDL
MODEL 5
REMARK VINA RESULT:      -8.4      2.411      3.834
REMARK  Name = 
REMARK  11 active torsions:
REMARK  status: ('A' for Active; 'I' for Inactive)
REMARK    1  A    between atoms: C_1  and  C_2
REMARK    2  A    between atoms: C_3  and  C_4
REMARK    3  A    between atoms: C_4  and  O_5
REMARK    4  A    between atoms: O_5  and  C_6
REMARK    5  A    between atoms: C_9  and  S_10
REMARK    6  A    between atoms: S_10  and  C_13
REMARK    7  A    between atoms: C_13  and  C_14
REMARK    8  A    between atoms: C_14  and  C_15
REMARK    9  A    between atoms: N_17  and  O_18
REMARK   10  A    between atoms: C_22  and  C_24
REMARK   11  A    between atoms: C_27  and  C_28
REMARK                            x       y       z     vdW  Elec       q    Type
REMARK                         _______ _______ _______ _____ _____    ______ ____
ROOT
ATOM      1  C   UNL     1       2.190   5.003  19.764  0.00  0.00    +0.000 C 
ATOM      2  C   UNL     1       2.128   5.664  18.348  0.00  0.00    +0.000 C 
ATOM      3  C   UNL     1       2.598   7.118  18.274  0.00  0.00    +0.000 C 
ATOM      4  N   UNL     1       2.007   7.911  19.341  0.00  0.00    +0.000 N 
ATOM      5  C   UNL     1       1.462   9.149  18.988  0.00  0.00    +0.000 C 
ATOM      6  O   UNL     1       1.531   9.609  17.840  0.00  0.00    +0.000 OA
ATOM      7  C   UNL     1       2.186   7.372  20.691  0.00  0.00    +0.000 C 
ATOM      8  C   UNL     1       1.547   5.999  20.761  0.00  0.00    +0.000 C 
ENDROOT
BRANCH   5   9
ATOM      9  C   UNL     1       0.758   9.957  20.020  0.00  0.00    +0.000 A 
ATOM     10  C   UNL     1       0.863  11.345  19.930  0.00  0.00    +0.000 A 
ATOM     11  C   UNL     1       0.225  12.147  20.877  0.00  0.00    +0.000 A 
ATOM     12  C   UNL     1      -0.530  11.572  21.924  0.00  0.00    +0.000 A 
ATOM     13  C   UNL     1      -1.263  12.429  22.886  0.00  0.00    +0.000 C 
ATOM     14  C   UNL     1      -0.617  10.183  22.012  0.00  0.00    +0.000 A 
ATOM     15  C   UNL     1      -0.021   9.396  21.040  0.00  0.00    +0.000 A 
ENDBRANCH   5   9
BRANCH   1  16
ATOM     16  C   UNL     1       1.294   3.750  19.720  0.00  0.00    +0.000 C 
ATOM     17  O   UNL     1       0.943   3.135  20.726  0.00  0.00    +0.000 OA
ATOM     18  N   UNL     1       0.855   3.369  18.478  0.00  0.00    +0.000 N 
ATOM     19  H   UNL     1       1.179   3.723  17.588  0.00  0.00    +0.000 HD
BRANCH  18  20
ATOM     20  O   UNL     1       0.036   2.218  18.433  0.00  0.00    +0.000 OA
ATOM     21  H   UNL     1       0.608   1.568  17.968  0.00  0.00    +0.000 HD
ENDBRANCH  18  20
ENDBRANCH   1  16
BRANCH   1  22
ATOM     22  C   UNL     1       3.645   4.617  20.187  0.00  0.00    +0.000 C 
BRANCH  22  23
ATOM     23  S   UNL     1       4.324   3.276  19.185  0.00  0.00    +0.000 S 
ATOM     24  O   UNL     1       3.222   2.450  18.720  0.00  0.00    +0.000 OA
ATOM     25  O   UNL     1       5.463   2.706  19.867  0.00  0.00    +0.000 OA
BRANCH  23  29
ATOM     26  C   UNL     1       6.286   5.000  15.477  0.00  0.00    +0.000 A 
ATOM     27  C   UNL     1       6.926   5.092  16.709  0.00  0.00    +0.000 A 
ATOM     28  C   UNL     1       6.299   4.588  17.838  0.00  0.00    +0.000 A 
ATOM     29  C   UNL     1       5.012   4.045  17.735  0.00  0.00    +0.000 A 
ATOM     30  C   UNL     1       4.369   3.940  16.504  0.00  0.00    +0.000 A 
ATOM     31  C   UNL     1       5.015   4.427  15.367  0.00  0.00    +0.000 A 
BRANCH  26  32
ATOM     32  O   UNL     1       6.998   5.495  14.428  0.00  0.00    +0.000 OA
BRANCH  32  33
ATOM     33  C   UNL     1       7.509   4.489  13.575  0.00  0.00    +0.000 C 
BRANCH  33  36
ATOM     34  C   UNL     1       4.195   2.998  11.196  0.00  0.00    +0.000 C 
ATOM     35  C   UNL     1       5.355   3.520  12.028  0.00  0.00    +0.000 C 
ATOM     36  C   UNL     1       6.350   3.968  12.742  0.00  0.00    +0.000 C 
ENDBRANCH  33  36
ENDBRANCH  32  33
ENDBRANCH  26  32
ENDBRANCH  23  29
ENDBRANCH  22  23
ENDBRANCH   1  22
TORSDOF 9
ENDMDL
MODEL 6
REMARK VINA RESULT:      -8.4      2.320      3.867
REMARK  Name = 
REMARK  11 active torsions:
REMARK  status: ('A' for Active; 'I' for Inactive)
REMARK    1  A    between atoms: C_1  and  C_2
REMARK    2  A    between atoms: C_3  and  C_4
REMARK    3  A    between atoms: C_4  and  O_5
REMARK    4  A    between atoms: O_5  and  C_6
REMARK    5  A    between atoms: C_9  and  S_10
REMARK    6  A    between atoms: S_10  and  C_13
REMARK    7  A    between atoms: C_13  and  C_14
REMARK    8  A    between atoms: C_14  and  C_15
REMARK    9  A    between atoms: N_17  and  O_18
REMARK   10  A    between atoms: C_22  and  C_24
REMARK   11  A    between atoms: C_27  and  C_28
REMARK                            x       y       z     vdW  Elec       q    Type
REMARK                         _______ _______ _______ _____ _____    ______ ____
ROOT
ATOM      1  C   UNL     1       2.108   5.218  19.284  0.00  0.00    +0.000 C 
ATOM      2  C   UNL     1       2.527   5.921  17.951  0.00  0.00    +0.000 C 
ATOM      3  C   UNL     1       3.015   7.365  18.088  0.00  0.00    +0.000 C 
ATOM      4  N   UNL     1       2.114   8.141  18.928  0.00  0.00    +0.000 N 
ATOM      5  C   UNL     1       1.734   9.401  18.458  0.00  0.00    +0.000 C 
ATOM      6  O   UNL     1       2.185   9.893  17.414  0.00  0.00    +0.000 OA
ATOM      7  C   UNL     1       1.829   7.558  20.241  0.00  0.00    +0.000 C 
ATOM      8  C   UNL     1       1.184   6.200  20.046  0.00  0.00    +0.000 C 
ENDROOT
BRANCH   5   9
ATOM      9  C   UNL     1       0.739  10.196  19.227  0.00  0.00    +0.000 A 
ATOM     10  C   UNL     1       1.190  10.855  20.370  0.00  0.00    +0.000 A 
ATOM     11  C   UNL     1       0.294  11.611  21.129  0.00  0.00    +0.000 A 
ATOM     12  C   UNL     1      -1.064  11.719  20.752  0.00  0.00    +0.000 A 
ATOM     13  C   UNL     1      -1.995  12.579  21.520  0.00  0.00    +0.000 C 
ATOM     14  C   UNL     1      -1.506  11.046  19.613  0.00  0.00    +0.000 A 
ATOM     15  C   UNL     1      -0.600  10.339  18.840  0.00  0.00    +0.000 A 
ENDBRANCH   5   9
BRANCH   1  16
ATOM     16  C   UNL     1       1.260   3.989  18.901  0.00  0.00    +0.000 C 
ATOM     17  O   UNL     1       1.088   3.623  17.739  0.00  0.00    +0.000 OA
ATOM     18  N   UNL     1       0.731   3.275  19.945  0.00  0.00    +0.000 N 
ATOM     19  H   UNL     1       0.707   3.554  20.917  0.00  0.00    +0.000 HD
BRANCH  18  20
ATOM     20  O   UNL     1      -0.050   2.149  19.598  0.00  0.00    +0.000 OA
ATOM     21  H   UNL     1       0.451   1.769  18.842  0.00  0.00    +0.000 HD
ENDBRANCH  18  20
ENDBRANCH   1  16
BRANCH   1  22
ATOM     22  C   UNL     1       3.335   4.784  20.149  0.00  0.00    +0.000 C 
BRANCH  22  23
ATOM     23  S   UNL     1       4.192   3.349  19.466  0.00  0.00    +0.000 S 
ATOM     24  O   UNL     1       3.194   2.407  18.986  0.00  0.00    +0.000 OA
ATOM     25  O   UNL     1       5.239   2.945  20.375  0.00  0.00    +0.000 OA
BRANCH  23  29
ATOM     26  C   UNL     1       6.144   5.021  15.729  0.00  0.00    +0.000 A 
ATOM     27  C   UNL     1       5.110   4.098  15.619  0.00  0.00    +0.000 A 
ATOM     28  C   UNL     1       4.544   3.572  16.771  0.00  0.00    +0.000 A 
ATOM     29  C   UNL     1       5.056   3.933  18.023  0.00  0.00    +0.000 A 
ATOM     30  C   UNL     1       6.085   4.865  18.142  0.00  0.00    +0.000 A 
ATOM     31  C   UNL     1       6.633   5.409  16.981  0.00  0.00    +0.000 A 
BRANCH  26  32
ATOM     32  O   UNL     1       6.608   5.499  14.541  0.00  0.00    +0.000 OA
BRANCH  32  33
ATOM     33  C   UNL     1       7.176   4.498  13.719  0.00  0.00    +0.000 C 
BRANCH  33  36
ATOM     34  C   UNL     1       4.034   3.024  11.107  0.00  0.00    +0.000 C 
ATOM     35  C   UNL     1       5.134   3.540  12.021  0.00  0.00    +0.000 C 
ATOM     36  C   UNL     1       6.077   3.982  12.805  0.00  0.00    +0.000 C 
ENDBRANCH  33  36
ENDBRANCH  32  33
ENDBRANCH  26  32
ENDBRANCH  23  29
ENDBRANCH  22  23
ENDBRANCH   1  22
TORSDOF 9
ENDMDL
MODEL 7
REMARK VINA RESULT:      -8.1      0.982      1.361
REMARK  Name = 
REMARK  11 active torsions:
REMARK  status: ('A' for Active; 'I' for Inactive)
REMARK    1  A    between atoms: C_1  and  C_2
REMARK    2  A    between atoms: C_3  and  C_4
REMARK    3  A    between atoms: C_4  and  O_5
REMARK    4  A    between atoms: O_5  and  C_6
REMARK    5  A    between atoms: C_9  and  S_10
REMARK    6  A    between atoms: S_10  and  C_13
REMARK    7  A    between atoms: C_13  and  C_14
REMARK    8  A    between atoms: C_14  and  C_15
REMARK    9  A    between atoms: N_17  and  O_18
REMARK   10  A    between atoms: C_22  and  C_24
REMARK   11  A    between atoms: C_27  and  C_28
REMARK                            x       y       z     vdW  Elec       q    Type
REMARK                         _______ _______ _______ _____ _____    ______ ____
ROOT
ATOM      1  C   UNL     1       2.069   5.201  19.392  0.00  0.00    +0.000 C 
ATOM      2  C   UNL     1       2.194   6.135  18.144  0.00  0.00    +0.000 C 
ATOM      3  C   UNL     1       2.615   7.577  18.434  0.00  0.00    +0.000 C 
ATOM      4  N   UNL     1       1.842   8.134  19.535  0.00  0.00    +0.000 N 
ATOM      5  C   UNL     1       1.310   9.413  19.355  0.00  0.00    +0.000 C 
ATOM      6  O   UNL     1       1.531  10.098  18.347  0.00  0.00    +0.000 OA
ATOM      7  C   UNL     1       1.838   7.333  20.761  0.00  0.00    +0.000 C 
ATOM      8  C   UNL     1       1.248   5.971  20.457  0.00  0.00    +0.000 C 
ENDROOT
BRANCH   5   9
ATOM      9  C   UNL     1       0.431   9.991  20.408  0.00  0.00    +0.000 A 
ATOM     10  C   UNL     1      -0.366  11.079  20.053  0.00  0.00    +0.000 A 
ATOM     11  C   UNL     1      -1.204  11.659  21.005  0.00  0.00    +0.000 A 
ATOM     12  C   UNL     1      -1.260  11.158  22.325  0.00  0.00    +0.000 A 
ATOM     13  C   UNL     1      -2.203  11.732  23.314  0.00  0.00    +0.000 C 
ATOM     14  C   UNL     1      -0.449  10.077  22.673  0.00  0.00    +0.000 A 
ATOM     15  C   UNL     1       0.343   9.476  21.708  0.00  0.00    +0.000 A 
ENDBRANCH   5   9
BRANCH   1  16
ATOM     16  C   UNL     1       1.237   3.978  18.963  0.00  0.00    +0.000 C 
ATOM     17  O   UNL     1       1.066   3.656  17.787  0.00  0.00    +0.000 OA
ATOM     18  N   UNL     1       0.720   3.215  19.978  0.00  0.00    +0.000 N 
ATOM     19  H   UNL     1       0.695   3.455  20.961  0.00  0.00    +0.000 HD
BRANCH  18  20
ATOM     20  O   UNL     1      -0.046   2.094  19.588  0.00  0.00    +0.000 OA
ATOM     21  H   UNL     1       0.596   1.574  19.055  0.00  0.00    +0.000 HD
ENDBRANCH  18  20
ENDBRANCH   1  16
BRANCH   1  22
ATOM     22  C   UNL     1       3.458   4.748  19.947  0.00  0.00    +0.000 C 
BRANCH  22  23
ATOM     23  S   UNL     1       4.592   4.232  18.639  0.00  0.00    +0.000 S 
ATOM     24  O   UNL     1       3.842   4.136  17.397  0.00  0.00    +0.000 OA
ATOM     25  O   UNL     1       5.404   3.138  19.119  0.00  0.00    +0.000 OA
BRANCH  23  29
ATOM     26  C   UNL     1       7.708   7.454  17.950  0.00  0.00    +0.000 A 
ATOM     27  C   UNL     1       7.901   6.500  18.944  0.00  0.00    +0.000 A 
ATOM     28  C   UNL     1       6.925   5.541  19.164  0.00  0.00    +0.000 A 
ATOM     29  C   UNL     1       5.737   5.576  18.422  0.00  0.00    +0.000 A 
ATOM     30  C   UNL     1       5.540   6.521  17.418  0.00  0.00    +0.000 A 
ATOM     31  C   UNL     1       6.537   7.469  17.185  0.00  0.00    +0.000 A 
BRANCH  26  32
ATOM     32  O   UNL     1       8.738   8.330  17.794  0.00  0.00    +0.000 OA
BRANCH  32  33
ATOM     33  C   UNL     1       8.323   9.682  17.766  0.00  0.00    +0.000 C 
BRANCH  33  36
ATOM     34  C   UNL     1      10.990  11.913  20.370  0.00  0.00    +0.000 C 
ATOM     35  C   UNL     1      10.056  11.133  19.459  0.00  0.00    +0.000 C 
ATOM     36  C   UNL     1       9.256  10.463  18.677  0.00  0.00    +0.000 C 
ENDBRANCH  33  36
ENDBRANCH  32  33
ENDBRANCH  26  32
ENDBRANCH  23  29
ENDBRANCH  22  23
ENDBRANCH   1  22
TORSDOF 9
ENDMDL
MODEL 8
REMARK VINA RESULT:      -7.8      2.375      3.694
REMARK  Name = 
REMARK  11 active torsions:
REMARK  status: ('A' for Active; 'I' for Inactive)
REMARK    1  A    between atoms: C_1  and  C_2
REMARK    2  A    between atoms: C_3  and  C_4
REMARK    3  A    between atoms: C_4  and  O_5
REMARK    4  A    between atoms: O_5  and  C_6
REMARK    5  A    between atoms: C_9  and  S_10
REMARK    6  A    between atoms: S_10  and  C_13
REMARK    7  A    between atoms: C_13  and  C_14
REMARK    8  A    between atoms: C_14  and  C_15
REMARK    9  A    between atoms: N_17  and  O_18
REMARK   10  A    between atoms: C_22  and  C_24
REMARK   11  A    between atoms: C_27  and  C_28
REMARK                            x       y       z     vdW  Elec       q    Type
REMARK                         _______ _______ _______ _____ _____    ______ ____
ROOT
ATOM      1  C   UNL     1       2.229   5.184  19.711  0.00  0.00    +0.000 C 
ATOM      2  C   UNL     1       2.037   5.687  18.242  0.00  0.00    +0.000 C 
ATOM      3  C   UNL     1       2.503   7.117  17.964  0.00  0.00    +0.000 C 
ATOM      4  N   UNL     1       2.018   8.031  18.988  0.00  0.00    +0.000 N 
ATOM      5  C   UNL     1       1.447   9.229  18.552  0.00  0.00    +0.000 C 
ATOM      6  O   UNL     1       1.410   9.560  17.359  0.00  0.00    +0.000 OA
ATOM      7  C   UNL     1       2.321   7.640  20.367  0.00  0.00    +0.000 C 
ATOM      8  C   UNL     1       1.686   6.293  20.647  0.00  0.00    +0.000 C 
ENDROOT
BRANCH   5   9
ATOM      9  C   UNL     1       0.847  10.156  19.549  0.00  0.00    +0.000 A 
ATOM     10  C   UNL     1       1.357  11.453  19.610  0.00  0.00    +0.000 A 
ATOM     11  C   UNL     1       0.830  12.358  20.532  0.00  0.00    +0.000 A 
ATOM     12  C   UNL     1      -0.216  11.981  21.403  0.00  0.00    +0.000 A 
ATOM     13  C   UNL     1      -0.820  12.966  22.331  0.00  0.00    +0.000 C 
ATOM     14  C   UNL     1      -0.711  10.678  21.342  0.00  0.00    +0.000 A 
ATOM     15  C   UNL     1      -0.215   9.801  20.391  0.00  0.00    +0.000 A 
ENDBRANCH   5   9
BRANCH   1  16
ATOM     16  C   UNL     1       1.328   3.947  19.889  0.00  0.00    +0.000 C 
ATOM     17  O   UNL     1       1.087   3.439  20.984  0.00  0.00    +0.000 OA
ATOM     18  N   UNL     1       0.753   3.452  18.747  0.00  0.00    +0.000 N 
ATOM     19  H   UNL     1       0.979   3.713  17.796  0.00  0.00    +0.000 HD
BRANCH  18  20
ATOM     20  O   UNL     1      -0.072   2.316  18.906  0.00  0.00    +0.000 OA
ATOM     21  H   UNL     1      -0.473   2.467  19.790  0.00  0.00    +0.000 HD
ENDBRANCH  18  20
ENDBRANCH   1  16
BRANCH   1  22
ATOM     22  C   UNL     1       3.716   4.826  20.036  0.00  0.00    +0.000 C 
BRANCH  22  23
ATOM     23  S   UNL     1       4.243   3.284  19.257  0.00  0.00    +0.000 S 
ATOM     24  O   UNL     1       3.085   2.670  18.631  0.00  0.00    +0.000 OA
ATOM     25  O   UNL     1       5.085   2.553  20.176  0.00  0.00    +0.000 OA
BRANCH  23  29
ATOM     26  C   UNL     1       6.819   4.708  15.806  0.00  0.00    +0.000 A 
ATOM     27  C   UNL     1       5.639   4.015  15.554  0.00  0.00    +0.000 A 
ATOM     28  C   UNL     1       4.879   3.559  16.620  0.00  0.00    +0.000 A 
ATOM     29  C   UNL     1       5.333   3.752  17.931  0.00  0.00    +0.000 A 
ATOM     30  C   UNL     1       6.508   4.454  18.192  0.00  0.00    +0.000 A 
ATOM     31  C   UNL     1       7.256   4.932  17.116  0.00  0.00    +0.000 A 
BRANCH  26  32
ATOM     32  O   UNL     1       7.474   5.140  14.694  0.00  0.00    +0.000 OA
BRANCH  32  33
ATOM     33  C   UNL     1       6.627   5.296  13.571  0.00  0.00    +0.000 C 
BRANCH  33  36
ATOM     34  C   UNL     1       7.127   1.781  11.068  0.00  0.00    +0.000 C 
ATOM     35  C   UNL     1       6.952   3.011  11.944  0.00  0.00    +0.000 C 
ATOM     36  C   UNL     1       6.802   4.066  12.695  0.00  0.00    +0.000 C 
ENDBRANCH  33  36
ENDBRANCH  32  33
ENDBRANCH  26  32
ENDBRANCH  23  29
ENDBRANCH  22  23
ENDBRANCH   1  22
TORSDOF 9
ENDMDL
MODEL 9
REMARK VINA RESULT:      -7.8      2.514      3.832
REMARK  Name = 
REMARK  11 active torsions:
REMARK  status: ('A' for Active; 'I' for Inactive)
REMARK    1  A    between atoms: C_1  and  C_2
REMARK    2  A    between atoms: C_3  and  C_4
REMARK    3  A    between atoms: C_4  and  O_5
REMARK    4  A    between atoms: O_5  and  C_6
REMARK    5  A    between atoms: C_9  and  S_10
REMARK    6  A    between atoms: S_10  and  C_13
REMARK    7  A    between atoms: C_13  and  C_14
REMARK    8  A    between atoms: C_14  and  C_15
REMARK    9  A    between atoms: N_17  and  O_18
REMARK   10  A    between atoms: C_22  and  C_24
REMARK   11  A    between atoms: C_27  and  C_28
REMARK                            x       y       z     vdW  Elec       q    Type
REMARK                         _______ _______ _______ _____ _____    ______ ____
ROOT
ATOM      1  C   UNL     1       2.209   5.027  20.142  0.00  0.00    +0.000 C 
ATOM      2  C   UNL     1       1.837   5.304  18.648  0.00  0.00    +0.000 C 
ATOM      3  C   UNL     1       2.306   6.648  18.086  0.00  0.00    +0.000 C 
ATOM      4  N   UNL     1       1.991   7.734  19.002  0.00  0.00    +0.000 N 
ATOM      5  C   UNL     1       1.403   8.878  18.455  0.00  0.00    +0.000 C 
ATOM      6  O   UNL     1       1.216   9.020  17.238  0.00  0.00    +0.000 OA
ATOM      7  C   UNL     1       2.464   7.548  20.376  0.00  0.00    +0.000 C 
ATOM      8  C   UNL     1       1.831   6.295  20.948  0.00  0.00    +0.000 C 
ENDROOT
BRANCH   5   9
ATOM      9  C   UNL     1       0.971   9.978  19.358  0.00  0.00    +0.000 A 
ATOM     10  C   UNL     1       1.161  11.286  18.913  0.00  0.00    +0.000 A 
ATOM     11  C   UNL     1       0.776  12.353  19.725  0.00  0.00    +0.000 A 
ATOM     12  C   UNL     1       0.192  12.127  20.992  0.00  0.00    +0.000 A 
ATOM     13  C   UNL     1      -0.279  13.261  21.821  0.00  0.00    +0.000 C 
ATOM     14  C   UNL     1       0.018  10.815  21.433  0.00  0.00    +0.000 A 
ATOM     15  C   UNL     1       0.358   9.762  20.599  0.00  0.00    +0.000 A 
ENDBRANCH   5   9
BRANCH   1  16
ATOM     16  C   UNL     1       1.303   3.882  20.630  0.00  0.00    +0.000 C 
ATOM     17  O   UNL     1       0.340   3.462  19.989  0.00  0.00    +0.000 OA
ATOM     18  N   UNL     1       1.655   3.303  21.823  0.00  0.00    +0.000 N 
ATOM     19  H   UNL     1       2.342   3.646  22.481  0.00  0.00    +0.000 HD
BRANCH  18  20
ATOM     20  O   UNL     1       0.824   2.253  22.275  0.00  0.00    +0.000 OA
ATOM     21  H   UNL     1       1.257   1.988  23.117  0.00  0.00    +0.000 HD
ENDBRANCH  18  20
ENDBRANCH   1  16
BRANCH   1  22
ATOM     22  C   UNL     1       3.715   4.649  20.328  0.00  0.00    +0.000 C 
BRANCH  22  23
ATOM     23  S   UNL     1       4.193   3.209  19.347  0.00  0.00    +0.000 S 
ATOM     24  O   UNL     1       2.984   2.579  18.843  0.00  0.00    +0.000 OA
ATOM     25  O   UNL     1       5.195   2.458  20.066  0.00  0.00    +0.000 OA
BRANCH  23  29
ATOM     26  C   UNL     1       6.177   5.079  15.723  0.00  0.00    +0.000 A 
ATOM     27  C   UNL     1       4.938   4.460  15.595  0.00  0.00    +0.000 A 
ATOM     28  C   UNL     1       4.359   3.865  16.706  0.00  0.00    +0.000 A 
ATOM     29  C   UNL     1       5.050   3.847  17.924  0.00  0.00    +0.000 A 
ATOM     30  C   UNL     1       6.286   4.474  18.063  0.00  0.00    +0.000 A 
ATOM     31  C   UNL     1       6.853   5.093  16.948  0.00  0.00    +0.000 A 
BRANCH  26  32
ATOM     32  O   UNL     1       6.643   5.659  14.583  0.00  0.00    +0.000 OA
BRANCH  32  33
ATOM     33  C   UNL     1       7.480   4.807  13.824  0.00  0.00    +0.000 C 
BRANCH  33  36
ATOM     34  C   UNL     1       4.917   2.440  11.235  0.00  0.00    +0.000 C 
ATOM     35  C   UNL     1       5.814   3.269  12.141  0.00  0.00    +0.000 C 
ATOM     36  C   UNL     1       6.583   3.979  12.918  0.00  0.00    +0.000 C 
ENDBRANCH  33  36
ENDBRANCH  32  33
ENDBRANCH  26  32
ENDBRANCH  23  29
ENDBRANCH  22  23
ENDBRANCH   1  22
TORSDOF 9
ENDMDL
