MODEL 1
REMARK VINA RESULT:      -7.7      0.000      0.000
REMARK  Name = 
REMARK  9 active torsions:
REMARK  status: ('A' for Active; 'I' for Inactive)
REMARK    1  A    between atoms: C_1  and  O_2
REMARK    2  A    between atoms: O_2  and  C_3
REMARK    3  A    between atoms: C_8  and  O_9
REMARK    4  A    between atoms: O_9  and  C_10
REMARK    5  A    between atoms: C_11  and  C_12
REMARK    6  A    between atoms: C_17  and  O_18
REMARK    7  A    between atoms: O_18  and  C_19
REMARK    8  A    between atoms: C_19  and  C_20
REMARK    9  A    between atoms: C_19  and  C_21
REMARK                            x       y       z     vdW  Elec       q    Type
REMARK                         _______ _______ _______ _____ _____    ______ ____
ROOT
ATOM      1  C   UNL     1       6.961   4.952  14.287  0.00  0.00    +0.000 A 
ATOM      2  C   UNL     1       7.623   5.240  15.488  0.00  0.00    +0.000 A 
ATOM      3  C   UNL     1       6.985   5.037  16.715  0.00  0.00    +0.000 A 
ATOM      4  C   UNL     1       5.668   4.586  16.769  0.00  0.00    +0.000 A 
ATOM      5  C   UNL     1       5.036   4.218  15.571  0.00  0.00    +0.000 A 
ATOM      6  C   UNL     1       5.681   4.372  14.336  0.00  0.00    +0.000 A 
ATOM      7  C   UNL     1       4.897   4.614  18.081  0.00  0.00    +0.000 C 
ATOM      8  C   UNL     1       5.830   4.464  19.290  0.00  0.00    +0.000 C 
ATOM      9  C   UNL     1       7.163   5.168  19.155  0.00  0.00    +0.000 C 
ATOM     10  O   UNL     1       7.852   5.446  20.131  0.00  0.00    +0.000 OA
ATOM     11  N   UNL     1       7.658   5.353  17.895  0.00  0.00    +0.000 N 
ATOM     12  H   UNL     1       8.598   5.727  17.859  0.00  0.00    +0.000 HD
ENDROOT
BRANCH   7  13
ATOM     13  C   UNL     1       3.917   5.788  18.228  0.00  0.00    +0.000 A 
ATOM     14  C   UNL     1       4.080   6.916  17.383  0.00  0.00    +0.000 A 
ATOM     15  C   UNL     1       3.240   8.030  17.437  0.00  0.00    +0.000 A 
ATOM     16  C   UNL     1       2.218   8.075  18.369  0.00  0.00    +0.000 A 
ATOM     17  C   UNL     1       2.044   6.997  19.232  0.00  0.00    +0.000 A 
ATOM     18  C   UNL     1       2.860   5.849  19.164  0.00  0.00    +0.000 A 
BRANCH  18  19
ATOM     19  O   UNL     1       2.494   4.944  20.122  0.00  0.00    +0.000 OA
BRANCH  19  20
ATOM     20  C   UNL     1       1.329   4.126  20.007  0.00  0.00    +0.000 C 
ATOM     21  C   UNL     1       1.350   3.518  18.597  0.00  0.00    +0.000 C 
ATOM     22  C   UNL     1       1.226   3.019  21.063  0.00  0.00    +0.000 C 
ENDBRANCH  19  20
ENDBRANCH  18  19
ENDBRANCH   7  13
BRANCH   1  24
ATOM     23  C   UNL     1       8.752   5.846  12.965  0.00  0.00    +0.000 C 
ATOM     24  O   UNL     1       7.459   5.268  13.052  0.00  0.00    +0.000 OA
ENDBRANCH   1  24
BRANCH   6  25
ATOM     25  O   UNL     1       4.922   3.963  13.269  0.00  0.00    +0.000 OA
ATOM     26  C   UNL     1       5.564   3.117  12.317  0.00  0.00    +0.000 C 
ENDBRANCH   6  25
TORSDOF 5
ENDMDL
MODEL 2
REMARK VINA RESULT:      -7.3      2.135      6.525
REMARK  Name = 
REMARK  9 active torsions:
REMARK  status: ('A' for Active; 'I' for Inactive)
REMARK    1  A    between atoms: C_1  and  O_2
REMARK    2  A    between atoms: O_2  and  C_3
REMARK    3  A    between atoms: C_8  and  O_9
REMARK    4  A    between atoms: O_9  and  C_10
REMARK    5  A    between atoms: C_11  and  C_12
REMARK    6  A    between atoms: C_17  and  O_18
REMARK    7  A    between atoms: O_18  and  C_19
REMARK    8  A    between atoms: C_19  and  C_20
REMARK    9  A    between atoms: C_19  and  C_21
REMARK                            x       y       z     vdW  Elec       q    Type
REMARK                         _______ _______ _______ _____ _____    ______ ____
ROOT
ATOM      1  C   UNL     1       1.420   3.694  20.050  0.00  0.00    +0.000 A 
ATOM      2  C   UNL     1       1.417   5.095  20.049  0.00  0.00    +0.000 A 
ATOM      3  C   UNL     1       2.133   5.804  19.081  0.00  0.00    +0.000 A 
ATOM      4  C   UNL     1       2.897   5.138  18.125  0.00  0.00    +0.000 A 
ATOM      5  C   UNL     1       2.832   3.736  18.075  0.00  0.00    +0.000 A 
ATOM      6  C   UNL     1       2.079   3.013  19.011  0.00  0.00    +0.000 A 
ATOM      7  C   UNL     1       3.872   5.905  17.245  0.00  0.00    +0.000 C 
ATOM      8  C   UNL     1       3.410   7.350  17.013  0.00  0.00    +0.000 C 
ATOM      9  C   UNL     1       2.758   8.008  18.210  0.00  0.00    +0.000 C 
ATOM     10  O   UNL     1       2.666   9.227  18.310  0.00  0.00    +0.000 OA
ATOM     11  N   UNL     1       2.132   7.199  19.116  0.00  0.00    +0.000 N 
ATOM     12  H   UNL     1       1.619   7.688  19.838  0.00  0.00    +0.000 HD
ENDROOT
BRANCH   7  13
ATOM     13  C   UNL     1       5.343   5.813  17.679  0.00  0.00    +0.000 A 
ATOM     14  C   UNL     1       5.636   5.738  19.064  0.00  0.00    +0.000 A 
ATOM     15  C   UNL     1       6.939   5.648  19.560  0.00  0.00    +0.000 A 
ATOM     16  C   UNL     1       8.009   5.665  18.682  0.00  0.00    +0.000 A 
ATOM     17  C   UNL     1       7.760   5.764  17.317  0.00  0.00    +0.000 A 
ATOM     18  C   UNL     1       6.449   5.817  16.799  0.00  0.00    +0.000 A 
BRANCH  18  19
ATOM     19  O   UNL     1       6.475   5.922  15.436  0.00  0.00    +0.000 OA
BRANCH  19  20
ATOM     20  C   UNL     1       6.866   4.844  14.585  0.00  0.00    +0.000 C 
ATOM     21  C   UNL     1       5.578   4.129  14.153  0.00  0.00    +0.000 C 
ATOM     22  C   UNL     1       7.676   5.271  13.355  0.00  0.00    +0.000 C 
ENDBRANCH  19  20
ENDBRANCH  18  19
ENDBRANCH   7  13
BRANCH   1  24
ATOM     23  C   UNL     1       1.718   2.465  22.089  0.00  0.00    +0.000 C 
ATOM     24  O   UNL     1       0.874   2.935  21.050  0.00  0.00    +0.000 OA
ENDBRANCH   1  24
BRANCH   6  25
ATOM     25  O   UNL     1       2.124   1.655  18.817  0.00  0.00    +0.000 OA
ATOM     26  C   UNL     1       3.410   1.089  18.574  0.00  0.00    +0.000 C 
ENDBRANCH   6  25
TORSDOF 5
ENDMDL
MODEL 3
REMARK VINA RESULT:      -6.7      7.896     11.811
REMARK  Name = 
REMARK  9 active torsions:
REMARK  status: ('A' for Active; 'I' for Inactive)
REMARK    1  A    between atoms: C_1  and  O_2
REMARK    2  A    between atoms: O_2  and  C_3
REMARK    3  A    between atoms: C_8  and  O_9
REMARK    4  A    between atoms: O_9  and  C_10
REMARK    5  A    between atoms: C_11  and  C_12
REMARK    6  A    between atoms: C_17  and  O_18
REMARK    7  A    between atoms: O_18  and  C_19
REMARK    8  A    between atoms: C_19  and  C_20
REMARK    9  A    between atoms: C_19  and  C_21
REMARK                            x       y       z     vdW  Elec       q    Type
REMARK                         _______ _______ _______ _____ _____    ______ ____
ROOT
ATOM      1  C   UNL     1      -6.190  12.957  18.262  0.00  0.00    +0.000 A 
ATOM      2  C   UNL     1      -5.632  12.586  17.031  0.00  0.00    +0.000 A 
ATOM      3  C   UNL     1      -4.555  11.697  16.980  0.00  0.00    +0.000 A 
ATOM      4  C   UNL     1      -3.987  11.195  18.149  0.00  0.00    +0.000 A 
ATOM      5  C   UNL     1      -4.598  11.499  19.375  0.00  0.00    +0.000 A 
ATOM      6  C   UNL     1      -5.709  12.352  19.437  0.00  0.00    +0.000 A 
ATOM      7  C   UNL     1      -2.665  10.442  18.101  0.00  0.00    +0.000 C 
ATOM      8  C   UNL     1      -2.470   9.723  16.760  0.00  0.00    +0.000 C 
ATOM      9  C   UNL     1      -2.977  10.481  15.553  0.00  0.00    +0.000 C 
ATOM     10  O   UNL     1      -2.588  10.228  14.417  0.00  0.00    +0.000 OA
ATOM     11  N   UNL     1      -4.004  11.363  15.743  0.00  0.00    +0.000 N 
ATOM     12  H   UNL     1      -4.381  11.764  14.894  0.00  0.00    +0.000 HD
ENDROOT
BRANCH   7  13
ATOM     13  C   UNL     1      -1.438  11.267  18.519  0.00  0.00    +0.000 A 
ATOM     14  C   UNL     1      -1.317  12.594  18.032  0.00  0.00    +0.000 A 
ATOM     15  C   UNL     1      -0.242  13.425  18.354  0.00  0.00    +0.000 A 
ATOM     16  C   UNL     1       0.779  12.945  19.156  0.00  0.00    +0.000 A 
ATOM     17  C   UNL     1       0.707  11.639  19.631  0.00  0.00    +0.000 A 
ATOM     18  C   UNL     1      -0.391  10.801  19.345  0.00  0.00    +0.000 A 
BRANCH  18  19
ATOM     19  O   UNL     1      -0.217   9.571  19.916  0.00  0.00    +0.000 OA
BRANCH  19  20
ATOM     20  C   UNL     1       0.541   9.374  21.111  0.00  0.00    +0.000 C 
ATOM     21  C   UNL     1      -0.460   9.374  22.276  0.00  0.00    +0.000 C 
ATOM     22  C   UNL     1       1.375   8.088  21.127  0.00  0.00    +0.000 C 
ENDBRANCH  19  20
ENDBRANCH  18  19
ENDBRANCH   7  13
BRANCH   1  24
ATOM     23  C   UNL     1      -6.719  15.288  18.458  0.00  0.00    +0.000 C 
ATOM     24  O   UNL     1      -7.138  13.933  18.402  0.00  0.00    +0.000 OA
ENDBRANCH   1  24
BRANCH   6  25
ATOM     25  O   UNL     1      -6.182  12.541  20.712  0.00  0.00    +0.000 OA
ATOM     26  C   UNL     1      -7.281  11.725  21.111  0.00  0.00    +0.000 C 
ENDBRANCH   6  25
TORSDOF 5
ENDMDL
MODEL 4
REMARK VINA RESULT:      -6.6      1.797      5.410
REMARK  Name = 
REMARK  9 active torsions:
REMARK  status: ('A' for Active; 'I' for Inactive)
REMARK    1  A    between atoms: C_1  and  O_2
REMARK    2  A    between atoms: O_2  and  C_3
REMARK    3  A    between atoms: C_8  and  O_9
REMARK    4  A    between atoms: O_9  and  C_10
REMARK    5  A    between atoms: C_11  and  C_12
REMARK    6  A    between atoms: C_17  and  O_18
REMARK    7  A    between atoms: O_18  and  C_19
REMARK    8  A    between atoms: C_19  and  C_20
REMARK    9  A    between atoms: C_19  and  C_21
REMARK                            x       y       z     vdW  Elec       q    Type
REMARK                         _______ _______ _______ _____ _____    ______ ____
ROOT
ATOM      1  C   UNL     1       2.761   6.127  19.495  0.00  0.00    +0.000 A 
ATOM      2  C   UNL     1       3.986   5.629  19.962  0.00  0.00    +0.000 A 
ATOM      3  C   UNL     1       5.153   5.805  19.215  0.00  0.00    +0.000 A 
ATOM      4  C   UNL     1       5.120   6.439  17.976  0.00  0.00    +0.000 A 
ATOM      5  C   UNL     1       3.912   7.012  17.548  0.00  0.00    +0.000 A 
ATOM      6  C   UNL     1       2.742   6.883  18.310  0.00  0.00    +0.000 A 
ATOM      7  C   UNL     1       6.333   6.400  17.057  0.00  0.00    +0.000 C 
ATOM      8  C   UNL     1       7.642   6.292  17.850  0.00  0.00    +0.000 C 
ATOM      9  C   UNL     1       7.568   5.413  19.080  0.00  0.00    +0.000 C 
ATOM     10  O   UNL     1       8.574   4.943  19.602  0.00  0.00    +0.000 OA
ATOM     11  N   UNL     1       6.354   5.279  19.692  0.00  0.00    +0.000 N 
ATOM     12  H   UNL     1       6.375   4.774  20.569  0.00  0.00    +0.000 HD
ENDROOT
BRANCH   7  13
ATOM     13  C   UNL     1       6.243   5.377  15.914  0.00  0.00    +0.000 A 
ATOM     14  C   UNL     1       6.756   5.737  14.642  0.00  0.00    +0.000 A 
ATOM     15  C   UNL     1       6.725   4.879  13.541  0.00  0.00    +0.000 A 
ATOM     16  C   UNL     1       6.141   3.630  13.662  0.00  0.00    +0.000 A 
ATOM     17  C   UNL     1       5.604   3.252  14.888  0.00  0.00    +0.000 A 
ATOM     18  C   UNL     1       5.662   4.093  16.019  0.00  0.00    +0.000 A 
BRANCH  18  19
ATOM     19  O   UNL     1       5.057   3.498  17.091  0.00  0.00    +0.000 OA
BRANCH  19  20
ATOM     20  C   UNL     1       3.827   2.780  16.984  0.00  0.00    +0.000 C 
ATOM     21  C   UNL     1       3.769   1.818  18.179  0.00  0.00    +0.000 C 
ATOM     22  C   UNL     1       2.577   3.668  16.955  0.00  0.00    +0.000 C 
ENDBRANCH  19  20
ENDBRANCH  18  19
ENDBRANCH   7  13
BRANCH   1  24
ATOM     23  C   UNL     1       1.241   4.517  20.418  0.00  0.00    +0.000 C 
ATOM     24  O   UNL     1       1.558   5.861  20.090  0.00  0.00    +0.000 OA
ENDBRANCH   1  24
BRANCH   6  25
ATOM     25  O   UNL     1       1.654   7.502  17.748  0.00  0.00    +0.000 OA
ATOM     26  C   UNL     1       1.642   8.927  17.786  0.00  0.00    +0.000 C 
ENDBRANCH   6  25
TORSDOF 5
ENDMDL
MODEL 5
REMARK VINA RESULT:      -6.6      6.675      9.873
REMARK  Name = 
REMARK  9 active torsions:
REMARK  status: ('A' for Active; 'I' for Inactive)
REMARK    1  A    between atoms: C_1  and  O_2
REMARK    2  A    between atoms: O_2  and  C_3
REMARK    3  A    between atoms: C_8  and  O_9
REMARK    4  A    between atoms: O_9  and  C_10
REMARK    5  A    between atoms: C_11  and  C_12
REMARK    6  A    between atoms: C_17  and  O_18
REMARK    7  A    between atoms: O_18  and  C_19
REMARK    8  A    between atoms: C_19  and  C_20
REMARK    9  A    between atoms: C_19  and  C_21
REMARK                            x       y       z     vdW  Elec       q    Type
REMARK                         _______ _______ _______ _____ _____    ______ ____
ROOT
ATOM      1  C   UNL     1       2.312  14.580  18.806  0.00  0.00    +0.000 A 
ATOM      2  C   UNL     1       2.740  13.341  18.309  0.00  0.00    +0.000 A 
ATOM      3  C   UNL     1       1.898  12.227  18.361  0.00  0.00    +0.000 A 
ATOM      4  C   UNL     1       0.635  12.313  18.943  0.00  0.00    +0.000 A 
ATOM      5  C   UNL     1       0.175  13.571  19.363  0.00  0.00    +0.000 A 
ATOM      6  C   UNL     1       0.992  14.706  19.273  0.00  0.00    +0.000 A 
ATOM      7  C   UNL     1      -0.168  11.053  19.229  0.00  0.00    +0.000 C 
ATOM      8  C   UNL     1       0.166   9.930  18.239  0.00  0.00    +0.000 C 
ATOM      9  C   UNL     1       1.624   9.849  17.839  0.00  0.00    +0.000 C 
ATOM     10  O   UNL     1       2.110   8.829  17.362  0.00  0.00    +0.000 OA
ATOM     11  N   UNL     1       2.357  11.001  17.880  0.00  0.00    +0.000 N 
ATOM     12  H   UNL     1       3.292  10.922  17.501  0.00  0.00    +0.000 HD
ENDROOT
BRANCH   7  13
ATOM     13  C   UNL     1      -0.136  10.586  20.693  0.00  0.00    +0.000 A 
ATOM     14  C   UNL     1       0.791   9.577  21.061  0.00  0.00    +0.000 A 
ATOM     15  C   UNL     1       0.900   9.087  22.364  0.00  0.00    +0.000 A 
ATOM     16  C   UNL     1       0.056   9.567  23.350  0.00  0.00    +0.000 A 
ATOM     17  C   UNL     1      -0.883  10.539  23.020  0.00  0.00    +0.000 A 
ATOM     18  C   UNL     1      -0.980  11.071  21.717  0.00  0.00    +0.000 A 
BRANCH  18  19
ATOM     19  O   UNL     1      -1.983  11.998  21.651  0.00  0.00    +0.000 OA
BRANCH  19  20
ATOM     20  C   UNL     1      -2.567  12.588  22.813  0.00  0.00    +0.000 C 
ATOM     21  C   UNL     1      -1.878  13.946  23.015  0.00  0.00    +0.000 C 
ATOM     22  C   UNL     1      -4.087  12.769  22.733  0.00  0.00    +0.000 C 
ENDBRANCH  19  20
ENDBRANCH  18  19
ENDBRANCH   7  13
BRANCH   1  24
ATOM     23  C   UNL     1       3.347  16.494  17.796  0.00  0.00    +0.000 C 
ATOM     24  O   UNL     1       3.129  15.670  18.931  0.00  0.00    +0.000 OA
ENDBRANCH   1  24
BRANCH   6  25
ATOM     25  O   UNL     1       0.386  15.852  19.725  0.00  0.00    +0.000 OA
ATOM     26  C   UNL     1       0.460  16.100  21.127  0.00  0.00    +0.000 C 
ENDBRANCH   6  25
TORSDOF 5
ENDMDL
MODEL 6
REMARK VINA RESULT:      -6.6      2.657      3.864
REMARK  Name = 
REMARK  9 active torsions:
REMARK  status: ('A' for Active; 'I' for Inactive)
REMARK    1  A    between atoms: C_1  and  O_2
REMARK    2  A    between atoms: O_2  and  C_3
REMARK    3  A    between atoms: C_8  and  O_9
REMARK    4  A    between atoms: O_9  and  C_10
REMARK    5  A    between atoms: C_11  and  C_12
REMARK    6  A    between atoms: C_17  and  O_18
REMARK    7  A    between atoms: O_18  and  C_19
REMARK    8  A    between atoms: C_19  and  C_20
REMARK    9  A    between atoms: C_19  and  C_21
REMARK                            x       y       z     vdW  Elec       q    Type
REMARK                         _______ _______ _______ _____ _____    ______ ____
ROOT
ATOM      1  C   UNL     1       7.001   4.839  17.825  0.00  0.00    +0.000 A 
ATOM      2  C   UNL     1       6.014   3.873  18.065  0.00  0.00    +0.000 A 
ATOM      3  C   UNL     1       4.671   4.148  17.793  0.00  0.00    +0.000 A 
ATOM      4  C   UNL     1       4.280   5.398  17.318  0.00  0.00    +0.000 A 
ATOM      5  C   UNL     1       5.275   6.334  16.997  0.00  0.00    +0.000 A 
ATOM      6  C   UNL     1       6.631   6.053  17.221  0.00  0.00    +0.000 A 
ATOM      7  C   UNL     1       2.807   5.777  17.270  0.00  0.00    +0.000 C 
ATOM      8  C   UNL     1       1.910   4.547  17.077  0.00  0.00    +0.000 C 
ATOM      9  C   UNL     1       2.371   3.306  17.810  0.00  0.00    +0.000 C 
ATOM     10  O   UNL     1       1.608   2.376  18.053  0.00  0.00    +0.000 OA
ATOM     11  N   UNL     1       3.707   3.177  18.064  0.00  0.00    +0.000 N 
ATOM     12  H   UNL     1       3.980   2.285  18.456  0.00  0.00    +0.000 HD
ENDROOT
BRANCH   7  13
ATOM     13  C   UNL     1       2.337   6.684  18.418  0.00  0.00    +0.000 A 
ATOM     14  C   UNL     1       1.857   7.981  18.102  0.00  0.00    +0.000 A 
ATOM     15  C   UNL     1       1.405   8.878  19.072  0.00  0.00    +0.000 A 
ATOM     16  C   UNL     1       1.449   8.523  20.409  0.00  0.00    +0.000 A 
ATOM     17  C   UNL     1       1.938   7.268  20.758  0.00  0.00    +0.000 A 
ATOM     18  C   UNL     1       2.362   6.336  19.787  0.00  0.00    +0.000 A 
BRANCH  18  19
ATOM     19  O   UNL     1       2.806   5.190  20.385  0.00  0.00    +0.000 OA
BRANCH  19  20
ATOM     20  C   UNL     1       1.981   4.391  21.234  0.00  0.00    +0.000 C 
ATOM     21  C   UNL     1       0.632   4.229  20.517  0.00  0.00    +0.000 C 
ATOM     22  C   UNL     1       2.569   3.018  21.578  0.00  0.00    +0.000 C 
ENDBRANCH  19  20
ENDBRANCH  18  19
ENDBRANCH   7  13
BRANCH   1  24
ATOM     23  C   UNL     1       8.689   5.138  19.503  0.00  0.00    +0.000 C 
ATOM     24  O   UNL     1       8.307   4.701  18.208  0.00  0.00    +0.000 OA
ENDBRANCH   1  24
BRANCH   6  25
ATOM     25  O   UNL     1       7.468   7.076  16.850  0.00  0.00    +0.000 OA
ATOM     26  C   UNL     1       7.560   8.180  17.747  0.00  0.00    +0.000 C 
ENDBRANCH   6  25
TORSDOF 5
ENDMDL
MODEL 7
REMARK VINA RESULT:      -6.5      7.832     10.710
REMARK  Name = 
REMARK  9 active torsions:
REMARK  status: ('A' for Active; 'I' for Inactive)
REMARK    1  A    between atoms: C_1  and  O_2
REMARK    2  A    between atoms: O_2  and  C_3
REMARK    3  A    between atoms: C_8  and  O_9
REMARK    4  A    between atoms: O_9  and  C_10
REMARK    5  A    between atoms: C_11  and  C_12
REMARK    6  A    between atoms: C_17  and  O_18
REMARK    7  A    between atoms: O_18  and  C_19
REMARK    8  A    between atoms: C_19  and  C_20
REMARK    9  A    between atoms: C_19  and  C_21
REMARK                            x       y       z     vdW  Elec       q    Type
REMARK                         _______ _______ _______ _____ _____    ______ ____
ROOT
ATOM      1  C   UNL     1      -3.569  10.571  16.151  0.00  0.00    +0.000 A 
ATOM      2  C   UNL     1      -2.255  10.160  16.415  0.00  0.00    +0.000 A 
ATOM      3  C   UNL     1      -1.655  10.450  17.644  0.00  0.00    +0.000 A 
ATOM      4  C   UNL     1      -2.332  11.186  18.613  0.00  0.00    +0.000 A 
ATOM      5  C   UNL     1      -3.675  11.523  18.382  0.00  0.00    +0.000 A 
ATOM      6  C   UNL     1      -4.304  11.197  17.173  0.00  0.00    +0.000 A 
ATOM      7  C   UNL     1      -1.593  11.717  19.833  0.00  0.00    +0.000 C 
ATOM      8  C   UNL     1      -0.407  10.821  20.212  0.00  0.00    +0.000 C 
ATOM      9  C   UNL     1       0.348  10.237  19.038  0.00  0.00    +0.000 C 
ATOM     10  O   UNL     1       1.495   9.814  19.149  0.00  0.00    +0.000 OA
ATOM     11  N   UNL     1      -0.338  10.050  17.871  0.00  0.00    +0.000 N 
ATOM     12  H   UNL     1       0.175   9.557  17.151  0.00  0.00    +0.000 HD
ENDROOT
BRANCH   7  13
ATOM     13  C   UNL     1      -1.217  13.206  19.761  0.00  0.00    +0.000 A 
ATOM     14  C   UNL     1      -0.360  13.637  18.716  0.00  0.00    +0.000 A 
ATOM     15  C   UNL     1       0.038  14.966  18.562  0.00  0.00    +0.000 A 
ATOM     16  C   UNL     1      -0.380  15.917  19.476  0.00  0.00    +0.000 A 
ATOM     17  C   UNL     1      -1.201  15.526  20.529  0.00  0.00    +0.000 A 
ATOM     18  C   UNL     1      -1.642  14.194  20.676  0.00  0.00    +0.000 A 
BRANCH  18  19
ATOM     19  O   UNL     1      -2.424  14.068  21.791  0.00  0.00    +0.000 OA
BRANCH  19  20
ATOM     20  C   UNL     1      -2.028  13.304  22.930  0.00  0.00    +0.000 C 
ATOM     21  C   UNL     1      -1.425  14.293  23.939  0.00  0.00    +0.000 C 
ATOM     22  C   UNL     1      -3.162  12.505  23.582  0.00  0.00    +0.000 C 
ENDBRANCH  19  20
ENDBRANCH  18  19
ENDBRANCH   7  13
BRANCH   1  24
ATOM     23  C   UNL     1      -3.392  10.001  13.828  0.00  0.00    +0.000 C 
ATOM     24  O   UNL     1      -4.165  10.461  14.925  0.00  0.00    +0.000 OA
ENDBRANCH   1  24
BRANCH   6  25
ATOM     25  O   UNL     1      -5.616  11.599  17.114  0.00  0.00    +0.000 OA
ATOM     26  C   UNL     1      -6.472  11.129  18.152  0.00  0.00    +0.000 C 
ENDBRANCH   6  25
TORSDOF 5
ENDMDL
MODEL 8
REMARK VINA RESULT:      -6.5      6.861     10.130
REMARK  Name = 
REMARK  9 active torsions:
REMARK  status: ('A' for Active; 'I' for Inactive)
REMARK    1  A    between atoms: C_1  and  O_2
REMARK    2  A    between atoms: O_2  and  C_3
REMARK    3  A    between atoms: C_8  and  O_9
REMARK    4  A    between atoms: O_9  and  C_10
REMARK    5  A    between atoms: C_11  and  C_12
REMARK    6  A    between atoms: C_17  and  O_18
REMARK    7  A    between atoms: O_18  and  C_19
REMARK    8  A    between atoms: C_19  and  C_20
REMARK    9  A    between atoms: C_19  and  C_21
REMARK                            x       y       z     vdW  Elec       q    Type
REMARK                         _______ _______ _______ _____ _____    ______ ____
ROOT
ATOM      1  C   UNL     1      -3.163  10.782  16.763  0.00  0.00    +0.000 A 
ATOM      2  C   UNL     1      -1.923  10.130  16.711  0.00  0.00    +0.000 A 
ATOM      3  C   UNL     1      -1.047  10.187  17.798  0.00  0.00    +0.000 A 
ATOM      4  C   UNL     1      -1.367  10.924  18.936  0.00  0.00    +0.000 A 
ATOM      5  C   UNL     1      -2.642  11.505  19.021  0.00  0.00    +0.000 A 
ATOM      6  C   UNL     1      -3.550  11.416  17.956  0.00  0.00    +0.000 A 
ATOM      7  C   UNL     1      -0.314  11.196  20.000  0.00  0.00    +0.000 C 
ATOM      8  C   UNL     1       0.736  10.078  20.058  0.00  0.00    +0.000 C 
ATOM      9  C   UNL     1       1.118   9.497  18.713  0.00  0.00    +0.000 C 
ATOM     10  O   UNL     1       2.164   8.877  18.549  0.00  0.00    +0.000 OA
ATOM     11  N   UNL     1       0.190   9.549  17.712  0.00  0.00    +0.000 N 
ATOM     12  H   UNL     1       0.448   9.053  16.868  0.00  0.00    +0.000 HD
ENDROOT
BRANCH   7  13
ATOM     13  C   UNL     1       0.312  12.598  19.945  0.00  0.00    +0.000 A 
ATOM     14  C   UNL     1       0.847  13.052  18.712  0.00  0.00    +0.000 A 
ATOM     15  C   UNL     1       1.434  14.310  18.558  0.00  0.00    +0.000 A 
ATOM     16  C   UNL     1       1.541  15.155  19.648  0.00  0.00    +0.000 A 
ATOM     17  C   UNL     1       1.051  14.732  20.880  0.00  0.00    +0.000 A 
ATOM     18  C   UNL     1       0.421  13.480  21.043  0.00  0.00    +0.000 A 
BRANCH  18  19
ATOM     19  O   UNL     1       0.041  13.301  22.344  0.00  0.00    +0.000 OA
BRANCH  19  20
ATOM     20  C   UNL     1      -1.288  13.551  22.802  0.00  0.00    +0.000 C 
ATOM     21  C   UNL     1      -1.921  12.183  23.099  0.00  0.00    +0.000 C 
ATOM     22  C   UNL     1      -1.372  14.455  24.037  0.00  0.00    +0.000 C 
ENDBRANCH  19  20
ENDBRANCH  18  19
ENDBRANCH   7  13
BRANCH   1  24
ATOM     23  C   UNL     1      -3.661  10.241  14.479  0.00  0.00    +0.000 C 
ATOM     24  O   UNL     1      -4.002  10.900  15.689  0.00  0.00    +0.000 OA
ENDBRANCH   1  24
BRANCH   6  25
ATOM     25  O   UNL     1      -4.748  12.037  18.206  0.00  0.00    +0.000 OA
ATOM     26  C   UNL     1      -5.818  11.204  18.645  0.00  0.00    +0.000 C 
ENDBRANCH   6  25
TORSDOF 5
ENDMDL
MODEL 9
REMARK VINA RESULT:      -6.4      6.763      9.948
REMARK  Name = 
REMARK  9 active torsions:
REMARK  status: ('A' for Active; 'I' for Inactive)
REMARK    1  A    between atoms: C_1  and  O_2
REMARK    2  A    between atoms: O_2  and  C_3
REMARK    3  A    between atoms: C_8  and  O_9
REMARK    4  A    between atoms: O_9  and  C_10
REMARK    5  A    between atoms: C_11  and  C_12
REMARK    6  A    between atoms: C_17  and  O_18
REMARK    7  A    between atoms: O_18  and  C_19
REMARK    8  A    between atoms: C_19  and  C_20
REMARK    9  A    between atoms: C_19  and  C_21
REMARK                            x       y       z     vdW  Elec       q    Type
REMARK                         _______ _______ _______ _____ _____    ______ ____
ROOT
ATOM      1  C   UNL     1      -4.170  11.214  18.026  0.00  0.00    +0.000 A 
ATOM      2  C   UNL     1      -3.611  12.019  19.029  0.00  0.00    +0.000 A 
ATOM      3  C   UNL     1      -2.227  12.196  19.105  0.00  0.00    +0.000 A 
ATOM      4  C   UNL     1      -1.373  11.546  18.217  0.00  0.00    +0.000 A 
ATOM      5  C   UNL     1      -1.937  10.810  17.163  0.00  0.00    +0.000 A 
ATOM      6  C   UNL     1      -3.327  10.663  17.046  0.00  0.00    +0.000 A 
ATOM      7  C   UNL     1       0.129  11.534  18.461  0.00  0.00    +0.000 C 
ATOM      8  C   UNL     1       0.590  12.783  19.223  0.00  0.00    +0.000 C 
ATOM      9  C   UNL     1      -0.369  13.265  20.291  0.00  0.00    +0.000 C 
ATOM     10  O   UNL     1      -0.006  14.000  21.204  0.00  0.00    +0.000 OA
ATOM     11  N   UNL     1      -1.695  12.983  20.127  0.00  0.00    +0.000 N 
ATOM     12  H   UNL     1      -2.308  13.417  20.805  0.00  0.00    +0.000 HD
ENDROOT
BRANCH   7  13
ATOM     13  C   UNL     1       0.672  10.231  19.068  0.00  0.00    +0.000 A 
ATOM     14  C   UNL     1       1.632   9.490  18.331  0.00  0.00    +0.000 A 
ATOM     15  C   UNL     1       2.188   8.297  18.796  0.00  0.00    +0.000 A 
ATOM     16  C   UNL     1       1.777   7.777  20.011  0.00  0.00    +0.000 A 
ATOM     17  C   UNL     1       0.819   8.463  20.750  0.00  0.00    +0.000 A 
ATOM     18  C   UNL     1       0.276   9.689  20.311  0.00  0.00    +0.000 A 
BRANCH  18  19
ATOM     19  O   UNL     1      -0.649  10.152  21.206  0.00  0.00    +0.000 OA
BRANCH  19  20
ATOM     20  C   UNL     1      -0.303  10.574  22.525  0.00  0.00    +0.000 C 
ATOM     21  C   UNL     1      -1.517  11.330  23.083  0.00  0.00    +0.000 C 
ATOM     22  C   UNL     1       0.093   9.433  23.471  0.00  0.00    +0.000 C 
ENDBRANCH  19  20
ENDBRANCH  18  19
ENDBRANCH   7  13
BRANCH   1  24
ATOM     23  C   UNL     1      -6.280  11.022  19.152  0.00  0.00    +0.000 C 
ATOM     24  O   UNL     1      -5.494  10.870  17.981  0.00  0.00    +0.000 OA
ENDBRANCH   1  24
BRANCH   6  25
ATOM     25  O   UNL     1      -3.707   9.915  15.960  0.00  0.00    +0.000 OA
ATOM     26  C   UNL     1      -3.144  10.285  14.704  0.00  0.00    +0.000 C 
ENDBRANCH   6  25
TORSDOF 5
ENDMDL
