MODEL 1
REMARK VINA RESULT:      -8.7      0.000      0.000
REMARK  Name = 
REMARK  4 active torsions:
REMARK  status: ('A' for Active; 'I' for Inactive)
REMARK    1  A    between atoms: C_2  and  C_3
REMARK    2  A    between atoms: N_8  and  C_9
REMARK    3  A    between atoms: C_14  and  C_15
REMARK    4  A    between atoms: C_15  and  C_16
REMARK                            x       y       z     vdW  Elec       q    Type
REMARK                         _______ _______ _______ _____ _____    ______ ____
ROOT
ATOM      1  C   UNL     1       2.057   7.516  19.523  0.00  0.00    +0.000 A 
ATOM      2  C   UNL     1       2.922   7.754  18.454  0.00  0.00    +0.000 A 
ATOM      3  C   UNL     1       3.386   6.699  17.666  0.00  0.00    +0.000 A 
ATOM      4  C   UNL     1       3.010   5.389  17.959  0.00  0.00    +0.000 A 
ATOM      5  F   UNL     1       3.521   4.410  17.199  0.00  0.00    +0.000 F 
ATOM      6  C   UNL     1       2.161   5.087  19.029  0.00  0.00    +0.000 A 
ATOM      7  C   UNL     1       1.705   6.184  19.807  0.00  0.00    +0.000 A 
ENDROOT
BRANCH   1  13
ATOM      8  C   UNL     1      -1.762  11.536  22.608  0.00  0.00    +0.000 A 
ATOM      9  C   UNL     1      -0.931  10.512  23.028  0.00  0.00    +0.000 A 
ATOM     10  N   UNL     1      -0.045   9.885  22.217  0.00  0.00    +0.000 NA
ATOM     11  C   UNL     1       0.044  10.311  20.919  0.00  0.00    +0.000 A 
ATOM     12  C   UNL     1       0.871   9.712  19.955  0.00  0.00    +0.000 A 
ATOM     13  N   UNL     1       1.681   8.605  20.348  0.00  0.00    +0.000 N 
ATOM     14  N   UNL     1       0.978  10.169  18.687  0.00  0.00    +0.000 NA
ATOM     15  C   UNL     1       0.218  11.213  18.357  0.00  0.00    +0.000 A 
ATOM     16  N   UNL     1      -0.651  11.831  19.164  0.00  0.00    +0.000 NA
ATOM     17  C   UNL     1      -0.730  11.370  20.421  0.00  0.00    +0.000 A 
ATOM     18  C   UNL     1      -1.642  11.959  21.284  0.00  0.00    +0.000 A 
ATOM     19  H   UNL     1       1.342   8.269  21.252  0.00  0.00    +0.000 HD
BRANCH   8  21
ATOM     20  N   UNL     1      -3.511  12.597  24.198  0.00  0.00    +0.000 NA
ATOM     21  C   UNL     1      -2.719  12.119  23.493  0.00  0.00    +0.000 C 
ENDBRANCH   8  21
ENDBRANCH   1  13
BRANCH   6  22
ATOM     22  C   UNL     1       1.801   3.626  19.396  0.00  0.00    +0.000 C 
ATOM     23  N   UNL     1       2.976   2.751  19.172  0.00  0.00    +0.000 NA
ATOM     24  C   UNL     1       3.812   2.581  20.132  0.00  0.00    +0.000 C 
ATOM     25  N   UNL     1       5.009   1.977  19.954  0.00  0.00    +0.000 N 
ATOM     26  O   UNL     1       3.631   2.937  21.426  0.00  0.00    +0.000 OA
ATOM     27  C   UNL     1       2.305   3.237  21.884  0.00  0.00    +0.000 C 
ATOM     28  C   UNL     1       1.246   2.212  21.578  0.00  0.00    +0.000 C 
ATOM     29  C   UNL     1       1.301   3.528  20.824  0.00  0.00    +0.000 C 
ATOM     30  H   UNL     1       5.047   1.394  19.130  0.00  0.00    +0.000 HD
ATOM     31  H   UNL     1       5.403   1.577  20.793  0.00  0.00    +0.000 HD
BRANCH  22  32
ATOM     32  C   UNL     1       0.673   3.145  18.438  0.00  0.00    +0.000 C 
ATOM     33  F   UNL     1       0.480   1.798  18.553  0.00  0.00    +0.000 F 
ENDBRANCH  22  32
ENDBRANCH   6  22
TORSDOF 4
ENDMDL
MODEL 2
REMARK VINA RESULT:      -8.4      2.721      3.920
REMARK  Name = 
REMARK  4 active torsions:
REMARK  status: ('A' for Active; 'I' for Inactive)
REMARK    1  A    between atoms: C_2  and  C_3
REMARK    2  A    between atoms: N_8  and  C_9
REMARK    3  A    between atoms: C_14  and  C_15
REMARK    4  A    between atoms: C_15  and  C_16
REMARK                            x       y       z     vdW  Elec       q    Type
REMARK                         _______ _______ _______ _____ _____    ______ ____
ROOT
ATOM      1  C   UNL     1       2.687   6.375  19.475  0.00  0.00    +0.000 A 
ATOM      2  C   UNL     1       1.804   5.295  19.494  0.00  0.00    +0.000 A 
ATOM      3  C   UNL     1       2.040   4.168  18.704  0.00  0.00    +0.000 A 
ATOM      4  C   UNL     1       3.153   4.123  17.865  0.00  0.00    +0.000 A 
ATOM      5  F   UNL     1       3.307   3.038  17.094  0.00  0.00    +0.000 F 
ATOM      6  C   UNL     1       4.063   5.183  17.789  0.00  0.00    +0.000 A 
ATOM      7  C   UNL     1       3.794   6.311  18.608  0.00  0.00    +0.000 A 
ENDROOT
BRANCH   1  13
ATOM      8  C   UNL     1      -0.940  10.810  22.201  0.00  0.00    +0.000 A 
ATOM      9  C   UNL     1      -0.193   9.759  22.705  0.00  0.00    +0.000 A 
ATOM     10  N   UNL     1       0.672   9.029  21.961  0.00  0.00    +0.000 NA
ATOM     11  C   UNL     1       0.828   9.373  20.645  0.00  0.00    +0.000 A 
ATOM     12  C   UNL     1       1.641   8.667  19.744  0.00  0.00    +0.000 A 
ATOM     13  N   UNL     1       2.362   7.532  20.225  0.00  0.00    +0.000 N 
ATOM     14  N   UNL     1       1.818   9.042  18.457  0.00  0.00    +0.000 NA
ATOM     15  C   UNL     1       1.142  10.114  18.045  0.00  0.00    +0.000 A 
ATOM     16  N   UNL     1       0.292  10.833  18.786  0.00  0.00    +0.000 NA
ATOM     17  C   UNL     1       0.145  10.451  20.063  0.00  0.00    +0.000 A 
ATOM     18  C   UNL     1      -0.751  11.147  20.861  0.00  0.00    +0.000 A 
ATOM     19  H   UNL     1       1.973   7.271  21.134  0.00  0.00    +0.000 HD
BRANCH   8  21
ATOM     20  N   UNL     1      -2.657  12.053  23.691  0.00  0.00    +0.000 NA
ATOM     21  C   UNL     1      -1.882  11.505  23.020  0.00  0.00    +0.000 C 
ENDBRANCH   8  21
ENDBRANCH   1  13
BRANCH   6  22
ATOM     22  C   UNL     1       5.258   5.162  16.804  0.00  0.00    +0.000 C 
ATOM     23  N   UNL     1       5.727   6.547  16.559  0.00  0.00    +0.000 NA
ATOM     24  C   UNL     1       6.624   7.042  17.333  0.00  0.00    +0.000 C 
ATOM     25  N   UNL     1       6.955   8.353  17.315  0.00  0.00    +0.000 N 
ATOM     26  O   UNL     1       7.371   6.361  18.234  0.00  0.00    +0.000 OA
ATOM     27  C   UNL     1       7.440   4.931  18.139  0.00  0.00    +0.000 C 
ATOM     28  C   UNL     1       7.796   4.369  16.788  0.00  0.00    +0.000 C 
ATOM     29  C   UNL     1       6.378   4.281  17.322  0.00  0.00    +0.000 C 
ATOM     30  H   UNL     1       6.703   8.819  16.455  0.00  0.00    +0.000 HD
ATOM     31  H   UNL     1       7.879   8.554  17.669  0.00  0.00    +0.000 HD
BRANCH  22  32
ATOM     32  C   UNL     1       4.762   4.591  15.445  0.00  0.00    +0.000 C 
ATOM     33  F   UNL     1       5.540   5.039  14.416  0.00  0.00    +0.000 F 
ENDBRANCH  22  32
ENDBRANCH   6  22
TORSDOF 4
ENDMDL
MODEL 3
REMARK VINA RESULT:      -8.3      2.239      3.298
REMARK  Name = 
REMARK  4 active torsions:
REMARK  status: ('A' for Active; 'I' for Inactive)
REMARK    1  A    between atoms: C_2  and  C_3
REMARK    2  A    between atoms: N_8  and  C_9
REMARK    3  A    between atoms: C_14  and  C_15
REMARK    4  A    between atoms: C_15  and  C_16
REMARK                            x       y       z     vdW  Elec       q    Type
REMARK                         _______ _______ _______ _____ _____    ______ ____
ROOT
ATOM      1  C   UNL     1       1.946   5.839  20.548  0.00  0.00    +0.000 A 
ATOM      2  C   UNL     1       0.816   5.053  20.310  0.00  0.00    +0.000 A 
ATOM      3  C   UNL     1       0.928   3.828  19.651  0.00  0.00    +0.000 A 
ATOM      4  C   UNL     1       2.171   3.389  19.197  0.00  0.00    +0.000 A 
ATOM      5  F   UNL     1       2.215   2.228  18.529  0.00  0.00    +0.000 F 
ATOM      6  C   UNL     1       3.335   4.142  19.389  0.00  0.00    +0.000 A 
ATOM      7  C   UNL     1       3.185   5.380  20.066  0.00  0.00    +0.000 A 
ENDROOT
BRANCH   1  13
ATOM      8  C   UNL     1      -1.018  11.145  22.372  0.00  0.00    +0.000 A 
ATOM      9  C   UNL     1      -0.551  10.039  23.061  0.00  0.00    +0.000 A 
ATOM     10  N   UNL     1       0.230   9.083  22.503  0.00  0.00    +0.000 NA
ATOM     11  C   UNL     1       0.594   9.240  21.192  0.00  0.00    +0.000 A 
ATOM     12  C   UNL     1       1.346   8.299  20.472  0.00  0.00    +0.000 A 
ATOM     13  N   UNL     1       1.773   7.114  21.142  0.00  0.00    +0.000 N 
ATOM     14  N   UNL     1       1.732   8.487  19.190  0.00  0.00    +0.000 NA
ATOM     15  C   UNL     1       1.328   9.611  18.598  0.00  0.00    +0.000 A 
ATOM     16  N   UNL     1       0.560  10.554  19.156  0.00  0.00    +0.000 NA
ATOM     17  C   UNL     1       0.202  10.353  20.432  0.00  0.00    +0.000 A 
ATOM     18  C   UNL     1      -0.621  11.288  21.042  0.00  0.00    +0.000 A 
ATOM     19  H   UNL     1       1.244   7.034  22.013  0.00  0.00    +0.000 HD
BRANCH   8  21
ATOM     20  N   UNL     1      -2.613  12.851  23.493  0.00  0.00    +0.000 NA
ATOM     21  C   UNL     1      -1.889  12.090  22.996  0.00  0.00    +0.000 C 
ENDBRANCH   8  21
ENDBRANCH   1  13
BRANCH   6  22
ATOM     22  C   UNL     1       4.703   3.687  18.822  0.00  0.00    +0.000 C 
ATOM     23  N   UNL     1       4.596   3.498  17.355  0.00  0.00    +0.000 NA
ATOM     24  C   UNL     1       4.829   4.498  16.585  0.00  0.00    +0.000 C 
ATOM     25  N   UNL     1       4.554   4.474  15.260  0.00  0.00    +0.000 N 
ATOM     26  O   UNL     1       5.386   5.677  16.947  0.00  0.00    +0.000 OA
ATOM     27  C   UNL     1       6.084   5.760  18.198  0.00  0.00    +0.000 C 
ATOM     28  C   UNL     1       7.129   4.706  18.449  0.00  0.00    +0.000 C 
ATOM     29  C   UNL     1       5.797   4.674  19.175  0.00  0.00    +0.000 C 
ATOM     30  H   UNL     1       4.479   3.540  14.883  0.00  0.00    +0.000 HD
ATOM     31  H   UNL     1       5.093   5.128  14.711  0.00  0.00    +0.000 HD
BRANCH  22  32
ATOM     32  C   UNL     1       5.055   2.306  19.445  0.00  0.00    +0.000 C 
ATOM     33  F   UNL     1       4.655   2.247  20.750  0.00  0.00    +0.000 F 
ENDBRANCH  22  32
ENDBRANCH   6  22
TORSDOF 4
ENDMDL
MODEL 4
REMARK VINA RESULT:      -8.3      3.321      4.930
REMARK  Name = 
REMARK  4 active torsions:
REMARK  status: ('A' for Active; 'I' for Inactive)
REMARK    1  A    between atoms: C_2  and  C_3
REMARK    2  A    between atoms: N_8  and  C_9
REMARK    3  A    between atoms: C_14  and  C_15
REMARK    4  A    between atoms: C_15  and  C_16
REMARK                            x       y       z     vdW  Elec       q    Type
REMARK                         _______ _______ _______ _____ _____    ______ ____
ROOT
ATOM      1  C   UNL     1       2.552   7.861  17.973  0.00  0.00    +0.000 A 
ATOM      2  C   UNL     1       1.727   6.840  18.447  0.00  0.00    +0.000 A 
ATOM      3  C   UNL     1       2.152   5.510  18.417  0.00  0.00    +0.000 A 
ATOM      4  C   UNL     1       3.399   5.186  17.885  0.00  0.00    +0.000 A 
ATOM      5  F   UNL     1       3.738   3.891  17.838  0.00  0.00    +0.000 F 
ATOM      6  C   UNL     1       4.261   6.165  17.377  0.00  0.00    +0.000 A 
ATOM      7  C   UNL     1       3.799   7.506  17.427  0.00  0.00    +0.000 A 
ENDROOT
BRANCH   1  13
ATOM      8  C   UNL     1       2.135  14.049  19.309  0.00  0.00    +0.000 A 
ATOM      9  C   UNL     1       2.513  13.351  18.176  0.00  0.00    +0.000 A 
ATOM     10  N   UNL     1       2.355  12.014  18.031  0.00  0.00    +0.000 NA
ATOM     11  C   UNL     1       1.763  11.327  19.058  0.00  0.00    +0.000 A 
ATOM     12  C   UNL     1       1.593   9.934  19.070  0.00  0.00    +0.000 A 
ATOM     13  N   UNL     1       2.045   9.184  17.942  0.00  0.00    +0.000 N 
ATOM     14  N   UNL     1       0.971   9.273  20.072  0.00  0.00    +0.000 NA
ATOM     15  C   UNL     1       0.548  10.005  21.103  0.00  0.00    +0.000 A 
ATOM     16  N   UNL     1       0.704  11.326  21.238  0.00  0.00    +0.000 NA
ATOM     17  C   UNL     1       1.310  11.962  20.224  0.00  0.00    +0.000 A 
ATOM     18  C   UNL     1       1.524  13.328  20.335  0.00  0.00    +0.000 A 
ATOM     19  H   UNL     1       2.654   9.787  17.384  0.00  0.00    +0.000 HD
BRANCH   8  21
ATOM     20  N   UNL     1       2.591  16.592  19.508  0.00  0.00    +0.000 NA
ATOM     21  C   UNL     1       2.383  15.451  19.430  0.00  0.00    +0.000 C 
ENDBRANCH   8  21
ENDBRANCH   1  13
BRANCH   6  22
ATOM     22  C   UNL     1       5.616   5.796  16.721  0.00  0.00    +0.000 C 
ATOM     23  N   UNL     1       6.432   7.021  16.544  0.00  0.00    +0.000 NA
ATOM     24  C   UNL     1       7.213   7.386  17.495  0.00  0.00    +0.000 C 
ATOM     25  N   UNL     1       7.830   8.590  17.506  0.00  0.00    +0.000 N 
ATOM     26  O   UNL     1       7.554   6.652  18.580  0.00  0.00    +0.000 OA
ATOM     27  C   UNL     1       7.314   5.237  18.564  0.00  0.00    +0.000 C 
ATOM     28  C   UNL     1       7.836   4.487  17.368  0.00  0.00    +0.000 C 
ATOM     29  C   UNL     1       6.352   4.753  17.537  0.00  0.00    +0.000 C 
ATOM     30  H   UNL     1       7.899   9.014  16.592  0.00  0.00    +0.000 HD
ATOM     31  H   UNL     1       8.667   8.624  18.070  0.00  0.00    +0.000 HD
BRANCH  22  32
ATOM     32  C   UNL     1       5.331   5.216  15.306  0.00  0.00    +0.000 C 
ATOM     33  F   UNL     1       5.148   3.864  15.364  0.00  0.00    +0.000 F 
ENDBRANCH  22  32
ENDBRANCH   6  22
TORSDOF 4
ENDMDL
MODEL 5
REMARK VINA RESULT:      -8.3      3.055      4.638
REMARK  Name = 
REMARK  4 active torsions:
REMARK  status: ('A' for Active; 'I' for Inactive)
REMARK    1  A    between atoms: C_2  and  C_3
REMARK    2  A    between atoms: N_8  and  C_9
REMARK    3  A    between atoms: C_14  and  C_15
REMARK    4  A    between atoms: C_15  and  C_16
REMARK                            x       y       z     vdW  Elec       q    Type
REMARK                         _______ _______ _______ _____ _____    ______ ____
ROOT
ATOM      1  C   UNL     1       2.469   7.323  19.065  0.00  0.00    +0.000 A 
ATOM      2  C   UNL     1       2.110   6.331  19.979  0.00  0.00    +0.000 A 
ATOM      3  C   UNL     1       2.830   5.138  20.053  0.00  0.00    +0.000 A 
ATOM      4  C   UNL     1       3.904   4.914  19.191  0.00  0.00    +0.000 A 
ATOM      5  F   UNL     1       4.532   3.733  19.274  0.00  0.00    +0.000 F 
ATOM      6  C   UNL     1       4.297   5.864  18.242  0.00  0.00    +0.000 A 
ATOM      7  C   UNL     1       3.546   7.067  18.197  0.00  0.00    +0.000 A 
ENDROOT
BRANCH   1  13
ATOM      8  C   UNL     1       0.754  13.399  19.699  0.00  0.00    +0.000 A 
ATOM      9  C   UNL     1       1.125  12.631  18.609  0.00  0.00    +0.000 A 
ATOM     10  N   UNL     1       1.278  11.286  18.657  0.00  0.00    +0.000 NA
ATOM     11  C   UNL     1       1.023  10.657  19.846  0.00  0.00    +0.000 A 
ATOM     12  C   UNL     1       1.200   9.281  20.055  0.00  0.00    +0.000 A 
ATOM     13  N   UNL     1       1.656   8.481  18.965  0.00  0.00    +0.000 N 
ATOM     14  N   UNL     1       0.906   8.666  21.223  0.00  0.00    +0.000 NA
ATOM     15  C   UNL     1       0.469   9.440  22.216  0.00  0.00    +0.000 A 
ATOM     16  N   UNL     1       0.317  10.768  22.162  0.00  0.00    +0.000 NA
ATOM     17  C   UNL     1       0.600  11.353  20.989  0.00  0.00    +0.000 A 
ATOM     18  C   UNL     1       0.488  12.732  20.895  0.00  0.00    +0.000 A 
ATOM     19  H   UNL     1       2.014   9.107  18.240  0.00  0.00    +0.000 HD
BRANCH   8  21
ATOM     20  N   UNL     1       0.613  15.980  19.514  0.00  0.00    +0.000 NA
ATOM     21  C   UNL     1       0.667  14.822  19.604  0.00  0.00    +0.000 C 
ENDBRANCH   8  21
ENDBRANCH   1  13
BRANCH   6  22
ATOM     22  C   UNL     1       5.444   5.585  17.238  0.00  0.00    +0.000 C 
ATOM     23  N   UNL     1       6.086   6.863  16.848  0.00  0.00    +0.000 NA
ATOM     24  C   UNL     1       7.068   7.301  17.549  0.00  0.00    +0.000 C 
ATOM     25  N   UNL     1       7.572   8.547  17.394  0.00  0.00    +0.000 N 
ATOM     26  O   UNL     1       7.747   6.612  18.496  0.00  0.00    +0.000 OA
ATOM     27  C   UNL     1       7.620   5.184  18.541  0.00  0.00    +0.000 C 
ATOM     28  C   UNL     1       7.849   4.453  17.245  0.00  0.00    +0.000 C 
ATOM     29  C   UNL     1       6.452   4.612  17.816  0.00  0.00    +0.000 C 
ATOM     30  H   UNL     1       7.356   8.959  16.498  0.00  0.00    +0.000 HD
ATOM     31  H   UNL     1       8.527   8.652  17.707  0.00  0.00    +0.000 HD
BRANCH  22  32
ATOM     32  C   UNL     1       4.828   4.961  15.954  0.00  0.00    +0.000 C 
ATOM     33  F   UNL     1       5.201   5.666  14.845  0.00  0.00    +0.000 F 
ENDBRANCH  22  32
ENDBRANCH   6  22
TORSDOF 4
ENDMDL
MODEL 6
REMARK VINA RESULT:      -8.3      2.982      4.320
REMARK  Name = 
REMARK  4 active torsions:
REMARK  status: ('A' for Active; 'I' for Inactive)
REMARK    1  A    between atoms: C_2  and  C_3
REMARK    2  A    between atoms: N_8  and  C_9
REMARK    3  A    between atoms: C_14  and  C_15
REMARK    4  A    between atoms: C_15  and  C_16
REMARK                            x       y       z     vdW  Elec       q    Type
REMARK                         _______ _______ _______ _____ _____    ______ ____
ROOT
ATOM      1  C   UNL     1       1.793   8.935  19.197  0.00  0.00    +0.000 A 
ATOM      2  C   UNL     1       1.162   8.746  20.428  0.00  0.00    +0.000 A 
ATOM      3  C   UNL     1       1.184   7.499  21.054  0.00  0.00    +0.000 A 
ATOM      4  C   UNL     1       1.815   6.418  20.440  0.00  0.00    +0.000 A 
ATOM      5  F   UNL     1       1.767   5.233  21.063  0.00  0.00    +0.000 F 
ATOM      6  C   UNL     1       2.447   6.542  19.198  0.00  0.00    +0.000 A 
ATOM      7  C   UNL     1       2.410   7.825  18.591  0.00  0.00    +0.000 A 
ENDROOT
BRANCH   1  13
ATOM      8  C   UNL     1       1.445  15.243  18.607  0.00  0.00    +0.000 A 
ATOM      9  C   UNL     1       2.423  14.317  18.288  0.00  0.00    +0.000 A 
ATOM     10  N   UNL     1       2.227  12.977  18.323  0.00  0.00    +0.000 NA
ATOM     11  C   UNL     1       0.982  12.524  18.670  0.00  0.00    +0.000 A 
ATOM     12  C   UNL     1       0.656  11.165  18.807  0.00  0.00    +0.000 A 
ATOM     13  N   UNL     1       1.671  10.194  18.557  0.00  0.00    +0.000 N 
ATOM     14  N   UNL     1      -0.588  10.731  19.110  0.00  0.00    +0.000 NA
ATOM     15  C   UNL     1      -1.516  11.663  19.323  0.00  0.00    +0.000 A 
ATOM     16  N   UNL     1      -1.317  12.985  19.283  0.00  0.00    +0.000 NA
ATOM     17  C   UNL     1      -0.079  13.392  18.965  0.00  0.00    +0.000 A 
ATOM     18  C   UNL     1       0.183  14.754  18.944  0.00  0.00    +0.000 A 
ATOM     19  H   UNL     1       2.573  10.675  18.539  0.00  0.00    +0.000 HD
BRANCH   8  21
ATOM     20  N   UNL     1       1.970  17.780  18.629  0.00  0.00    +0.000 NA
ATOM     21  C   UNL     1       1.728  16.643  18.610  0.00  0.00    +0.000 C 
ENDBRANCH   8  21
ENDBRANCH   1  13
BRANCH   6  22
ATOM     22  C   UNL     1       3.086   5.325  18.483  0.00  0.00    +0.000 C 
ATOM     23  N   UNL     1       3.673   5.756  17.192  0.00  0.00    +0.000 NA
ATOM     24  C   UNL     1       4.891   6.162  17.171  0.00  0.00    +0.000 C 
ATOM     25  N   UNL     1       5.437   6.765  16.091  0.00  0.00    +0.000 N 
ATOM     26  O   UNL     1       5.796   6.034  18.170  0.00  0.00    +0.000 OA
ATOM     27  C   UNL     1       5.533   5.104  19.230  0.00  0.00    +0.000 C 
ATOM     28  C   UNL     1       5.167   3.704  18.814  0.00  0.00    +0.000 C 
ATOM     29  C   UNL     1       4.120   4.654  19.365  0.00  0.00    +0.000 C 
ATOM     30  H   UNL     1       4.945   6.571  15.231  0.00  0.00    +0.000 HD
ATOM     31  H   UNL     1       6.444   6.704  16.044  0.00  0.00    +0.000 HD
BRANCH  22  32
ATOM     32  C   UNL     1       1.960   4.300  18.164  0.00  0.00    +0.000 C 
ATOM     33  F   UNL     1       1.050   4.833  17.297  0.00  0.00    +0.000 F 
ENDBRANCH  22  32
ENDBRANCH   6  22
TORSDOF 4
ENDMDL
MODEL 7
REMARK VINA RESULT:      -8.3      2.111      3.052
REMARK  Name = 
REMARK  4 active torsions:
REMARK  status: ('A' for Active; 'I' for Inactive)
REMARK    1  A    between atoms: C_2  and  C_3
REMARK    2  A    between atoms: N_8  and  C_9
REMARK    3  A    between atoms: C_14  and  C_15
REMARK    4  A    between atoms: C_15  and  C_16
REMARK                            x       y       z     vdW  Elec       q    Type
REMARK                         _______ _______ _______ _____ _____    ______ ____
ROOT
ATOM      1  C   UNL     1       2.656   7.233  18.103  0.00  0.00    +0.000 A 
ATOM      2  C   UNL     1       3.982   7.519  17.771  0.00  0.00    +0.000 A 
ATOM      3  C   UNL     1       4.920   6.493  17.642  0.00  0.00    +0.000 A 
ATOM      4  C   UNL     1       4.546   5.170  17.872  0.00  0.00    +0.000 A 
ATOM      5  F   UNL     1       5.496   4.230  17.781  0.00  0.00    +0.000 F 
ATOM      6  C   UNL     1       3.237   4.824  18.227  0.00  0.00    +0.000 A 
ATOM      7  C   UNL     1       2.308   5.891  18.345  0.00  0.00    +0.000 A 
ENDROOT
BRANCH   1  13
ATOM      8  C   UNL     1       0.673  13.010  19.820  0.00  0.00    +0.000 A 
ATOM      9  C   UNL     1       0.871  12.406  18.590  0.00  0.00    +0.000 A 
ATOM     10  N   UNL     1       1.126  11.084  18.437  0.00  0.00    +0.000 NA
ATOM     11  C   UNL     1       1.163  10.307  19.564  0.00  0.00    +0.000 A 
ATOM     12  C   UNL     1       1.477   8.939  19.558  0.00  0.00    +0.000 A 
ATOM     13  N   UNL     1       1.759   8.311  18.308  0.00  0.00    +0.000 N 
ATOM     14  N   UNL     1       1.470   8.174  20.674  0.00  0.00    +0.000 NA
ATOM     15  C   UNL     1       1.188   8.789  21.822  0.00  0.00    +0.000 A 
ATOM     16  N   UNL     1       0.933  10.094  21.967  0.00  0.00    +0.000 NA
ATOM     17  C   UNL     1       0.930  10.829  20.845  0.00  0.00    +0.000 A 
ATOM     18  C   UNL     1       0.703  12.193  20.950  0.00  0.00    +0.000 A 
ATOM     19  H   UNL     1       1.917   9.044  17.613  0.00  0.00    +0.000 HD
BRANCH   8  21
ATOM     20  N   UNL     1       0.320  15.570  20.016  0.00  0.00    +0.000 NA
ATOM     21  C   UNL     1       0.467  14.420  19.925  0.00  0.00    +0.000 C 
ENDBRANCH   8  21
ENDBRANCH   1  13
BRANCH   6  22
ATOM     22  C   UNL     1       2.840   3.363  18.552  0.00  0.00    +0.000 C 
ATOM     23  N   UNL     1       3.120   3.075  19.979  0.00  0.00    +0.000 NA
ATOM     24  C   UNL     1       2.206   3.312  20.848  0.00  0.00    +0.000 C 
ATOM     25  N   UNL     1       2.444   3.279  22.180  0.00  0.00    +0.000 N 
ATOM     26  O   UNL     1       0.907   3.594  20.590  0.00  0.00    +0.000 OA
ATOM     27  C   UNL     1       0.380   3.306  19.287  0.00  0.00    +0.000 C 
ATOM     28  C   UNL     1       0.620   1.915  18.763  0.00  0.00    +0.000 C 
ATOM     29  C   UNL     1       1.387   3.102  18.209  0.00  0.00    +0.000 C 
ATOM     30  H   UNL     1       3.264   2.745  22.428  0.00  0.00    +0.000 HD
ATOM     31  H   UNL     1       1.623   3.114  22.745  0.00  0.00    +0.000 HD
BRANCH  22  32
ATOM     32  C   UNL     1       3.732   2.414  17.701  0.00  0.00    +0.000 C 
ATOM     33  F   UNL     1       3.727   1.150  18.219  0.00  0.00    +0.000 F 
ENDBRANCH  22  32
ENDBRANCH   6  22
TORSDOF 4
ENDMDL
MODEL 8
REMARK VINA RESULT:      -8.2      2.530      3.864
REMARK  Name = 
REMARK  4 active torsions:
REMARK  status: ('A' for Active; 'I' for Inactive)
REMARK    1  A    between atoms: C_2  and  C_3
REMARK    2  A    between atoms: N_8  and  C_9
REMARK    3  A    between atoms: C_14  and  C_15
REMARK    4  A    between atoms: C_15  and  C_16
REMARK                            x       y       z     vdW  Elec       q    Type
REMARK                         _______ _______ _______ _____ _____    ______ ____
ROOT
ATOM      1  C   UNL     1       1.995   8.216  19.152  0.00  0.00    +0.000 A 
ATOM      2  C   UNL     1       1.526   8.129  20.463  0.00  0.00    +0.000 A 
ATOM      3  C   UNL     1       1.477   6.898  21.121  0.00  0.00    +0.000 A 
ATOM      4  C   UNL     1       1.872   5.735  20.460  0.00  0.00    +0.000 A 
ATOM      5  F   UNL     1       1.762   4.575  21.122  0.00  0.00    +0.000 F 
ATOM      6  C   UNL     1       2.333   5.759  19.139  0.00  0.00    +0.000 A 
ATOM      7  C   UNL     1       2.374   7.027  18.502  0.00  0.00    +0.000 A 
ENDROOT
BRANCH   1  13
ATOM      8  C   UNL     1       1.967  14.525  18.479  0.00  0.00    +0.000 A 
ATOM      9  C   UNL     1       2.903  13.548  18.187  0.00  0.00    +0.000 A 
ATOM     10  N   UNL     1       2.640  12.220  18.236  0.00  0.00    +0.000 NA
ATOM     11  C   UNL     1       1.370  11.833  18.568  0.00  0.00    +0.000 A 
ATOM     12  C   UNL     1       0.975  10.494  18.716  0.00  0.00    +0.000 A 
ATOM     13  N   UNL     1       1.945   9.471  18.495  0.00  0.00    +0.000 N 
ATOM     14  N   UNL     1      -0.294  10.125  19.005  0.00  0.00    +0.000 NA
ATOM     15  C   UNL     1      -1.177  11.105  19.192  0.00  0.00    +0.000 A 
ATOM     16  N   UNL     1      -0.913  12.415  19.139  0.00  0.00    +0.000 NA
ATOM     17  C   UNL     1       0.348  12.756  18.836  0.00  0.00    +0.000 A 
ATOM     18  C   UNL     1       0.677  14.103  18.802  0.00  0.00    +0.000 A 
ATOM     19  H   UNL     1       2.870   9.906  18.486  0.00  0.00    +0.000 HD
BRANCH   8  21
ATOM     20  N   UNL     1       2.603  17.037  18.442  0.00  0.00    +0.000 NA
ATOM     21  C   UNL     1       2.318  15.910  18.470  0.00  0.00    +0.000 C 
ENDBRANCH   8  21
ENDBRANCH   1  13
BRANCH   6  22
ATOM     22  C   UNL     1       2.705   4.458  18.383  0.00  0.00    +0.000 C 
ATOM     23  N   UNL     1       3.809   4.733  17.433  0.00  0.00    +0.000 NA
ATOM     24  C   UNL     1       5.020   4.611  17.841  0.00  0.00    +0.000 C 
ATOM     25  N   UNL     1       6.078   5.039  17.114  0.00  0.00    +0.000 N 
ATOM     26  O   UNL     1       5.422   4.037  18.999  0.00  0.00    +0.000 OA
ATOM     27  C   UNL     1       4.503   3.199  19.714  0.00  0.00    +0.000 C 
ATOM     28  C   UNL     1       3.834   2.112  18.917  0.00  0.00    +0.000 C 
ATOM     29  C   UNL     1       3.068   3.349  19.349  0.00  0.00    +0.000 C 
ATOM     30  H   UNL     1       5.874   5.141  16.130  0.00  0.00    +0.000 HD
ATOM     31  H   UNL     1       6.950   4.581  17.337  0.00  0.00    +0.000 HD
BRANCH  22  32
ATOM     32  C   UNL     1       1.472   4.010  17.548  0.00  0.00    +0.000 C 
ATOM     33  F   UNL     1       0.712   3.115  18.246  0.00  0.00    +0.000 F 
ENDBRANCH  22  32
ENDBRANCH   6  22
TORSDOF 4
ENDMDL
MODEL 9
REMARK VINA RESULT:      -8.1      2.488      3.617
REMARK  Name = 
REMARK  4 active torsions:
REMARK  status: ('A' for Active; 'I' for Inactive)
REMARK    1  A    between atoms: C_2  and  C_3
REMARK    2  A    between atoms: N_8  and  C_9
REMARK    3  A    between atoms: C_14  and  C_15
REMARK    4  A    between atoms: C_15  and  C_16
REMARK                            x       y       z     vdW  Elec       q    Type
REMARK                         _______ _______ _______ _____ _____    ______ ____
ROOT
ATOM      1  C   UNL     1       2.302   6.016  20.095  0.00  0.00    +0.000 A 
ATOM      2  C   UNL     1       1.293   5.052  20.127  0.00  0.00    +0.000 A 
ATOM      3  C   UNL     1       1.437   3.848  19.436  0.00  0.00    +0.000 A 
ATOM      4  C   UNL     1       2.584   3.608  18.680  0.00  0.00    +0.000 A 
ATOM      5  F   UNL     1       2.651   2.456  17.999  0.00  0.00    +0.000 F 
ATOM      6  C   UNL     1       3.620   4.544  18.594  0.00  0.00    +0.000 A 
ATOM      7  C   UNL     1       3.442   5.756  19.313  0.00  0.00    +0.000 A 
ENDROOT
BRANCH   1  13
ATOM      8  C   UNL     1      -0.922  11.013  22.307  0.00  0.00    +0.000 A 
ATOM      9  C   UNL     1      -0.314   9.933  22.923  0.00  0.00    +0.000 A 
ATOM     10  N   UNL     1       0.494   9.059  22.277  0.00  0.00    +0.000 NA
ATOM     11  C   UNL     1       0.737   9.277  20.947  0.00  0.00    +0.000 A 
ATOM     12  C   UNL     1       1.502   8.419  20.141  0.00  0.00    +0.000 A 
ATOM     13  N   UNL     1       2.076   7.258  20.740  0.00  0.00    +0.000 N 
ATOM     14  N   UNL     1       1.766   8.669  18.839  0.00  0.00    +0.000 NA
ATOM     15  C   UNL     1       1.227   9.769  18.316  0.00  0.00    +0.000 A 
ATOM     16  N   UNL     1       0.433  10.631  18.960  0.00  0.00    +0.000 NA
ATOM     17  C   UNL     1       0.197  10.371  20.254  0.00  0.00    +0.000 A 
ATOM     18  C   UNL     1      -0.648  11.220  20.955  0.00  0.00    +0.000 A 
ATOM     19  H   UNL     1       1.628   7.113  21.647  0.00  0.00    +0.000 HD
BRANCH   8  21
ATOM     20  N   UNL     1      -2.529  12.579  23.603  0.00  0.00    +0.000 NA
ATOM     21  C   UNL     1      -1.813  11.867  23.026  0.00  0.00    +0.000 C 
ENDBRANCH   8  21
ENDBRANCH   1  13
BRANCH   6  22
ATOM     22  C   UNL     1       4.861   4.307  17.698  0.00  0.00    +0.000 C 
ATOM     23  N   UNL     1       4.744   5.114  16.461  0.00  0.00    +0.000 NA
ATOM     24  C   UNL     1       5.212   6.310  16.457  0.00  0.00    +0.000 C 
ATOM     25  N   UNL     1       4.965   7.183  15.453  0.00  0.00    +0.000 N 
ATOM     26  O   UNL     1       6.014   6.861  17.399  0.00  0.00    +0.000 OA
ATOM     27  C   UNL     1       6.686   6.000  18.328  0.00  0.00    +0.000 C 
ATOM     28  C   UNL     1       7.462   4.854  17.733  0.00  0.00    +0.000 C 
ATOM     29  C   UNL     1       6.142   4.619  18.445  0.00  0.00    +0.000 C 
ATOM     30  H   UNL     1       4.689   6.736  14.591  0.00  0.00    +0.000 HD
ATOM     31  H   UNL     1       5.649   7.921  15.366  0.00  0.00    +0.000 HD
BRANCH  22  32
ATOM     32  C   UNL     1       4.880   2.809  17.277  0.00  0.00    +0.000 C 
ATOM     33  F   UNL     1       5.442   2.660  16.042  0.00  0.00    +0.000 F 
ENDBRANCH  22  32
ENDBRANCH   6  22
TORSDOF 4
ENDMDL
