MODEL 1
REMARK VINA RESULT:      -8.8      0.000      0.000
REMARK  Name = 
REMARK  8 active torsions:
REMARK  status: ('A' for Active; 'I' for Inactive)
REMARK    1  A    between atoms: C_7  and  C_8
REMARK    2  A    between atoms: C_11  and  O_12
REMARK    3  A    between atoms: O_12  and  C_13
REMARK    4  A    between atoms: C_13  and  C_14
REMARK    5  A    between atoms: C_21  and  O_22
REMARK    6  A    between atoms: O_22  and  C_23
REMARK    7  A    between atoms: C_23  and  C_24
REMARK    8  A    between atoms: C_27  and  C_28
REMARK                            x       y       z     vdW  Elec       q    Type
REMARK                         _______ _______ _______ _____ _____    ______ ____
ROOT
ATOM      1  C   UNL     1       4.852   5.228  17.291  0.00  0.00    +0.000 A 
ATOM      2  C   UNL     1       6.217   4.925  17.186  0.00  0.00    +0.000 A 
ATOM      3  C   UNL     1       7.166   5.946  17.142  0.00  0.00    +0.000 A 
ATOM      4  C   UNL     1       6.758   7.272  17.250  0.00  0.00    +0.000 A 
ATOM      5  C   UNL     1       5.402   7.578  17.344  0.00  0.00    +0.000 A 
ATOM      6  C   UNL     1       4.432   6.570  17.330  0.00  0.00    +0.000 A 
ENDROOT
BRANCH   1  13
ATOM      7  O   UNL     1       2.749   2.571  21.913  0.00  0.00    +0.000 OA
ATOM      8  C   UNL     1       2.735   2.852  20.727  0.00  0.00    +0.000 C 
ATOM      9  N   UNL     1       2.213   2.085  19.737  0.00  0.00    +0.000 N 
ATOM     10  C   UNL     1       2.471   2.447  18.449  0.00  0.00    +0.000 C 
ATOM     11  O   UNL     1       2.129   1.816  17.461  0.00  0.00    +0.000 OA
ATOM     12  C   UNL     1       3.283   3.692  18.444  0.00  0.00    +0.000 C 
ATOM     13  C   UNL     1       3.892   4.122  17.334  0.00  0.00    +0.000 C 
ATOM     14  S   UNL     1       3.436   4.303  20.048  0.00  0.00    +0.000 S 
ATOM     15  H   UNL     1       1.794   1.193  19.944  0.00  0.00    +0.000 HD
ENDBRANCH   1  13
BRANCH   4  16
ATOM     16  O   UNL     1       7.587   8.357  17.248  0.00  0.00    +0.000 OA
BRANCH  16  17
ATOM     17  C   UNL     1       8.473   8.439  18.363  0.00  0.00    +0.000 C 
BRANCH  17  18
ATOM     18  C   UNL     1       8.817   9.874  18.677  0.00  0.00    +0.000 A 
ATOM     19  C   UNL     1       9.393  10.237  19.895  0.00  0.00    +0.000 A 
ATOM     20  C   UNL     1       9.751  11.565  20.100  0.00  0.00    +0.000 A 
ATOM     21  C   UNL     1       9.544  12.491  19.088  0.00  0.00    +0.000 A 
ATOM     22  C   UNL     1       8.983  12.049  17.903  0.00  0.00    +0.000 A 
ATOM     23  N   UNL     1       8.621  10.773  17.671  0.00  0.00    +0.000 NA
ENDBRANCH  17  18
ENDBRANCH  16  17
ENDBRANCH   4  16
BRANCH   6  24
ATOM     24  O   UNL     1       3.074   6.828  17.345  0.00  0.00    +0.000 OA
BRANCH  24  25
ATOM     25  C   UNL     1       2.738   8.208  17.539  0.00  0.00    +0.000 C 
BRANCH  25  26
ATOM     26  C   UNL     1       1.980   8.473  18.818  0.00  0.00    +0.000 A 
ATOM     27  C   UNL     1       2.035   7.611  19.916  0.00  0.00    +0.000 A 
ATOM     28  C   UNL     1       1.348   7.927  21.094  0.00  0.00    +0.000 A 
ATOM     29  C   UNL     1       0.603   9.113  21.195  0.00  0.00    +0.000 A 
ATOM     30  C   UNL     1       0.577   9.990  20.105  0.00  0.00    +0.000 A 
ATOM     31  C   UNL     1       1.263   9.677  18.934  0.00  0.00    +0.000 A 
BRANCH  29  32
ATOM     32  C   UNL     1      -0.169   9.456  22.446  0.00  0.00    +0.000 C 
ATOM     33  F   UNL     1       0.609   9.565  23.557  0.00  0.00    +0.000 F 
ATOM     34  F   UNL     1      -0.837  10.638  22.338  0.00  0.00    +0.000 F 
ATOM     35  F   UNL     1      -1.116   8.521  22.743  0.00  0.00    +0.000 F 
ENDBRANCH  29  32
ENDBRANCH  25  26
ENDBRANCH  24  25
ENDBRANCH   6  24
TORSDOF 8
ENDMDL
MODEL 2
REMARK VINA RESULT:      -8.8      0.895      1.159
REMARK  Name = 
REMARK  8 active torsions:
REMARK  status: ('A' for Active; 'I' for Inactive)
REMARK    1  A    between atoms: C_7  and  C_8
REMARK    2  A    between atoms: C_11  and  O_12
REMARK    3  A    between atoms: O_12  and  C_13
REMARK    4  A    between atoms: C_13  and  C_14
REMARK    5  A    between atoms: C_21  and  O_22
REMARK    6  A    between atoms: O_22  and  C_23
REMARK    7  A    between atoms: C_23  and  C_24
REMARK    8  A    between atoms: C_27  and  C_28
REMARK                            x       y       z     vdW  Elec       q    Type
REMARK                         _______ _______ _______ _____ _____    ______ ____
ROOT
ATOM      1  C   UNL     1       5.388   4.915  17.833  0.00  0.00    +0.000 A 
ATOM      2  C   UNL     1       6.651   4.524  18.297  0.00  0.00    +0.000 A 
ATOM      3  C   UNL     1       7.680   5.457  18.422  0.00  0.00    +0.000 A 
ATOM      4  C   UNL     1       7.436   6.795  18.125  0.00  0.00    +0.000 A 
ATOM      5  C   UNL     1       6.185   7.187  17.653  0.00  0.00    +0.000 A 
ATOM      6  C   UNL     1       5.160   6.255  17.466  0.00  0.00    +0.000 A 
ENDROOT
BRANCH   1  13
ATOM      7  O   UNL     1       2.202   2.663  22.031  0.00  0.00    +0.000 OA
ATOM      8  C   UNL     1       2.442   2.889  20.857  0.00  0.00    +0.000 C 
ATOM      9  N   UNL     1       2.050   2.126  19.807  0.00  0.00    +0.000 N 
ATOM     10  C   UNL     1       2.581   2.405  18.584  0.00  0.00    +0.000 C 
ATOM     11  O   UNL     1       2.377   1.761  17.567  0.00  0.00    +0.000 OA
ATOM     12  C   UNL     1       3.492   3.574  18.701  0.00  0.00    +0.000 C 
ATOM     13  C   UNL     1       4.339   3.900  17.719  0.00  0.00    +0.000 C 
ATOM     14  S   UNL     1       3.391   4.243  20.287  0.00  0.00    +0.000 S 
ATOM     15  H   UNL     1       1.517   1.284  19.953  0.00  0.00    +0.000 HD
ENDBRANCH   1  13
BRANCH   4  16
ATOM     16  O   UNL     1       8.346   7.807  18.231  0.00  0.00    +0.000 OA
BRANCH  16  17
ATOM     17  C   UNL     1       7.902   9.070  17.737  0.00  0.00    +0.000 C 
BRANCH  17  18
ATOM     18  C   UNL     1       8.681  10.201  18.363  0.00  0.00    +0.000 A 
ATOM     19  C   UNL     1       8.763  11.454  17.756  0.00  0.00    +0.000 A 
ATOM     20  C   UNL     1       9.438  12.477  18.413  0.00  0.00    +0.000 A 
ATOM     21  C   UNL     1       9.998  12.233  19.659  0.00  0.00    +0.000 A 
ATOM     22  C   UNL     1       9.859  10.968  20.202  0.00  0.00    +0.000 A 
ATOM     23  N   UNL     1       9.216   9.954  19.592  0.00  0.00    +0.000 NA
ENDBRANCH  17  18
ENDBRANCH  16  17
ENDBRANCH   4  16
BRANCH   6  24
ATOM     24  O   UNL     1       3.928   6.582  16.930  0.00  0.00    +0.000 OA
BRANCH  24  25
ATOM     25  C   UNL     1       3.569   7.963  17.079  0.00  0.00    +0.000 C 
BRANCH  25  26
ATOM     26  C   UNL     1       2.626   8.224  18.228  0.00  0.00    +0.000 A 
ATOM     27  C   UNL     1       2.529   7.368  19.330  0.00  0.00    +0.000 A 
ATOM     28  C   UNL     1       1.671   7.681  20.389  0.00  0.00    +0.000 A 
ATOM     29  C   UNL     1       0.902   8.857  20.370  0.00  0.00    +0.000 A 
ATOM     30  C   UNL     1       1.027   9.727  19.281  0.00  0.00    +0.000 A 
ATOM     31  C   UNL     1       1.883   9.417  18.228  0.00  0.00    +0.000 A 
BRANCH  29  32
ATOM     32  C   UNL     1      -0.052   9.195  21.490  0.00  0.00    +0.000 C 
ATOM     33  F   UNL     1       0.567   9.512  22.659  0.00  0.00    +0.000 F 
ATOM     34  F   UNL     1      -0.852  10.254  21.189  0.00  0.00    +0.000 F 
ATOM     35  F   UNL     1      -0.895   8.164  21.781  0.00  0.00    +0.000 F 
ENDBRANCH  29  32
ENDBRANCH  25  26
ENDBRANCH  24  25
ENDBRANCH   6  24
TORSDOF 8
ENDMDL
MODEL 3
REMARK VINA RESULT:      -8.7      0.775      1.329
REMARK  Name = 
REMARK  8 active torsions:
REMARK  status: ('A' for Active; 'I' for Inactive)
REMARK    1  A    between atoms: C_7  and  C_8
REMARK    2  A    between atoms: C_11  and  O_12
REMARK    3  A    between atoms: O_12  and  C_13
REMARK    4  A    between atoms: C_13  and  C_14
REMARK    5  A    between atoms: C_21  and  O_22
REMARK    6  A    between atoms: O_22  and  C_23
REMARK    7  A    between atoms: C_23  and  C_24
REMARK    8  A    between atoms: C_27  and  C_28
REMARK                            x       y       z     vdW  Elec       q    Type
REMARK                         _______ _______ _______ _____ _____    ______ ____
ROOT
ATOM      1  C   UNL     1       5.390   4.963  17.754  0.00  0.00    +0.000 A 
ATOM      2  C   UNL     1       6.686   4.590  18.136  0.00  0.00    +0.000 A 
ATOM      3  C   UNL     1       7.705   5.540  18.202  0.00  0.00    +0.000 A 
ATOM      4  C   UNL     1       7.421   6.875  17.929  0.00  0.00    +0.000 A 
ATOM      5  C   UNL     1       6.136   7.248  17.538  0.00  0.00    +0.000 A 
ATOM      6  C   UNL     1       5.117   6.300  17.411  0.00  0.00    +0.000 A 
ENDROOT
BRANCH   1  13
ATOM      7  O   UNL     1       2.450   2.698  22.122  0.00  0.00    +0.000 OA
ATOM      8  C   UNL     1       2.628   2.918  20.936  0.00  0.00    +0.000 C 
ATOM      9  N   UNL     1       2.197   2.140  19.912  0.00  0.00    +0.000 N 
ATOM     10  C   UNL     1       2.663   2.417  18.662  0.00  0.00    +0.000 C 
ATOM     11  O   UNL     1       2.420   1.761  17.662  0.00  0.00    +0.000 OA
ATOM     12  C   UNL     1       3.560   3.600  18.726  0.00  0.00    +0.000 C 
ATOM     13  C   UNL     1       4.353   3.930  17.701  0.00  0.00    +0.000 C 
ATOM     14  S   UNL     1       3.527   4.281  20.309  0.00  0.00    +0.000 S 
ATOM     15  H   UNL     1       1.686   1.291  20.091  0.00  0.00    +0.000 HD
ENDBRANCH   1  13
BRANCH   4  16
ATOM     16  O   UNL     1       8.319   7.901  17.984  0.00  0.00    +0.000 OA
BRANCH  16  17
ATOM     17  C   UNL     1       7.771   9.195  17.735  0.00  0.00    +0.000 C 
BRANCH  17  18
ATOM     18  C   UNL     1       8.616  10.273  18.368  0.00  0.00    +0.000 A 
ATOM     19  C   UNL     1       9.298  10.058  19.565  0.00  0.00    +0.000 A 
ATOM     20  C   UNL     1      10.115  11.066  20.065  0.00  0.00    +0.000 A 
ATOM     21  C   UNL     1      10.247  12.251  19.354  0.00  0.00    +0.000 A 
ATOM     22  C   UNL     1       9.550  12.381  18.166  0.00  0.00    +0.000 A 
ATOM     23  N   UNL     1       8.747  11.428  17.656  0.00  0.00    +0.000 NA
ENDBRANCH  17  18
ENDBRANCH  16  17
ENDBRANCH   4  16
BRANCH   6  24
ATOM     24  O   UNL     1       3.849   6.609  16.955  0.00  0.00    +0.000 OA
BRANCH  24  25
ATOM     25  C   UNL     1       3.516   8.002  17.041  0.00  0.00    +0.000 C 
BRANCH  25  26
ATOM     26  C   UNL     1       2.602   8.336  18.196  0.00  0.00    +0.000 A 
ATOM     27  C   UNL     1       1.780   9.466  18.202  0.00  0.00    +0.000 A 
ATOM     28  C   UNL     1       0.920   9.705  19.279  0.00  0.00    +0.000 A 
ATOM     29  C   UNL     1       0.860   8.814  20.363  0.00  0.00    +0.000 A 
ATOM     30  C   UNL     1       1.660   7.666  20.338  0.00  0.00    +0.000 A 
ATOM     31  C   UNL     1       2.515   7.428  19.265  0.00  0.00    +0.000 A 
BRANCH  29  32
ATOM     32  C   UNL     1      -0.040   9.070  21.547  0.00  0.00    +0.000 C 
ATOM     33  F   UNL     1      -0.772  10.212  21.442  0.00  0.00    +0.000 F 
ATOM     34  F   UNL     1      -0.938   8.066  21.745  0.00  0.00    +0.000 F 
ATOM     35  F   UNL     1       0.657   9.179  22.714  0.00  0.00    +0.000 F 
ENDBRANCH  29  32
ENDBRANCH  25  26
ENDBRANCH  24  25
ENDBRANCH   6  24
TORSDOF 8
ENDMDL
MODEL 4
REMARK VINA RESULT:      -8.5      0.606      1.092
REMARK  Name = 
REMARK  8 active torsions:
REMARK  status: ('A' for Active; 'I' for Inactive)
REMARK    1  A    between atoms: C_7  and  C_8
REMARK    2  A    between atoms: C_11  and  O_12
REMARK    3  A    between atoms: O_12  and  C_13
REMARK    4  A    between atoms: C_13  and  C_14
REMARK    5  A    between atoms: C_21  and  O_22
REMARK    6  A    between atoms: O_22  and  C_23
REMARK    7  A    between atoms: C_23  and  C_24
REMARK    8  A    between atoms: C_27  and  C_28
REMARK                            x       y       z     vdW  Elec       q    Type
REMARK                         _______ _______ _______ _____ _____    ______ ____
ROOT
ATOM      1  C   UNL     1       4.969   5.050  17.232  0.00  0.00    +0.000 A 
ATOM      2  C   UNL     1       6.315   4.663  17.158  0.00  0.00    +0.000 A 
ATOM      3  C   UNL     1       7.324   5.623  17.103  0.00  0.00    +0.000 A 
ATOM      4  C   UNL     1       6.996   6.974  17.168  0.00  0.00    +0.000 A 
ATOM      5  C   UNL     1       5.659   7.364  17.231  0.00  0.00    +0.000 A 
ATOM      6  C   UNL     1       4.631   6.416  17.227  0.00  0.00    +0.000 A 
ENDROOT
BRANCH   1  13
ATOM      7  O   UNL     1       2.890   2.404  21.871  0.00  0.00    +0.000 OA
ATOM      8  C   UNL     1       2.847   2.717  20.693  0.00  0.00    +0.000 C 
ATOM      9  N   UNL     1       2.237   2.013  19.708  0.00  0.00    +0.000 N 
ATOM     10  C   UNL     1       2.465   2.393  18.420  0.00  0.00    +0.000 C 
ATOM     11  O   UNL     1       2.044   1.812  17.432  0.00  0.00    +0.000 OA
ATOM     12  C   UNL     1       3.354   3.584  18.411  0.00  0.00    +0.000 C 
ATOM     13  C   UNL     1       3.944   4.006  17.288  0.00  0.00    +0.000 C 
ATOM     14  S   UNL     1       3.610   4.140  20.023  0.00  0.00    +0.000 S 
ATOM     15  H   UNL     1       1.771   1.143  19.910  0.00  0.00    +0.000 HD
ENDBRANCH   1  13
BRANCH   4  16
ATOM     16  O   UNL     1       7.889   8.007  17.152  0.00  0.00    +0.000 OA
BRANCH  16  17
ATOM     17  C   UNL     1       8.167   8.582  18.428  0.00  0.00    +0.000 C 
BRANCH  17  18
ATOM     18  C   UNL     1       8.773   9.957  18.282  0.00  0.00    +0.000 A 
ATOM     19  C   UNL     1       8.089  10.993  17.647  0.00  0.00    +0.000 A 
ATOM     20  C   UNL     1       8.670  12.255  17.604  0.00  0.00    +0.000 A 
ATOM     21  C   UNL     1       9.905  12.458  18.205  0.00  0.00    +0.000 A 
ATOM     22  C   UNL     1      10.512  11.383  18.829  0.00  0.00    +0.000 A 
ATOM     23  N   UNL     1       9.980  10.147  18.887  0.00  0.00    +0.000 NA
ENDBRANCH  17  18
ENDBRANCH  16  17
ENDBRANCH   4  16
BRANCH   6  24
ATOM     24  O   UNL     1       3.291   6.755  17.213  0.00  0.00    +0.000 OA
BRANCH  24  25
ATOM     25  C   UNL     1       3.031   8.145  17.457  0.00  0.00    +0.000 C 
BRANCH  25  26
ATOM     26  C   UNL     1       2.182   8.397  18.679  0.00  0.00    +0.000 A 
ATOM     27  C   UNL     1       2.168   7.531  19.777  0.00  0.00    +0.000 A 
ATOM     28  C   UNL     1       1.397   7.835  20.903  0.00  0.00    +0.000 A 
ATOM     29  C   UNL     1       0.634   9.014  20.956  0.00  0.00    +0.000 A 
ATOM     30  C   UNL     1       0.677   9.895  19.869  0.00  0.00    +0.000 A 
ATOM     31  C   UNL     1       1.446   9.592  18.749  0.00  0.00    +0.000 A 
BRANCH  29  32
ATOM     32  C   UNL     1      -0.228   9.344  22.150  0.00  0.00    +0.000 C 
ATOM     33  F   UNL     1      -0.983  10.463  21.988  0.00  0.00    +0.000 F 
ATOM     34  F   UNL     1      -1.099   8.343  22.455  0.00  0.00    +0.000 F 
ATOM     35  F   UNL     1       0.509   9.550  23.279  0.00  0.00    +0.000 F 
ENDBRANCH  29  32
ENDBRANCH  25  26
ENDBRANCH  24  25
ENDBRANCH   6  24
TORSDOF 8
ENDMDL
MODEL 5
REMARK VINA RESULT:      -8.5      0.595      1.357
REMARK  Name = 
REMARK  8 active torsions:
REMARK  status: ('A' for Active; 'I' for Inactive)
REMARK    1  A    between atoms: C_7  and  C_8
REMARK    2  A    between atoms: C_11  and  O_12
REMARK    3  A    between atoms: O_12  and  C_13
REMARK    4  A    between atoms: C_13  and  C_14
REMARK    5  A    between atoms: C_21  and  O_22
REMARK    6  A    between atoms: O_22  and  C_23
REMARK    7  A    between atoms: C_23  and  C_24
REMARK    8  A    between atoms: C_27  and  C_28
REMARK                            x       y       z     vdW  Elec       q    Type
REMARK                         _______ _______ _______ _____ _____    ______ ____
ROOT
ATOM      1  C   UNL     1       5.071   5.328  17.511  0.00  0.00    +0.000 A 
ATOM      2  C   UNL     1       6.455   5.104  17.499  0.00  0.00    +0.000 A 
ATOM      3  C   UNL     1       7.345   6.177  17.507  0.00  0.00    +0.000 A 
ATOM      4  C   UNL     1       6.856   7.479  17.574  0.00  0.00    +0.000 A 
ATOM      5  C   UNL     1       5.481   7.707  17.576  0.00  0.00    +0.000 A 
ATOM      6  C   UNL     1       4.574   6.645  17.509  0.00  0.00    +0.000 A 
ENDROOT
BRANCH   1  13
ATOM      7  O   UNL     1       2.770   2.625  22.011  0.00  0.00    +0.000 OA
ATOM      8  C   UNL     1       2.833   2.886  20.822  0.00  0.00    +0.000 C 
ATOM      9  N   UNL     1       2.433   2.076  19.810  0.00  0.00    +0.000 N 
ATOM     10  C   UNL     1       2.768   2.432  18.539  0.00  0.00    +0.000 C 
ATOM     11  O   UNL     1       2.541   1.767  17.540  0.00  0.00    +0.000 OA
ATOM     12  C   UNL     1       3.507   3.722  18.571  0.00  0.00    +0.000 C 
ATOM     13  C   UNL     1       4.175   4.170  17.503  0.00  0.00    +0.000 C 
ATOM     14  S   UNL     1       3.500   4.365  20.170  0.00  0.00    +0.000 S 
ATOM     15  H   UNL     1       2.050   1.164  20.002  0.00  0.00    +0.000 HD
ENDBRANCH   1  13
BRANCH   4  16
ATOM     16  O   UNL     1       7.620   8.609  17.615  0.00  0.00    +0.000 OA
BRANCH  16  17
ATOM     17  C   UNL     1       8.670   8.591  18.581  0.00  0.00    +0.000 C 
BRANCH  17  18
ATOM     18  C   UNL     1       9.118   9.992  18.921  0.00  0.00    +0.000 A 
ATOM     19  C   UNL     1       9.421  10.922  17.927  0.00  0.00    +0.000 A 
ATOM     20  C   UNL     1       9.763  12.217  18.300  0.00  0.00    +0.000 A 
ATOM     21  C   UNL     1       9.779  12.557  19.646  0.00  0.00    +0.000 A 
ATOM     22  C   UNL     1       9.450  11.581  20.570  0.00  0.00    +0.000 A 
ATOM     23  N   UNL     1       9.118  10.317  20.244  0.00  0.00    +0.000 NA
ENDBRANCH  17  18
ENDBRANCH  16  17
ENDBRANCH   4  16
BRANCH   6  24
ATOM     24  O   UNL     1       3.205   6.824  17.433  0.00  0.00    +0.000 OA
BRANCH  24  25
ATOM     25  C   UNL     1       2.787   8.196  17.461  0.00  0.00    +0.000 C 
BRANCH  25  26
ATOM     26  C   UNL     1       2.028   8.571  18.711  0.00  0.00    +0.000 A 
ATOM     27  C   UNL     1       1.203   9.698  18.779  0.00  0.00    +0.000 A 
ATOM     28  C   UNL     1       0.487   9.976  19.948  0.00  0.00    +0.000 A 
ATOM     29  C   UNL     1       0.576   9.128  21.065  0.00  0.00    +0.000 A 
ATOM     30  C   UNL     1       1.377   7.983  20.982  0.00  0.00    +0.000 A 
ATOM     31  C   UNL     1       2.088   7.706  19.817  0.00  0.00    +0.000 A 
BRANCH  29  32
ATOM     32  C   UNL     1      -0.166   9.428  22.345  0.00  0.00    +0.000 C 
ATOM     33  F   UNL     1      -0.857  10.599  22.316  0.00  0.00    +0.000 F 
ATOM     34  F   UNL     1      -1.074   8.463  22.658  0.00  0.00    +0.000 F 
ATOM     35  F   UNL     1       0.669   9.513  23.420  0.00  0.00    +0.000 F 
ENDBRANCH  29  32
ENDBRANCH  25  26
ENDBRANCH  24  25
ENDBRANCH   6  24
TORSDOF 8
ENDMDL
MODEL 6
REMARK VINA RESULT:      -8.3      0.597      1.073
REMARK  Name = 
REMARK  8 active torsions:
REMARK  status: ('A' for Active; 'I' for Inactive)
REMARK    1  A    between atoms: C_7  and  C_8
REMARK    2  A    between atoms: C_11  and  O_12
REMARK    3  A    between atoms: O_12  and  C_13
REMARK    4  A    between atoms: C_13  and  C_14
REMARK    5  A    between atoms: C_21  and  O_22
REMARK    6  A    between atoms: O_22  and  C_23
REMARK    7  A    between atoms: C_23  and  C_24
REMARK    8  A    between atoms: C_27  and  C_28
REMARK                            x       y       z     vdW  Elec       q    Type
REMARK                         _______ _______ _______ _____ _____    ______ ____
ROOT
ATOM      1  C   UNL     1       4.738   5.179  17.298  0.00  0.00    +0.000 A 
ATOM      2  C   UNL     1       6.048   4.854  16.918  0.00  0.00    +0.000 A 
ATOM      3  C   UNL     1       7.028   5.843  16.842  0.00  0.00    +0.000 A 
ATOM      4  C   UNL     1       6.715   7.153  17.190  0.00  0.00    +0.000 A 
ATOM      5  C   UNL     1       5.411   7.483  17.558  0.00  0.00    +0.000 A 
ATOM      6  C   UNL     1       4.402   6.516  17.583  0.00  0.00    +0.000 A 
ENDROOT
BRANCH   1  13
ATOM      7  O   UNL     1       2.694   2.558  21.967  0.00  0.00    +0.000 OA
ATOM      8  C   UNL     1       2.652   2.849  20.783  0.00  0.00    +0.000 C 
ATOM      9  N   UNL     1       2.072   2.109  19.806  0.00  0.00    +0.000 N 
ATOM     10  C   UNL     1       2.300   2.473  18.513  0.00  0.00    +0.000 C 
ATOM     11  O   UNL     1       1.906   1.862  17.532  0.00  0.00    +0.000 OA
ATOM     12  C   UNL     1       3.155   3.688  18.490  0.00  0.00    +0.000 C 
ATOM     13  C   UNL     1       3.743   4.107  17.364  0.00  0.00    +0.000 C 
ATOM     14  S   UNL     1       3.380   4.281  20.093  0.00  0.00    +0.000 S 
ATOM     15  H   UNL     1       1.629   1.230  20.019  0.00  0.00    +0.000 HD
ENDBRANCH   1  13
BRANCH   4  16
ATOM     16  O   UNL     1       7.587   8.203  17.184  0.00  0.00    +0.000 OA
BRANCH  16  17
ATOM     17  C   UNL     1       8.354   8.355  18.378  0.00  0.00    +0.000 C 
BRANCH  17  18
ATOM     18  C   UNL     1       8.701   9.803  18.619  0.00  0.00    +0.000 A 
ATOM     19  C   UNL     1       9.381  10.209  19.767  0.00  0.00    +0.000 A 
ATOM     20  C   UNL     1       9.734  11.547  19.902  0.00  0.00    +0.000 A 
ATOM     21  C   UNL     1       9.417  12.441  18.889  0.00  0.00    +0.000 A 
ATOM     22  C   UNL     1       8.756  11.957  17.774  0.00  0.00    +0.000 A 
ATOM     23  N   UNL     1       8.397  10.669  17.612  0.00  0.00    +0.000 NA
ENDBRANCH  17  18
ENDBRANCH  16  17
ENDBRANCH   4  16
BRANCH   6  24
ATOM     24  O   UNL     1       3.081   6.809  17.869  0.00  0.00    +0.000 OA
BRANCH  24  25
ATOM     25  C   UNL     1       2.680   8.137  17.506  0.00  0.00    +0.000 C 
BRANCH  25  26
ATOM     26  C   UNL     1       1.853   8.830  18.563  0.00  0.00    +0.000 A 
ATOM     27  C   UNL     1       1.076   9.958  18.288  0.00  0.00    +0.000 A 
ATOM     28  C   UNL     1       0.293  10.535  19.295  0.00  0.00    +0.000 A 
ATOM     29  C   UNL     1       0.267   9.988  20.588  0.00  0.00    +0.000 A 
ATOM     30  C   UNL     1       1.021   8.838  20.850  0.00  0.00    +0.000 A 
ATOM     31  C   UNL     1       1.799   8.264  19.848  0.00  0.00    +0.000 A 
BRANCH  29  32
ATOM     32  C   UNL     1      -0.547  10.614  21.694  0.00  0.00    +0.000 C 
ATOM     33  F   UNL     1       0.138  11.532  22.427  0.00  0.00    +0.000 F 
ATOM     34  F   UNL     1      -1.652  11.256  21.225  0.00  0.00    +0.000 F 
ATOM     35  F   UNL     1      -1.006   9.690  22.586  0.00  0.00    +0.000 F 
ENDBRANCH  29  32
ENDBRANCH  25  26
ENDBRANCH  24  25
ENDBRANCH   6  24
TORSDOF 8
ENDMDL
MODEL 7
REMARK VINA RESULT:      -8.2      1.325      2.057
REMARK  Name = 
REMARK  8 active torsions:
REMARK  status: ('A' for Active; 'I' for Inactive)
REMARK    1  A    between atoms: C_7  and  C_8
REMARK    2  A    between atoms: C_11  and  O_12
REMARK    3  A    between atoms: O_12  and  C_13
REMARK    4  A    between atoms: C_13  and  C_14
REMARK    5  A    between atoms: C_21  and  O_22
REMARK    6  A    between atoms: O_22  and  C_23
REMARK    7  A    between atoms: C_23  and  C_24
REMARK    8  A    between atoms: C_27  and  C_28
REMARK                            x       y       z     vdW  Elec       q    Type
REMARK                         _______ _______ _______ _____ _____    ______ ____
ROOT
ATOM      1  C   UNL     1       4.772   5.210  17.309  0.00  0.00    +0.000 A 
ATOM      2  C   UNL     1       6.085   4.774  17.079  0.00  0.00    +0.000 A 
ATOM      3  C   UNL     1       7.132   5.691  17.007  0.00  0.00    +0.000 A 
ATOM      4  C   UNL     1       6.879   7.045  17.209  0.00  0.00    +0.000 A 
ATOM      5  C   UNL     1       5.574   7.484  17.428  0.00  0.00    +0.000 A 
ATOM      6  C   UNL     1       4.504   6.584  17.445  0.00  0.00    +0.000 A 
ENDROOT
BRANCH   1  13
ATOM      7  O   UNL     1       2.797   2.483  21.947  0.00  0.00    +0.000 OA
ATOM      8  C   UNL     1       2.712   2.842  20.785  0.00  0.00    +0.000 C 
ATOM      9  N   UNL     1       2.026   2.202  19.805  0.00  0.00    +0.000 N 
ATOM     10  C   UNL     1       2.210   2.620  18.522  0.00  0.00    +0.000 C 
ATOM     11  O   UNL     1       1.718   2.094  17.536  0.00  0.00    +0.000 OA
ATOM     12  C   UNL     1       3.150   3.771  18.513  0.00  0.00    +0.000 C 
ATOM     13  C   UNL     1       3.705   4.209  17.377  0.00  0.00    +0.000 C 
ATOM     14  S   UNL     1       3.506   4.255  20.128  0.00  0.00    +0.000 S 
ATOM     15  H   UNL     1       1.532   1.346  19.999  0.00  0.00    +0.000 HD
ENDBRANCH   1  13
BRANCH   4  16
ATOM     16  O   UNL     1       7.817   8.036  17.192  0.00  0.00    +0.000 OA
BRANCH  16  17
ATOM     17  C   UNL     1       8.456   8.282  18.443  0.00  0.00    +0.000 C 
BRANCH  17  18
ATOM     18  C   UNL     1       8.792   9.745  18.602  0.00  0.00    +0.000 A 
ATOM     19  C   UNL     1       8.477  10.678  17.614  0.00  0.00    +0.000 A 
ATOM     20  C   UNL     1       8.749  12.021  17.846  0.00  0.00    +0.000 A 
ATOM     21  C   UNL     1       9.311  12.404  19.057  0.00  0.00    +0.000 A 
ATOM     22  C   UNL     1       9.579  11.420  19.993  0.00  0.00    +0.000 A 
ATOM     23  N   UNL     1       9.331  10.110  19.799  0.00  0.00    +0.000 NA
ENDBRANCH  17  18
ENDBRANCH  16  17
ENDBRANCH   4  16
BRANCH   6  24
ATOM     24  O   UNL     1       3.186   6.980  17.583  0.00  0.00    +0.000 OA
BRANCH  24  25
ATOM     25  C   UNL     1       2.814   7.333  18.922  0.00  0.00    +0.000 C 
BRANCH  25  26
ATOM     26  C   UNL     1       1.764   8.416  18.993  0.00  0.00    +0.000 A 
ATOM     27  C   UNL     1       1.248   9.039  17.853  0.00  0.00    +0.000 A 
ATOM     28  C   UNL     1       0.244  10.005  17.973  0.00  0.00    +0.000 A 
ATOM     29  C   UNL     1      -0.268  10.358  19.232  0.00  0.00    +0.000 A 
ATOM     30  C   UNL     1       0.227   9.709  20.369  0.00  0.00    +0.000 A 
ATOM     31  C   UNL     1       1.225   8.746  20.249  0.00  0.00    +0.000 A 
BRANCH  29  32
ATOM     32  C   UNL     1      -1.331  11.420  19.384  0.00  0.00    +0.000 C 
ATOM     33  F   UNL     1      -2.533  11.071  18.853  0.00  0.00    +0.000 F 
ATOM     34  F   UNL     1      -1.571  11.732  20.687  0.00  0.00    +0.000 F 
ATOM     35  F   UNL     1      -0.982  12.592  18.780  0.00  0.00    +0.000 F 
ENDBRANCH  29  32
ENDBRANCH  25  26
ENDBRANCH  24  25
ENDBRANCH   6  24
TORSDOF 8
ENDMDL
MODEL 8
REMARK VINA RESULT:      -8.2      1.431      1.955
REMARK  Name = 
REMARK  8 active torsions:
REMARK  status: ('A' for Active; 'I' for Inactive)
REMARK    1  A    between atoms: C_7  and  C_8
REMARK    2  A    between atoms: C_11  and  O_12
REMARK    3  A    between atoms: O_12  and  C_13
REMARK    4  A    between atoms: C_13  and  C_14
REMARK    5  A    between atoms: C_21  and  O_22
REMARK    6  A    between atoms: O_22  and  C_23
REMARK    7  A    between atoms: C_23  and  C_24
REMARK    8  A    between atoms: C_27  and  C_28
REMARK                            x       y       z     vdW  Elec       q    Type
REMARK                         _______ _______ _______ _____ _____    ______ ____
ROOT
ATOM      1  C   UNL     1       4.797   5.219  17.316  0.00  0.00    +0.000 A 
ATOM      2  C   UNL     1       6.118   4.817  17.075  0.00  0.00    +0.000 A 
ATOM      3  C   UNL     1       7.144   5.759  17.012  0.00  0.00    +0.000 A 
ATOM      4  C   UNL     1       6.860   7.104  17.234  0.00  0.00    +0.000 A 
ATOM      5  C   UNL     1       5.546   7.509  17.463  0.00  0.00    +0.000 A 
ATOM      6  C   UNL     1       4.497   6.585  17.472  0.00  0.00    +0.000 A 
ENDROOT
BRANCH   1  13
ATOM      7  O   UNL     1       2.906   2.380  21.922  0.00  0.00    +0.000 OA
ATOM      8  C   UNL     1       2.808   2.754  20.765  0.00  0.00    +0.000 C 
ATOM      9  N   UNL     1       2.133   2.112  19.780  0.00  0.00    +0.000 N 
ATOM     10  C   UNL     1       2.301   2.553  18.502  0.00  0.00    +0.000 C 
ATOM     11  O   UNL     1       1.818   2.030  17.510  0.00  0.00    +0.000 OA
ATOM     12  C   UNL     1       3.215   3.725  18.505  0.00  0.00    +0.000 C 
ATOM     13  C   UNL     1       3.754   4.193  17.374  0.00  0.00    +0.000 C 
ATOM     14  S   UNL     1       3.566   4.194  20.126  0.00  0.00    +0.000 S 
ATOM     15  H   UNL     1       1.659   1.242  19.963  0.00  0.00    +0.000 HD
ENDBRANCH   1  13
BRANCH   4  16
ATOM     16  O   UNL     1       7.775   8.117  17.227  0.00  0.00    +0.000 OA
BRANCH  16  17
ATOM     17  C   UNL     1       8.453   8.324  18.465  0.00  0.00    +0.000 C 
BRANCH  17  18
ATOM     18  C   UNL     1       8.836   9.774  18.638  0.00  0.00    +0.000 A 
ATOM     19  C   UNL     1       8.548  10.726  17.660  0.00  0.00    +0.000 A 
ATOM     20  C   UNL     1       8.864  12.058  17.905  0.00  0.00    +0.000 A 
ATOM     21  C   UNL     1       9.441  12.410  19.117  0.00  0.00    +0.000 A 
ATOM     22  C   UNL     1       9.680  11.409  20.042  0.00  0.00    +0.000 A 
ATOM     23  N   UNL     1       9.390  10.109  19.837  0.00  0.00    +0.000 NA
ENDBRANCH  17  18
ENDBRANCH  16  17
ENDBRANCH   4  16
BRANCH   6  24
ATOM     24  O   UNL     1       3.171   6.948  17.620  0.00  0.00    +0.000 OA
BRANCH  24  25
ATOM     25  C   UNL     1       2.800   7.289  18.962  0.00  0.00    +0.000 C 
BRANCH  25  26
ATOM     26  C   UNL     1       1.732   8.354  19.043  0.00  0.00    +0.000 A 
ATOM     27  C   UNL     1       1.168   8.763  20.255  0.00  0.00    +0.000 A 
ATOM     28  C   UNL     1       0.213   9.785  20.277  0.00  0.00    +0.000 A 
ATOM     29  C   UNL     1      -0.186  10.422  19.090  0.00  0.00    +0.000 A 
ATOM     30  C   UNL     1       0.405  10.033  17.883  0.00  0.00    +0.000 A 
ATOM     31  C   UNL     1       1.356   9.017  17.861  0.00  0.00    +0.000 A 
BRANCH  29  32
ATOM     32  C   UNL     1      -1.237  11.506  19.092  0.00  0.00    +0.000 C 
ATOM     33  F   UNL     1      -1.326  12.181  20.269  0.00  0.00    +0.000 F 
ATOM     34  F   UNL     1      -1.012  12.448  18.134  0.00  0.00    +0.000 F 
ATOM     35  F   UNL     1      -2.485  11.018  18.845  0.00  0.00    +0.000 F 
ENDBRANCH  29  32
ENDBRANCH  25  26
ENDBRANCH  24  25
ENDBRANCH   6  24
TORSDOF 8
ENDMDL
MODEL 9
REMARK VINA RESULT:      -8.1      4.163      6.856
REMARK  Name = 
REMARK  8 active torsions:
REMARK  status: ('A' for Active; 'I' for Inactive)
REMARK    1  A    between atoms: C_7  and  C_8
REMARK    2  A    between atoms: C_11  and  O_12
REMARK    3  A    between atoms: O_12  and  C_13
REMARK    4  A    between atoms: C_13  and  C_14
REMARK    5  A    between atoms: C_21  and  O_22
REMARK    6  A    between atoms: O_22  and  C_23
REMARK    7  A    between atoms: C_23  and  C_24
REMARK    8  A    between atoms: C_27  and  C_28
REMARK                            x       y       z     vdW  Elec       q    Type
REMARK                         _______ _______ _______ _____ _____    ______ ____
ROOT
ATOM      1  C   UNL     1       1.236   9.547  18.867  0.00  0.00    +0.000 A 
ATOM      2  C   UNL     1       2.050   9.177  17.787  0.00  0.00    +0.000 A 
ATOM      3  C   UNL     1       2.755   7.975  17.811  0.00  0.00    +0.000 A 
ATOM      4  C   UNL     1       2.614   7.114  18.896  0.00  0.00    +0.000 A 
ATOM      5  C   UNL     1       1.815   7.482  19.977  0.00  0.00    +0.000 A 
ATOM      6  C   UNL     1       1.147   8.711  19.995  0.00  0.00    +0.000 A 
ENDROOT
BRANCH   1  13
ATOM      7  O   UNL     1      -3.622  10.683  16.046  0.00  0.00    +0.000 OA
ATOM      8  C   UNL     1      -2.767  10.941  16.877  0.00  0.00    +0.000 C 
ATOM      9  N   UNL     1      -2.432  12.181  17.311  0.00  0.00    +0.000 N 
ATOM     10  C   UNL     1      -1.315  12.306  18.080  0.00  0.00    +0.000 C 
ATOM     11  O   UNL     1      -0.854  13.363  18.480  0.00  0.00    +0.000 OA
ATOM     12  C   UNL     1      -0.719  10.963  18.298  0.00  0.00    +0.000 C 
ATOM     13  C   UNL     1       0.514  10.819  18.795  0.00  0.00    +0.000 C 
ATOM     14  S   UNL     1      -1.757   9.745  17.656  0.00  0.00    +0.000 S 
ATOM     15  H   UNL     1      -2.894  12.997  16.942  0.00  0.00    +0.000 HD
ENDBRANCH   1  13
BRANCH   4  16
ATOM     16  O   UNL     1       3.226   5.902  19.028  0.00  0.00    +0.000 OA
BRANCH  16  17
ATOM     17  C   UNL     1       4.010   5.497  17.907  0.00  0.00    +0.000 C 
BRANCH  17  18
ATOM     18  C   UNL     1       5.461   5.862  18.100  0.00  0.00    +0.000 A 
ATOM     19  C   UNL     1       6.100   6.779  17.266  0.00  0.00    +0.000 A 
ATOM     20  C   UNL     1       7.420   7.127  17.534  0.00  0.00    +0.000 A 
ATOM     21  C   UNL     1       8.062   6.569  18.631  0.00  0.00    +0.000 A 
ATOM     22  C   UNL     1       7.354   5.679  19.420  0.00  0.00    +0.000 A 
ATOM     23  N   UNL     1       6.077   5.318  19.187  0.00  0.00    +0.000 NA
ENDBRANCH  17  18
ENDBRANCH  16  17
ENDBRANCH   4  16
BRANCH   6  24
ATOM     24  O   UNL     1       0.404   9.152  21.075  0.00  0.00    +0.000 OA
BRANCH  24  25
ATOM     25  C   UNL     1       0.934  10.319  21.718  0.00  0.00    +0.000 C 
BRANCH  25  26
ATOM     26  C   UNL     1      -0.126  11.274  22.211  0.00  0.00    +0.000 A 
ATOM     27  C   UNL     1      -0.142  12.626  21.858  0.00  0.00    +0.000 A 
ATOM     28  C   UNL     1      -1.173  13.458  22.307  0.00  0.00    +0.000 A 
ATOM     29  C   UNL     1      -2.211  12.950  23.106  0.00  0.00    +0.000 A 
ATOM     30  C   UNL     1      -2.210  11.589  23.428  0.00  0.00    +0.000 A 
ATOM     31  C   UNL     1      -1.184  10.761  22.981  0.00  0.00    +0.000 A 
BRANCH  29  32
ATOM     32  C   UNL     1      -3.316  13.839  23.623  0.00  0.00    +0.000 C 
ATOM     33  F   UNL     1      -2.870  14.924  24.311  0.00  0.00    +0.000 F 
ATOM     34  F   UNL     1      -4.103  14.325  22.624  0.00  0.00    +0.000 F 
ATOM     35  F   UNL     1      -4.158  13.180  24.469  0.00  0.00    +0.000 F 
ENDBRANCH  29  32
ENDBRANCH  25  26
ENDBRANCH  24  25
ENDBRANCH   6  24
TORSDOF 8
ENDMDL
