MODEL 1
REMARK VINA RESULT:      -6.3      0.000      0.000
REMARK  Name = 
REMARK  5 active torsions:
REMARK  status: ('A' for Active; 'I' for Inactive)
REMARK    1  A    between atoms: C_1  and  N_2
REMARK    2  A    between atoms: N_2  and  C_3
REMARK    3  A    between atoms: C_8  and  C_9
REMARK    4  A    between atoms: C_13  and  C_15
REMARK    5  A    between atoms: C_15  and  O_16
REMARK                            x       y       z     vdW  Elec       q    Type
REMARK                         _______ _______ _______ _____ _____    ______ ____
ROOT
ATOM      1  C   UNL     1       4.204   3.059  17.116  0.00  0.00    +0.000 C 
ATOM      2  C   UNL     1       2.717   3.427  17.002  0.00  0.00    +0.000 C 
ATOM      3  C   UNL     1       2.217   4.292  18.157  0.00  0.00    +0.000 C 
ATOM      4  N   UNL     1       2.568   3.727  19.458  0.00  0.00    +0.000 N 
ATOM      5  C   UNL     1       1.732   4.018  20.532  0.00  0.00    +0.000 C 
ATOM      6  O   UNL     1       0.682   4.661  20.421  0.00  0.00    +0.000 OA
ATOM      7  C   UNL     1       3.976   3.375  19.643  0.00  0.00    +0.000 C 
ATOM      8  C   UNL     1       4.507   2.499  18.512  0.00  0.00    +0.000 C 
ENDROOT
BRANCH   1  16
ATOM      9  C   UNL     1       8.149   7.519  18.302  0.00  0.00    +0.000 C 
ATOM     10  N   UNL     1       7.712   6.131  18.377  0.00  0.00    +0.000 N 
ATOM     11  C   UNL     1       7.481   5.595  19.715  0.00  0.00    +0.000 C 
ATOM     12  C   UNL     1       6.823   5.676  17.397  0.00  0.00    +0.000 A 
ATOM     13  C   UNL     1       6.797   6.175  16.090  0.00  0.00    +0.000 A 
ATOM     14  N   UNL     1       5.960   5.741  15.112  0.00  0.00    +0.000 NA
ATOM     15  C   UNL     1       5.128   4.744  15.476  0.00  0.00    +0.000 A 
ATOM     16  C   UNL     1       5.124   4.205  16.753  0.00  0.00    +0.000 A 
ATOM     17  N   UNL     1       5.971   4.671  17.709  0.00  0.00    +0.000 NA
ENDBRANCH   1  16
BRANCH   5  18
ATOM     18  C   UNL     1       2.143   3.485  21.913  0.00  0.00    +0.000 C 
BRANCH  18  19
ATOM     19  O   UNL     1       1.396   2.342  22.302  0.00  0.00    +0.000 OA
ATOM     20  H   UNL     1       2.016   1.783  22.813  0.00  0.00    +0.000 HD
ENDBRANCH  18  19
ENDBRANCH   5  18
TORSDOF 3
ENDMDL
MODEL 2
REMARK VINA RESULT:      -6.2      2.984      5.731
REMARK  Name = 
REMARK  5 active torsions:
REMARK  status: ('A' for Active; 'I' for Inactive)
REMARK    1  A    between atoms: C_1  and  N_2
REMARK    2  A    between atoms: N_2  and  C_3
REMARK    3  A    between atoms: C_8  and  C_9
REMARK    4  A    between atoms: C_13  and  C_15
REMARK    5  A    between atoms: C_15  and  O_16
REMARK                            x       y       z     vdW  Elec       q    Type
REMARK                         _______ _______ _______ _____ _____    ______ ____
ROOT
ATOM      1  C   UNL     1       3.711   5.111  17.022  0.00  0.00    +0.000 C 
ATOM      2  C   UNL     1       4.831   4.492  16.174  0.00  0.00    +0.000 C 
ATOM      3  C   UNL     1       6.004   3.974  17.003  0.00  0.00    +0.000 C 
ATOM      4  N   UNL     1       6.491   4.975  17.950  0.00  0.00    +0.000 N 
ATOM      5  C   UNL     1       7.832   4.913  18.319  0.00  0.00    +0.000 C 
ATOM      6  O   UNL     1       8.633   4.108  17.831  0.00  0.00    +0.000 OA
ATOM      7  C   UNL     1       5.477   5.589  18.808  0.00  0.00    +0.000 C 
ATOM      8  C   UNL     1       4.294   6.130  18.010  0.00  0.00    +0.000 C 
ENDROOT
BRANCH   1  16
ATOM      9  C   UNL     1       1.188   2.407  21.837  0.00  0.00    +0.000 C 
ATOM     10  N   UNL     1       1.459   3.576  21.011  0.00  0.00    +0.000 N 
ATOM     11  C   UNL     1       2.188   4.668  21.650  0.00  0.00    +0.000 C 
ATOM     12  C   UNL     1       1.779   3.360  19.666  0.00  0.00    +0.000 A 
ATOM     13  C   UNL     1       1.289   2.281  18.923  0.00  0.00    +0.000 A 
ATOM     14  N   UNL     1       1.564   2.055  17.611  0.00  0.00    +0.000 NA
ATOM     15  C   UNL     1       2.357   2.978  17.030  0.00  0.00    +0.000 A 
ATOM     16  C   UNL     1       2.856   4.072  17.718  0.00  0.00    +0.000 A 
ATOM     17  N   UNL     1       2.565   4.261  19.032  0.00  0.00    +0.000 NA
ENDBRANCH   1  16
BRANCH   5  18
ATOM     18  C   UNL     1       8.323   5.919  19.371  0.00  0.00    +0.000 C 
BRANCH  18  19
ATOM     19  O   UNL     1       8.296   5.389  20.689  0.00  0.00    +0.000 OA
ATOM     20  H   UNL     1       7.752   4.576  20.634  0.00  0.00    +0.000 HD
ENDBRANCH  18  19
ENDBRANCH   5  18
TORSDOF 3
ENDMDL
MODEL 3
REMARK VINA RESULT:      -6.1      4.423      6.055
REMARK  Name = 
REMARK  5 active torsions:
REMARK  status: ('A' for Active; 'I' for Inactive)
REMARK    1  A    between atoms: C_1  and  N_2
REMARK    2  A    between atoms: N_2  and  C_3
REMARK    3  A    between atoms: C_8  and  C_9
REMARK    4  A    between atoms: C_13  and  C_15
REMARK    5  A    between atoms: C_15  and  O_16
REMARK                            x       y       z     vdW  Elec       q    Type
REMARK                         _______ _______ _______ _____ _____    ______ ____
ROOT
ATOM      1  C   UNL     1       2.724   5.489  18.815  0.00  0.00    +0.000 C 
ATOM      2  C   UNL     1       3.855   5.223  19.818  0.00  0.00    +0.000 C 
ATOM      3  C   UNL     1       5.235   5.615  19.293  0.00  0.00    +0.000 C 
ATOM      4  N   UNL     1       5.500   5.051  17.970  0.00  0.00    +0.000 N 
ATOM      5  C   UNL     1       6.826   4.803  17.631  0.00  0.00    +0.000 C 
ATOM      6  O   UNL     1       7.769   4.963  18.415  0.00  0.00    +0.000 OA
ATOM      7  C   UNL     1       4.470   5.289  16.958  0.00  0.00    +0.000 C 
ATOM      8  C   UNL     1       3.078   4.896  17.444  0.00  0.00    +0.000 C 
ENDROOT
BRANCH   1  16
ATOM      9  C   UNL     1       0.171  10.644  20.757  0.00  0.00    +0.000 C 
ATOM     10  N   UNL     1       1.058   9.501  20.928  0.00  0.00    +0.000 N 
ATOM     11  C   UNL     1       0.746   8.598  22.033  0.00  0.00    +0.000 C 
ATOM     12  C   UNL     1       1.543   8.876  19.774  0.00  0.00    +0.000 A 
ATOM     13  C   UNL     1       1.768   9.553  18.570  0.00  0.00    +0.000 A 
ATOM     14  N   UNL     1       2.257   8.979  17.439  0.00  0.00    +0.000 NA
ATOM     15  C   UNL     1       2.544   7.666  17.546  0.00  0.00    +0.000 A 
ATOM     16  C   UNL     1       2.352   6.954  18.719  0.00  0.00    +0.000 A 
ATOM     17  N   UNL     1       1.854   7.560  19.829  0.00  0.00    +0.000 NA
ENDBRANCH   1  16
BRANCH   5  18
ATOM     18  C   UNL     1       7.108   4.281  16.214  0.00  0.00    +0.000 C 
BRANCH  18  19
ATOM     19  O   UNL     1       7.578   5.299  15.341  0.00  0.00    +0.000 OA
ATOM     20  H   UNL     1       7.702   6.091  15.903  0.00  0.00    +0.000 HD
ENDBRANCH  18  19
ENDBRANCH   5  18
TORSDOF 3
ENDMDL
MODEL 4
REMARK VINA RESULT:      -5.9      3.291      5.936
REMARK  Name = 
REMARK  5 active torsions:
REMARK  status: ('A' for Active; 'I' for Inactive)
REMARK    1  A    between atoms: C_1  and  N_2
REMARK    2  A    between atoms: N_2  and  C_3
REMARK    3  A    between atoms: C_8  and  C_9
REMARK    4  A    between atoms: C_13  and  C_15
REMARK    5  A    between atoms: C_15  and  O_16
REMARK                            x       y       z     vdW  Elec       q    Type
REMARK                         _______ _______ _______ _____ _____    ______ ____
ROOT
ATOM      1  C   UNL     1       5.403   4.469  16.127  0.00  0.00    +0.000 C 
ATOM      2  C   UNL     1       6.797   4.214  16.717  0.00  0.00    +0.000 C 
ATOM      3  C   UNL     1       7.170   5.188  17.832  0.00  0.00    +0.000 C 
ATOM      4  N   UNL     1       6.964   6.580  17.436  0.00  0.00    +0.000 N 
ATOM      5  C   UNL     1       7.766   7.545  18.038  0.00  0.00    +0.000 C 
ATOM      6  O   UNL     1       8.683   7.274  18.822  0.00  0.00    +0.000 OA
ATOM      7  C   UNL     1       5.646   6.898  16.886  0.00  0.00    +0.000 C 
ATOM      8  C   UNL     1       5.245   5.951  15.759  0.00  0.00    +0.000 C 
ENDROOT
BRANCH   1  16
ATOM      9  C   UNL     1       1.371   4.985  20.636  0.00  0.00    +0.000 C 
ATOM     10  N   UNL     1       1.983   5.443  19.396  0.00  0.00    +0.000 N 
ATOM     11  C   UNL     1       2.616   6.758  19.432  0.00  0.00    +0.000 C 
ATOM     12  C   UNL     1       2.639   4.493  18.606  0.00  0.00    +0.000 A 
ATOM     13  C   UNL     1       2.264   3.146  18.552  0.00  0.00    +0.000 A 
ATOM     14  N   UNL     1       2.868   2.205  17.781  0.00  0.00    +0.000 NA
ATOM     15  C   UNL     1       3.883   2.660  17.019  0.00  0.00    +0.000 A 
ATOM     16  C   UNL     1       4.284   3.986  17.025  0.00  0.00    +0.000 A 
ATOM     17  N   UNL     1       3.661   4.898  17.816  0.00  0.00    +0.000 NA
ENDBRANCH   1  16
BRANCH   5  18
ATOM     18  C   UNL     1       7.497   9.014  17.676  0.00  0.00    +0.000 C 
BRANCH  18  19
ATOM     19  O   UNL     1       8.527   9.884  18.124  0.00  0.00    +0.000 OA
ATOM     20  H   UNL     1       9.102  10.033  17.346  0.00  0.00    +0.000 HD
ENDBRANCH  18  19
ENDBRANCH   5  18
TORSDOF 3
ENDMDL
MODEL 5
REMARK VINA RESULT:      -5.9      3.767      4.937
REMARK  Name = 
REMARK  5 active torsions:
REMARK  status: ('A' for Active; 'I' for Inactive)
REMARK    1  A    between atoms: C_1  and  N_2
REMARK    2  A    between atoms: N_2  and  C_3
REMARK    3  A    between atoms: C_8  and  C_9
REMARK    4  A    between atoms: C_13  and  C_15
REMARK    5  A    between atoms: C_15  and  O_16
REMARK                            x       y       z     vdW  Elec       q    Type
REMARK                         _______ _______ _______ _____ _____    ______ ____
ROOT
ATOM      1  C   UNL     1       3.449   6.214  18.549  0.00  0.00    +0.000 C 
ATOM      2  C   UNL     1       2.819   5.120  17.676  0.00  0.00    +0.000 C 
ATOM      3  C   UNL     1       1.593   4.468  18.311  0.00  0.00    +0.000 C 
ATOM      4  N   UNL     1       1.853   4.027  19.680  0.00  0.00    +0.000 N 
ATOM      5  C   UNL     1       1.116   2.948  20.158  0.00  0.00    +0.000 C 
ATOM      6  O   UNL     1       0.319   2.307  19.463  0.00  0.00    +0.000 OA
ATOM      7  C   UNL     1       2.432   5.031  20.574  0.00  0.00    +0.000 C 
ATOM      8  C   UNL     1       3.668   5.694  19.977  0.00  0.00    +0.000 C 
ENDROOT
BRANCH   1  16
ATOM      9  C   UNL     1      -0.434  10.308  20.792  0.00  0.00    +0.000 C 
ATOM     10  N   UNL     1       0.754   9.470  20.889  0.00  0.00    +0.000 N 
ATOM     11  C   UNL     1       0.759   8.473  21.955  0.00  0.00    +0.000 C 
ATOM     12  C   UNL     1       1.360   9.063  19.696  0.00  0.00    +0.000 A 
ATOM     13  C   UNL     1       1.336   9.823  18.522  0.00  0.00    +0.000 A 
ATOM     14  N   UNL     1       1.932   9.465  17.354  0.00  0.00    +0.000 NA
ATOM     15  C   UNL     1       2.595   8.291  17.392  0.00  0.00    +0.000 A 
ATOM     16  C   UNL     1       2.661   7.508  18.532  0.00  0.00    +0.000 A 
ATOM     17  N   UNL     1       2.046   7.895  19.681  0.00  0.00    +0.000 NA
ENDBRANCH   1  16
BRANCH   5  18
ATOM     18  C   UNL     1       1.337   2.534  21.621  0.00  0.00    +0.000 C 
BRANCH  18  19
ATOM     19  O   UNL     1       2.710   2.350  21.936  0.00  0.00    +0.000 OA
ATOM     20  H   UNL     1       3.200   2.947  21.334  0.00  0.00    +0.000 HD
ENDBRANCH  18  19
ENDBRANCH   5  18
TORSDOF 3
ENDMDL
MODEL 6
REMARK VINA RESULT:      -5.9      3.529      5.835
REMARK  Name = 
REMARK  5 active torsions:
REMARK  status: ('A' for Active; 'I' for Inactive)
REMARK    1  A    between atoms: C_1  and  N_2
REMARK    2  A    between atoms: N_2  and  C_3
REMARK    3  A    between atoms: C_8  and  C_9
REMARK    4  A    between atoms: C_13  and  C_15
REMARK    5  A    between atoms: C_15  and  O_16
REMARK                            x       y       z     vdW  Elec       q    Type
REMARK                         _______ _______ _______ _____ _____    ______ ____
ROOT
ATOM      1  C   UNL     1       4.477   3.493  19.035  0.00  0.00    +0.000 C 
ATOM      2  C   UNL     1       5.903   4.060  19.078  0.00  0.00    +0.000 C 
ATOM      3  C   UNL     1       6.178   5.093  17.987  0.00  0.00    +0.000 C 
ATOM      4  N   UNL     1       5.796   4.606  16.662  0.00  0.00    +0.000 N 
ATOM      5  C   UNL     1       6.487   5.115  15.567  0.00  0.00    +0.000 C 
ATOM      6  O   UNL     1       7.445   5.890  15.668  0.00  0.00    +0.000 OA
ATOM      7  C   UNL     1       4.438   4.073  16.545  0.00  0.00    +0.000 C 
ATOM      8  C   UNL     1       4.133   3.028  17.613  0.00  0.00    +0.000 C 
ENDROOT
BRANCH   1  16
ATOM      9  C   UNL     1       1.648   8.847  19.474  0.00  0.00    +0.000 C 
ATOM     10  N   UNL     1       2.138   7.707  18.710  0.00  0.00    +0.000 N 
ATOM     11  C   UNL     1       3.129   7.995  17.678  0.00  0.00    +0.000 C 
ATOM     12  C   UNL     1       2.331   6.502  19.394  0.00  0.00    +0.000 A 
ATOM     13  C   UNL     1       1.570   6.116  20.503  0.00  0.00    +0.000 A 
ATOM     14  N   UNL     1       1.720   4.945  21.176  0.00  0.00    +0.000 NA
ATOM     15  C   UNL     1       2.672   4.126  20.685  0.00  0.00    +0.000 A 
ATOM     16  C   UNL     1       3.443   4.455  19.582  0.00  0.00    +0.000 A 
ATOM     17  N   UNL     1       3.270   5.639  18.939  0.00  0.00    +0.000 NA
ENDBRANCH   1  16
BRANCH   5  18
ATOM     18  C   UNL     1       6.034   4.660  14.171  0.00  0.00    +0.000 C 
BRANCH  18  19
ATOM     19  O   UNL     1       6.426   3.326  13.878  0.00  0.00    +0.000 OA
ATOM     20  H   UNL     1       5.993   2.769  14.557  0.00  0.00    +0.000 HD
ENDBRANCH  18  19
ENDBRANCH   5  18
TORSDOF 3
ENDMDL
MODEL 7
REMARK VINA RESULT:      -5.7      1.316      2.658
REMARK  Name = 
REMARK  5 active torsions:
REMARK  status: ('A' for Active; 'I' for Inactive)
REMARK    1  A    between atoms: C_1  and  N_2
REMARK    2  A    between atoms: N_2  and  C_3
REMARK    3  A    between atoms: C_8  and  C_9
REMARK    4  A    between atoms: C_13  and  C_15
REMARK    5  A    between atoms: C_15  and  O_16
REMARK                            x       y       z     vdW  Elec       q    Type
REMARK                         _______ _______ _______ _____ _____    ______ ____
ROOT
ATOM      1  C   UNL     1       3.881   2.805  17.110  0.00  0.00    +0.000 C 
ATOM      2  C   UNL     1       2.489   3.450  17.074  0.00  0.00    +0.000 C 
ATOM      3  C   UNL     1       2.220   4.378  18.257  0.00  0.00    +0.000 C 
ATOM      4  N   UNL     1       2.520   3.738  19.537  0.00  0.00    +0.000 N 
ATOM      5  C   UNL     1       1.809   4.168  20.653  0.00  0.00    +0.000 C 
ATOM      6  O   UNL     1       0.897   5.000  20.598  0.00  0.00    +0.000 OA
ATOM      7  C   UNL     1       3.843   3.121  19.647  0.00  0.00    +0.000 C 
ATOM      8  C   UNL     1       4.141   2.177  18.487  0.00  0.00    +0.000 C 
ENDROOT
BRANCH   1  16
ATOM      9  C   UNL     1       8.016   5.130  13.321  0.00  0.00    +0.000 C 
ATOM     10  N   UNL     1       6.657   4.726  13.655  0.00  0.00    +0.000 N 
ATOM     11  C   UNL     1       6.067   3.682  12.823  0.00  0.00    +0.000 C 
ATOM     12  C   UNL     1       6.310   4.668  15.009  0.00  0.00    +0.000 A 
ATOM     13  C   UNL     1       6.878   5.496  15.984  0.00  0.00    +0.000 A 
ATOM     14  N   UNL     1       6.548   5.477  17.303  0.00  0.00    +0.000 NA
ATOM     15  C   UNL     1       5.588   4.591  17.636  0.00  0.00    +0.000 A 
ATOM     16  C   UNL     1       4.985   3.760  16.706  0.00  0.00    +0.000 A 
ATOM     17  N   UNL     1       5.346   3.801  15.397  0.00  0.00    +0.000 NA
ENDBRANCH   1  16
BRANCH   5  18
ATOM     18  C   UNL     1       2.179   3.546  22.009  0.00  0.00    +0.000 C 
BRANCH  18  19
ATOM     19  O   UNL     1       1.448   2.359  22.282  0.00  0.00    +0.000 OA
ATOM     20  H   UNL     1       2.009   1.625  21.959  0.00  0.00    +0.000 HD
ENDBRANCH  18  19
ENDBRANCH   5  18
TORSDOF 3
ENDMDL
MODEL 8
REMARK VINA RESULT:      -5.6      3.254      6.051
REMARK  Name = 
REMARK  5 active torsions:
REMARK  status: ('A' for Active; 'I' for Inactive)
REMARK    1  A    between atoms: C_1  and  N_2
REMARK    2  A    between atoms: N_2  and  C_3
REMARK    3  A    between atoms: C_8  and  C_9
REMARK    4  A    between atoms: C_13  and  C_15
REMARK    5  A    between atoms: C_15  and  O_16
REMARK                            x       y       z     vdW  Elec       q    Type
REMARK                         _______ _______ _______ _____ _____    ______ ____
ROOT
ATOM      1  C   UNL     1       4.947   4.574  16.779  0.00  0.00    +0.000 C 
ATOM      2  C   UNL     1       6.281   4.183  17.430  0.00  0.00    +0.000 C 
ATOM      3  C   UNL     1       6.835   5.253  18.368  0.00  0.00    +0.000 C 
ATOM      4  N   UNL     1       6.873   6.571  17.736  0.00  0.00    +0.000 N 
ATOM      5  C   UNL     1       7.840   7.468  18.178  0.00  0.00    +0.000 C 
ATOM      6  O   UNL     1       8.704   7.179  19.014  0.00  0.00    +0.000 OA
ATOM      7  C   UNL     1       5.625   7.016  17.115  0.00  0.00    +0.000 C 
ATOM      8  C   UNL     1       5.049   5.975  16.160  0.00  0.00    +0.000 C 
ENDROOT
BRANCH   1  16
ATOM      9  C   UNL     1       1.883   2.221  21.463  0.00  0.00    +0.000 C 
ATOM     10  N   UNL     1       3.066   2.834  20.874  0.00  0.00    +0.000 N 
ATOM     11  C   UNL     1       4.294   2.045  20.915  0.00  0.00    +0.000 C 
ATOM     12  C   UNL     1       2.894   3.598  19.715  0.00  0.00    +0.000 A 
ATOM     13  C   UNL     1       1.724   4.311  19.431  0.00  0.00    +0.000 A 
ATOM     14  N   UNL     1       1.534   5.077  18.325  0.00  0.00    +0.000 NA
ATOM     15  C   UNL     1       2.587   5.133  17.484  0.00  0.00    +0.000 A 
ATOM     16  C   UNL     1       3.771   4.457  17.726  0.00  0.00    +0.000 A 
ATOM     17  N   UNL     1       3.923   3.693  18.840  0.00  0.00    +0.000 NA
ENDBRANCH   1  16
BRANCH   5  18
ATOM     18  C   UNL     1       7.830   8.877  17.565  0.00  0.00    +0.000 C 
BRANCH  18  19
ATOM     19  O   UNL     1       8.593   9.807  18.321  0.00  0.00    +0.000 OA
ATOM     20  H   UNL     1       8.051  10.013  19.109  0.00  0.00    +0.000 HD
ENDBRANCH  18  19
ENDBRANCH   5  18
TORSDOF 3
ENDMDL
MODEL 9
REMARK VINA RESULT:      -5.5      3.715      5.850
REMARK  Name = 
REMARK  5 active torsions:
REMARK  status: ('A' for Active; 'I' for Inactive)
REMARK    1  A    between atoms: C_1  and  N_2
REMARK    2  A    between atoms: N_2  and  C_3
REMARK    3  A    between atoms: C_8  and  C_9
REMARK    4  A    between atoms: C_13  and  C_15
REMARK    5  A    between atoms: C_15  and  O_16
REMARK                            x       y       z     vdW  Elec       q    Type
REMARK                         _______ _______ _______ _____ _____    ______ ____
ROOT
ATOM      1  C   UNL     1       3.292   3.524  18.740  0.00  0.00    +0.000 C 
ATOM      2  C   UNL     1       4.703   3.225  19.266  0.00  0.00    +0.000 C 
ATOM      3  C   UNL     1       5.775   4.144  18.683  0.00  0.00    +0.000 C 
ATOM      4  N   UNL     1       5.711   4.205  17.224  0.00  0.00    +0.000 N 
ATOM      5  C   UNL     1       6.892   4.472  16.539  0.00  0.00    +0.000 C 
ATOM      6  O   UNL     1       7.990   4.581  17.097  0.00  0.00    +0.000 OA
ATOM      7  C   UNL     1       4.397   4.510  16.656  0.00  0.00    +0.000 C 
ATOM      8  C   UNL     1       3.302   3.602  17.207  0.00  0.00    +0.000 C 
ENDROOT
BRANCH   1  16
ATOM      9  C   UNL     1       2.069   9.459  19.114  0.00  0.00    +0.000 C 
ATOM     10  N   UNL     1       2.077   8.187  18.403  0.00  0.00    +0.000 N 
ATOM     11  C   UNL     1       2.859   8.138  17.171  0.00  0.00    +0.000 C 
ATOM     12  C   UNL     1       2.105   7.016  19.168  0.00  0.00    +0.000 A 
ATOM     13  C   UNL     1       1.532   6.915  20.440  0.00  0.00    +0.000 A 
ATOM     14  N   UNL     1       1.525   5.787  21.199  0.00  0.00    +0.000 NA
ATOM     15  C   UNL     1       2.110   4.715  20.628  0.00  0.00    +0.000 A 
ATOM     16  C   UNL     1       2.679   4.759  19.366  0.00  0.00    +0.000 A 
ATOM     17  N   UNL     1       2.674   5.908  18.639  0.00  0.00    +0.000 NA
ENDBRANCH   1  16
BRANCH   5  18
ATOM     18  C   UNL     1       6.808   4.610  15.012  0.00  0.00    +0.000 C 
BRANCH  18  19
ATOM     19  O   UNL     1       7.796   5.486  14.487  0.00  0.00    +0.000 OA
ATOM     20  H   UNL     1       7.676   5.467  13.516  0.00  0.00    +0.000 HD
ENDBRANCH  18  19
ENDBRANCH   5  18
TORSDOF 3
ENDMDL
