MODEL 1
REMARK VINA RESULT:      -9.2      0.000      0.000
REMARK  Name = 
REMARK  9 active torsions:
REMARK  status: ('A' for Active; 'I' for Inactive)
REMARK    1  A    between atoms: C_1  and  O_2
REMARK    2  A    between atoms: O_2  and  C_3
REMARK    3  A    between atoms: C_3  and  C_5
REMARK    4  A    between atoms: C_10  and  N_11
REMARK    5  A    between atoms: N_14  and  C_15
REMARK    6  A    between atoms: C_19  and  O_20
REMARK    7  A    between atoms: O_20  and  C_21
REMARK    8  A    between atoms: C_21  and  C_22
REMARK    9  A    between atoms: C_30  and  C_31
REMARK                            x       y       z     vdW  Elec       q    Type
REMARK                         _______ _______ _______ _____ _____    ______ ____
ROOT
ATOM      1  C   UNL     1       2.990   2.922  18.523  0.00  0.00    +0.000 A 
ATOM      2  C   UNL     1       2.018   1.917  18.496  0.00  0.00    +0.000 A 
ATOM      3  C   UNL     1       0.836   2.035  19.227  0.00  0.00    +0.000 A 
ATOM      4  C   UNL     1       0.602   3.167  19.996  0.00  0.00    +0.000 A 
ATOM      5  C   UNL     1       1.536   4.202  20.015  0.00  0.00    +0.000 A 
ATOM      6  C   UNL     1       2.742   4.064  19.303  0.00  0.00    +0.000 A 
ENDROOT
BRANCH   1  10
ATOM      7  N   UNL     1       5.715   3.065  16.079  0.00  0.00    +0.000 N 
ATOM      8  C   UNL     1       4.563   3.544  16.692  0.00  0.00    +0.000 C 
ATOM      9  O   UNL     1       3.932   4.504  16.261  0.00  0.00    +0.000 OA
ATOM     10  N   UNL     1       4.216   2.805  17.814  0.00  0.00    +0.000 N 
ATOM     11  H   UNL     1       5.773   2.053  16.042  0.00  0.00    +0.000 HD
ATOM     12  H   UNL     1       4.974   2.322  18.276  0.00  0.00    +0.000 HD
BRANCH   7  18
ATOM     13  C   UNL     1       7.104   4.888  15.112  0.00  0.00    +0.000 A 
ATOM     14  C   UNL     1       7.667   5.492  13.970  0.00  0.00    +0.000 A 
ATOM     15  C   UNL     1       7.401   5.000  12.693  0.00  0.00    +0.000 A 
ATOM     16  C   UNL     1       6.577   3.892  12.543  0.00  0.00    +0.000 A 
ATOM     17  C   UNL     1       6.026   3.274  13.670  0.00  0.00    +0.000 A 
ATOM     18  C   UNL     1       6.286   3.753  14.967  0.00  0.00    +0.000 A 
BRANCH  13  19
ATOM     19  C   UNL     1       7.542   5.455  16.413  0.00  0.00    +0.000 C 
ATOM     20  O   UNL     1       7.812   4.763  17.383  0.00  0.00    +0.000 OA
BRANCH  19  22
ATOM     21  C   UNL     1       7.469   7.443  17.627  0.00  0.00    +0.000 C 
ATOM     22  O   UNL     1       7.646   6.808  16.356  0.00  0.00    +0.000 OA
ENDBRANCH  19  22
ENDBRANCH  13  19
ENDBRANCH   7  18
ENDBRANCH   1  10
BRANCH   5  23
ATOM     23  O   UNL     1       1.359   5.380  20.698  0.00  0.00    +0.000 OA
BRANCH  23  24
ATOM     24  C   UNL     1       2.430   6.337  20.576  0.00  0.00    +0.000 C 
BRANCH  24  25
ATOM     25  C   UNL     1       1.932   7.700  20.129  0.00  0.00    +0.000 A 
ATOM     26  C   UNL     1       2.172   8.172  18.900  0.00  0.00    +0.000 A 
ATOM     27  C   UNL     1       1.556   9.437  18.487  0.00  0.00    +0.000 A 
ATOM     28  O   UNL     1       1.798   9.869  17.359  0.00  0.00    +0.000 OA
ATOM     29  N   UNL     1       0.717  10.031  19.416  0.00  0.00    +0.000 N 
ATOM     30  C   UNL     1       0.004  11.161  19.043  0.00  0.00    +0.000 A 
ATOM     31  C   UNL     1      -0.825  11.784  19.888  0.00  0.00    +0.000 A 
ATOM     32  C   UNL     1      -0.947  11.317  21.241  0.00  0.00    +0.000 A 
ATOM     33  C   UNL     1      -0.267  10.243  21.672  0.00  0.00    +0.000 A 
ATOM     34  C   UNL     1      -0.309   9.769  23.091  0.00  0.00    +0.000 C 
ATOM     35  C   UNL     1       0.596   9.484  20.692  0.00  0.00    +0.000 A 
ATOM     36  N   UNL     1       1.177   8.382  21.059  0.00  0.00    +0.000 NA
ENDBRANCH  24  25
ENDBRANCH  23  24
ENDBRANCH   5  23
TORSDOF 7
ENDMDL
MODEL 2
REMARK VINA RESULT:      -9.1      1.395      2.297
REMARK  Name = 
REMARK  9 active torsions:
REMARK  status: ('A' for Active; 'I' for Inactive)
REMARK    1  A    between atoms: C_1  and  O_2
REMARK    2  A    between atoms: O_2  and  C_3
REMARK    3  A    between atoms: C_3  and  C_5
REMARK    4  A    between atoms: C_10  and  N_11
REMARK    5  A    between atoms: N_14  and  C_15
REMARK    6  A    between atoms: C_19  and  O_20
REMARK    7  A    between atoms: O_20  and  C_21
REMARK    8  A    between atoms: C_21  and  C_22
REMARK    9  A    between atoms: C_30  and  C_31
REMARK                            x       y       z     vdW  Elec       q    Type
REMARK                         _______ _______ _______ _____ _____    ______ ____
ROOT
ATOM      1  C   UNL     1       3.215   3.641  18.778  0.00  0.00    +0.000 A 
ATOM      2  C   UNL     1       2.124   2.808  19.040  0.00  0.00    +0.000 A 
ATOM      3  C   UNL     1       1.109   3.201  19.913  0.00  0.00    +0.000 A 
ATOM      4  C   UNL     1       1.166   4.441  20.535  0.00  0.00    +0.000 A 
ATOM      5  C   UNL     1       2.223   5.309  20.266  0.00  0.00    +0.000 A 
ATOM      6  C   UNL     1       3.262   4.894  19.411  0.00  0.00    +0.000 A 
ENDROOT
BRANCH   1  10
ATOM      7  N   UNL     1       5.575   3.182  16.013  0.00  0.00    +0.000 N 
ATOM      8  C   UNL     1       4.664   3.912  16.768  0.00  0.00    +0.000 C 
ATOM      9  O   UNL     1       4.252   5.015  16.423  0.00  0.00    +0.000 OA
ATOM     10  N   UNL     1       4.278   3.244  17.920  0.00  0.00    +0.000 N 
ATOM     11  H   UNL     1       5.369   2.189  15.964  0.00  0.00    +0.000 HD
ATOM     12  H   UNL     1       4.937   2.569  18.282  0.00  0.00    +0.000 HD
BRANCH   7  18
ATOM     13  C   UNL     1       7.067   4.821  14.886  0.00  0.00    +0.000 A 
ATOM     14  C   UNL     1       7.642   5.298  13.690  0.00  0.00    +0.000 A 
ATOM     15  C   UNL     1       7.307   4.737  12.459  0.00  0.00    +0.000 A 
ATOM     16  C   UNL     1       6.401   3.687  12.408  0.00  0.00    +0.000 A 
ATOM     17  C   UNL     1       5.836   3.194  13.589  0.00  0.00    +0.000 A 
ATOM     18  C   UNL     1       6.165   3.743  14.842  0.00  0.00    +0.000 A 
BRANCH  13  19
ATOM     19  C   UNL     1       7.580   5.446  16.132  0.00  0.00    +0.000 C 
ATOM     20  O   UNL     1       7.611   6.654  16.306  0.00  0.00    +0.000 OA
BRANCH  19  22
ATOM     21  C   UNL     1       7.684   4.894  18.394  0.00  0.00    +0.000 C 
ATOM     22  O   UNL     1       7.950   4.508  17.042  0.00  0.00    +0.000 OA
ENDBRANCH  19  22
ENDBRANCH  13  19
ENDBRANCH   7  18
ENDBRANCH   1  10
BRANCH   5  23
ATOM     23  O   UNL     1       2.328   6.573  20.789  0.00  0.00    +0.000 OA
BRANCH  23  24
ATOM     24  C   UNL     1       1.845   7.638  19.947  0.00  0.00    +0.000 C 
BRANCH  24  25
ATOM     25  C   UNL     1       0.969   8.618  20.707  0.00  0.00    +0.000 A 
ATOM     26  C   UNL     1       0.954   8.662  22.045  0.00  0.00    +0.000 A 
ATOM     27  C   UNL     1       0.185   9.716  22.715  0.00  0.00    +0.000 A 
ATOM     28  O   UNL     1       0.166   9.736  23.947  0.00  0.00    +0.000 OA
ATOM     29  N   UNL     1      -0.443  10.628  21.884  0.00  0.00    +0.000 N 
ATOM     30  C   UNL     1      -1.081  11.720  22.453  0.00  0.00    +0.000 A 
ATOM     31  C   UNL     1      -1.704  12.641  21.710  0.00  0.00    +0.000 A 
ATOM     32  C   UNL     1      -1.776  12.477  20.284  0.00  0.00    +0.000 A 
ATOM     33  C   UNL     1      -1.200  11.430  19.673  0.00  0.00    +0.000 A 
ATOM     34  C   UNL     1      -1.315  11.184  18.202  0.00  0.00    +0.000 C 
ATOM     35  C   UNL     1      -0.415  10.441  20.503  0.00  0.00    +0.000 A 
ATOM     36  N   UNL     1       0.238   9.483  19.920  0.00  0.00    +0.000 NA
ENDBRANCH  24  25
ENDBRANCH  23  24
ENDBRANCH   5  23
TORSDOF 7
ENDMDL
MODEL 3
REMARK VINA RESULT:      -8.6      3.158      6.281
REMARK  Name = 
REMARK  9 active torsions:
REMARK  status: ('A' for Active; 'I' for Inactive)
REMARK    1  A    between atoms: C_1  and  O_2
REMARK    2  A    between atoms: O_2  and  C_3
REMARK    3  A    between atoms: C_3  and  C_5
REMARK    4  A    between atoms: C_10  and  N_11
REMARK    5  A    between atoms: N_14  and  C_15
REMARK    6  A    between atoms: C_19  and  O_20
REMARK    7  A    between atoms: O_20  and  C_21
REMARK    8  A    between atoms: C_21  and  C_22
REMARK    9  A    between atoms: C_30  and  C_31
REMARK                            x       y       z     vdW  Elec       q    Type
REMARK                         _______ _______ _______ _____ _____    ______ ____
ROOT
ATOM      1  C   UNL     1       0.934   8.897  21.495  0.00  0.00    +0.000 A 
ATOM      2  C   UNL     1       0.164   8.910  22.662  0.00  0.00    +0.000 A 
ATOM      3  C   UNL     1      -0.694   9.971  22.948  0.00  0.00    +0.000 A 
ATOM      4  C   UNL     1      -0.802  11.039  22.068  0.00  0.00    +0.000 A 
ATOM      5  C   UNL     1      -0.074  11.038  20.879  0.00  0.00    +0.000 A 
ATOM      6  C   UNL     1       0.817   9.981  20.610  0.00  0.00    +0.000 A 
ENDROOT
BRANCH   1  10
ATOM      7  N   UNL     1       2.923   6.243  19.938  0.00  0.00    +0.000 N 
ATOM      8  C   UNL     1       2.202   7.432  19.927  0.00  0.00    +0.000 C 
ATOM      9  O   UNL     1       1.915   8.023  18.891  0.00  0.00    +0.000 OA
ATOM     10  N   UNL     1       1.841   7.842  21.202  0.00  0.00    +0.000 N 
ATOM     11  H   UNL     1       2.577   5.556  20.600  0.00  0.00    +0.000 HD
ATOM     12  H   UNL     1       2.433   7.518  21.954  0.00  0.00    +0.000 HD
BRANCH   7  18
ATOM     13  C   UNL     1       3.086   4.462  18.210  0.00  0.00    +0.000 A 
ATOM     14  C   UNL     1       3.637   4.019  16.990  0.00  0.00    +0.000 A 
ATOM     15  C   UNL     1       4.577   4.787  16.306  0.00  0.00    +0.000 A 
ATOM     16  C   UNL     1       4.972   6.012  16.827  0.00  0.00    +0.000 A 
ATOM     17  C   UNL     1       4.421   6.470  18.027  0.00  0.00    +0.000 A 
ATOM     18  C   UNL     1       3.467   5.712  18.731  0.00  0.00    +0.000 A 
BRANCH  13  19
ATOM     19  C   UNL     1       2.030   3.591  18.786  0.00  0.00    +0.000 C 
ATOM     20  O   UNL     1       1.039   3.246  18.160  0.00  0.00    +0.000 OA
BRANCH  19  22
ATOM     21  C   UNL     1       1.205   3.165  20.923  0.00  0.00    +0.000 C 
ATOM     22  O   UNL     1       2.339   3.204  20.050  0.00  0.00    +0.000 OA
ENDBRANCH  19  22
ENDBRANCH  13  19
ENDBRANCH   7  18
ENDBRANCH   1  10
BRANCH   5  23
ATOM     23  O   UNL     1      -0.164  12.021  19.925  0.00  0.00    +0.000 OA
BRANCH  23  24
ATOM     24  C   UNL     1      -0.407  11.564  18.580  0.00  0.00    +0.000 C 
BRANCH  24  25
ATOM     25  C   UNL     1      -1.880  11.606  18.218  0.00  0.00    +0.000 A 
ATOM     26  C   UNL     1      -2.330  11.175  17.033  0.00  0.00    +0.000 A 
ATOM     27  C   UNL     1      -3.776  11.122  16.794  0.00  0.00    +0.000 A 
ATOM     28  O   UNL     1      -4.177  10.739  15.694  0.00  0.00    +0.000 OA
ATOM     29  N   UNL     1      -4.579  11.491  17.861  0.00  0.00    +0.000 N 
ATOM     30  C   UNL     1      -5.953  11.343  17.744  0.00  0.00    +0.000 A 
ATOM     31  C   UNL     1      -6.786  11.677  18.735  0.00  0.00    +0.000 A 
ATOM     32  C   UNL     1      -6.264  12.263  19.939  0.00  0.00    +0.000 A 
ATOM     33  C   UNL     1      -4.946  12.454  20.106  0.00  0.00    +0.000 A 
ATOM     34  C   UNL     1      -4.369  13.128  21.311  0.00  0.00    +0.000 C 
ATOM     35  C   UNL     1      -3.998  11.990  19.026  0.00  0.00    +0.000 A 
ATOM     36  N   UNL     1      -2.715  12.068  19.213  0.00  0.00    +0.000 NA
ENDBRANCH  24  25
ENDBRANCH  23  24
ENDBRANCH   5  23
TORSDOF 7
ENDMDL
MODEL 4
REMARK VINA RESULT:      -8.6      1.590      2.334
REMARK  Name = 
REMARK  9 active torsions:
REMARK  status: ('A' for Active; 'I' for Inactive)
REMARK    1  A    between atoms: C_1  and  O_2
REMARK    2  A    between atoms: O_2  and  C_3
REMARK    3  A    between atoms: C_3  and  C_5
REMARK    4  A    between atoms: C_10  and  N_11
REMARK    5  A    between atoms: N_14  and  C_15
REMARK    6  A    between atoms: C_19  and  O_20
REMARK    7  A    between atoms: O_20  and  C_21
REMARK    8  A    between atoms: C_21  and  C_22
REMARK    9  A    between atoms: C_30  and  C_31
REMARK                            x       y       z     vdW  Elec       q    Type
REMARK                         _______ _______ _______ _____ _____    ______ ____
ROOT
ATOM      1  C   UNL     1       3.004   3.974  18.746  0.00  0.00    +0.000 A 
ATOM      2  C   UNL     1       2.070   3.149  19.380  0.00  0.00    +0.000 A 
ATOM      3  C   UNL     1       1.120   3.675  20.255  0.00  0.00    +0.000 A 
ATOM      4  C   UNL     1       1.082   5.040  20.507  0.00  0.00    +0.000 A 
ATOM      5  C   UNL     1       1.977   5.892  19.863  0.00  0.00    +0.000 A 
ATOM      6  C   UNL     1       2.957   5.354  19.006  0.00  0.00    +0.000 A 
ENDROOT
BRANCH   1  10
ATOM      7  N   UNL     1       5.301   3.272  15.979  0.00  0.00    +0.000 N 
ATOM      8  C   UNL     1       4.504   4.102  16.759  0.00  0.00    +0.000 C 
ATOM      9  O   UNL     1       4.272   5.270  16.461  0.00  0.00    +0.000 OA
ATOM     10  N   UNL     1       4.004   3.454  17.879  0.00  0.00    +0.000 N 
ATOM     11  H   UNL     1       4.945   2.326  15.886  0.00  0.00    +0.000 HD
ATOM     12  H   UNL     1       4.547   2.671  18.215  0.00  0.00    +0.000 HD
BRANCH   7  18
ATOM     13  C   UNL     1       7.021   4.733  14.933  0.00  0.00    +0.000 A 
ATOM     14  C   UNL     1       7.680   5.164  13.764  0.00  0.00    +0.000 A 
ATOM     15  C   UNL     1       7.303   4.687  12.510  0.00  0.00    +0.000 A 
ATOM     16  C   UNL     1       6.269   3.766  12.409  0.00  0.00    +0.000 A 
ATOM     17  C   UNL     1       5.618   3.319  13.562  0.00  0.00    +0.000 A 
ATOM     18  C   UNL     1       5.986   3.785  14.838  0.00  0.00    +0.000 A 
BRANCH  13  19
ATOM     19  C   UNL     1       7.582   5.249  16.208  0.00  0.00    +0.000 C 
ATOM     20  O   UNL     1       8.047   4.521  17.071  0.00  0.00    +0.000 OA
BRANCH  19  22
ATOM     21  C   UNL     1       7.435   7.127  17.580  0.00  0.00    +0.000 C 
ATOM     22  O   UNL     1       7.551   6.606  16.251  0.00  0.00    +0.000 OA
ENDBRANCH  19  22
ENDBRANCH  13  19
ENDBRANCH   7  18
ENDBRANCH   1  10
BRANCH   5  23
ATOM     23  O   UNL     1       1.973   7.257  20.006  0.00  0.00    +0.000 OA
BRANCH  23  24
ATOM     24  C   UNL     1       1.716   7.743  21.338  0.00  0.00    +0.000 C 
BRANCH  24  25
ATOM     25  C   UNL     1       0.718   8.887  21.349  0.00  0.00    +0.000 A 
ATOM     26  C   UNL     1       0.422   9.556  22.470  0.00  0.00    +0.000 A 
ATOM     27  C   UNL     1      -0.452  10.732  22.389  0.00  0.00    +0.000 A 
ATOM     28  O   UNL     1      -0.730  11.329  23.430  0.00  0.00    +0.000 OA
ATOM     29  N   UNL     1      -0.873  11.086  21.119  0.00  0.00    +0.000 N 
ATOM     30  C   UNL     1      -1.596  12.258  20.958  0.00  0.00    +0.000 A 
ATOM     31  C   UNL     1      -2.032  12.662  19.760  0.00  0.00    +0.000 A 
ATOM     32  C   UNL     1      -1.804  11.839  18.604  0.00  0.00    +0.000 A 
ATOM     33  C   UNL     1      -1.131  10.681  18.695  0.00  0.00    +0.000 A 
ATOM     34  C   UNL     1      -0.938   9.760  17.532  0.00  0.00    +0.000 C 
ATOM     35  C   UNL     1      -0.558  10.272  20.032  0.00  0.00    +0.000 A 
ATOM     36  N   UNL     1       0.186   9.212  20.119  0.00  0.00    +0.000 NA
ENDBRANCH  24  25
ENDBRANCH  23  24
ENDBRANCH   5  23
TORSDOF 7
ENDMDL
MODEL 5
REMARK VINA RESULT:      -8.3      1.442      9.153
REMARK  Name = 
REMARK  9 active torsions:
REMARK  status: ('A' for Active; 'I' for Inactive)
REMARK    1  A    between atoms: C_1  and  O_2
REMARK    2  A    between atoms: O_2  and  C_3
REMARK    3  A    between atoms: C_3  and  C_5
REMARK    4  A    between atoms: C_10  and  N_11
REMARK    5  A    between atoms: N_14  and  C_15
REMARK    6  A    between atoms: C_19  and  O_20
REMARK    7  A    between atoms: O_20  and  C_21
REMARK    8  A    between atoms: C_21  and  C_22
REMARK    9  A    between atoms: C_30  and  C_31
REMARK                            x       y       z     vdW  Elec       q    Type
REMARK                         _______ _______ _______ _____ _____    ______ ____
ROOT
ATOM      1  C   UNL     1       1.880   5.235  20.194  0.00  0.00    +0.000 A 
ATOM      2  C   UNL     1       1.149   4.211  20.803  0.00  0.00    +0.000 A 
ATOM      3  C   UNL     1       0.964   2.982  20.169  0.00  0.00    +0.000 A 
ATOM      4  C   UNL     1       1.514   2.753  18.915  0.00  0.00    +0.000 A 
ATOM      5  C   UNL     1       2.278   3.742  18.298  0.00  0.00    +0.000 A 
ATOM      6  C   UNL     1       2.433   4.993  18.926  0.00  0.00    +0.000 A 
ENDROOT
BRANCH   1  10
ATOM      7  N   UNL     1       1.536   8.676  21.403  0.00  0.00    +0.000 N 
ATOM      8  C   UNL     1       1.043   7.445  20.986  0.00  0.00    +0.000 C 
ATOM      9  O   UNL     1      -0.151   7.241  20.792  0.00  0.00    +0.000 OA
ATOM     10  N   UNL     1       2.049   6.507  20.806  0.00  0.00    +0.000 N 
ATOM     11  H   UNL     1       2.396   8.955  20.940  0.00  0.00    +0.000 HD
ATOM     12  H   UNL     1       2.892   6.654  21.344  0.00  0.00    +0.000 HD
BRANCH   7  18
ATOM     13  C   UNL     1       0.425  10.841  20.889  0.00  0.00    +0.000 A 
ATOM     14  C   UNL     1      -0.500  11.836  21.267  0.00  0.00    +0.000 A 
ATOM     15  C   UNL     1      -1.176  11.763  22.483  0.00  0.00    +0.000 A 
ATOM     16  C   UNL     1      -0.945  10.689  23.333  0.00  0.00    +0.000 A 
ATOM     17  C   UNL     1      -0.043   9.687  22.962  0.00  0.00    +0.000 A 
ATOM     18  C   UNL     1       0.647   9.741  21.737  0.00  0.00    +0.000 A 
BRANCH  13  19
ATOM     19  C   UNL     1       1.005  10.994  19.530  0.00  0.00    +0.000 C 
ATOM     20  O   UNL     1       0.731  10.248  18.603  0.00  0.00    +0.000 OA
BRANCH  19  22
ATOM     21  C   UNL     1       1.463  12.982  18.403  0.00  0.00    +0.000 C 
ATOM     22  O   UNL     1       1.818  12.079  19.456  0.00  0.00    +0.000 OA
ENDBRANCH  19  22
ENDBRANCH  13  19
ENDBRANCH   7  18
ENDBRANCH   1  10
BRANCH   5  23
ATOM     23  O   UNL     1       2.907   3.581  17.089  0.00  0.00    +0.000 OA
BRANCH  23  24
ATOM     24  C   UNL     1       4.274   3.132  17.153  0.00  0.00    +0.000 C 
BRANCH  24  25
ATOM     25  C   UNL     1       5.190   3.953  16.263  0.00  0.00    +0.000 A 
ATOM     26  C   UNL     1       5.981   4.913  16.757  0.00  0.00    +0.000 A 
ATOM     27  C   UNL     1       6.935   5.582  15.866  0.00  0.00    +0.000 A 
ATOM     28  O   UNL     1       7.645   6.476  16.329  0.00  0.00    +0.000 OA
ATOM     29  N   UNL     1       6.969   5.119  14.561  0.00  0.00    +0.000 N 
ATOM     30  C   UNL     1       7.935   5.620  13.701  0.00  0.00    +0.000 A 
ATOM     31  C   UNL     1       8.027   5.216  12.429  0.00  0.00    +0.000 A 
ATOM     32  C   UNL     1       7.069   4.280  11.907  0.00  0.00    +0.000 A 
ATOM     33  C   UNL     1       6.095   3.775  12.681  0.00  0.00    +0.000 A 
ATOM     34  C   UNL     1       5.035   2.858  12.158  0.00  0.00    +0.000 C 
ATOM     35  C   UNL     1       6.049   4.159  14.141  0.00  0.00    +0.000 A 
ATOM     36  N   UNL     1       5.183   3.601  14.930  0.00  0.00    +0.000 NA
ENDBRANCH  24  25
ENDBRANCH  23  24
ENDBRANCH   5  23
TORSDOF 7
ENDMDL
MODEL 6
REMARK VINA RESULT:      -8.2      1.528      2.287
REMARK  Name = 
REMARK  9 active torsions:
REMARK  status: ('A' for Active; 'I' for Inactive)
REMARK    1  A    between atoms: C_1  and  O_2
REMARK    2  A    between atoms: O_2  and  C_3
REMARK    3  A    between atoms: C_3  and  C_5
REMARK    4  A    between atoms: C_10  and  N_11
REMARK    5  A    between atoms: N_14  and  C_15
REMARK    6  A    between atoms: C_19  and  O_20
REMARK    7  A    between atoms: O_20  and  C_21
REMARK    8  A    between atoms: C_21  and  C_22
REMARK    9  A    between atoms: C_30  and  C_31
REMARK                            x       y       z     vdW  Elec       q    Type
REMARK                         _______ _______ _______ _____ _____    ______ ____
ROOT
ATOM      1  C   UNL     1       3.142   4.043  18.986  0.00  0.00    +0.000 A 
ATOM      2  C   UNL     1       2.185   3.194  19.550  0.00  0.00    +0.000 A 
ATOM      3  C   UNL     1       1.203   3.685  20.411  0.00  0.00    +0.000 A 
ATOM      4  C   UNL     1       1.157   5.038  20.718  0.00  0.00    +0.000 A 
ATOM      5  C   UNL     1       2.077   5.915  20.144  0.00  0.00    +0.000 A 
ATOM      6  C   UNL     1       3.087   5.410  19.303  0.00  0.00    +0.000 A 
ENDROOT
BRANCH   1  10
ATOM      7  N   UNL     1       5.433   3.338  16.216  0.00  0.00    +0.000 N 
ATOM      8  C   UNL     1       4.566   4.145  16.943  0.00  0.00    +0.000 C 
ATOM      9  O   UNL     1       4.192   5.244  16.545  0.00  0.00    +0.000 OA
ATOM     10  N   UNL     1       4.173   3.557  18.136  0.00  0.00    +0.000 N 
ATOM     11  H   UNL     1       5.187   2.354  16.224  0.00  0.00    +0.000 HD
ATOM     12  H   UNL     1       4.811   2.876  18.524  0.00  0.00    +0.000 HD
BRANCH   7  18
ATOM     13  C   UNL     1       7.005   4.819  14.982  0.00  0.00    +0.000 A 
ATOM     14  C   UNL     1       7.575   5.208  13.752  0.00  0.00    +0.000 A 
ATOM     15  C   UNL     1       7.159   4.629  12.554  0.00  0.00    +0.000 A 
ATOM     16  C   UNL     1       6.177   3.648  12.571  0.00  0.00    +0.000 A 
ATOM     17  C   UNL     1       5.616   3.242  13.786  0.00  0.00    +0.000 A 
ATOM     18  C   UNL     1       6.025   3.811  15.006  0.00  0.00    +0.000 A 
BRANCH  13  19
ATOM     19  C   UNL     1       7.603   5.448  16.187  0.00  0.00    +0.000 C 
ATOM     20  O   UNL     1       7.642   6.657  16.356  0.00  0.00    +0.000 OA
BRANCH  19  22
ATOM     21  C   UNL     1       7.777   4.858  18.435  0.00  0.00    +0.000 C 
ATOM     22  O   UNL     1       8.040   4.514  17.071  0.00  0.00    +0.000 OA
ENDBRANCH  19  22
ENDBRANCH  13  19
ENDBRANCH   7  18
ENDBRANCH   1  10
BRANCH   5  23
ATOM     23  O   UNL     1       2.069   7.273  20.345  0.00  0.00    +0.000 OA
BRANCH  23  24
ATOM     24  C   UNL     1       0.944   7.787  21.085  0.00  0.00    +0.000 C 
BRANCH  24  25
ATOM     25  C   UNL     1       0.650   9.237  20.747  0.00  0.00    +0.000 A 
ATOM     26  C   UNL     1       1.311  10.246  21.326  0.00  0.00    +0.000 A 
ATOM     27  C   UNL     1       1.069  11.617  20.863  0.00  0.00    +0.000 A 
ATOM     28  O   UNL     1       1.672  12.539  21.415  0.00  0.00    +0.000 OA
ATOM     29  N   UNL     1       0.185  11.750  19.806  0.00  0.00    +0.000 N 
ATOM     30  C   UNL     1       0.009  13.003  19.238  0.00  0.00    +0.000 A 
ATOM     31  C   UNL     1      -0.826  13.204  18.213  0.00  0.00    +0.000 A 
ATOM     32  C   UNL     1      -1.616  12.112  17.713  0.00  0.00    +0.000 A 
ATOM     33  C   UNL     1      -1.511  10.880  18.234  0.00  0.00    +0.000 A 
ATOM     34  C   UNL     1      -2.367   9.735  17.793  0.00  0.00    +0.000 C 
ATOM     35  C   UNL     1      -0.498  10.633  19.328  0.00  0.00    +0.000 A 
ATOM     36  N   UNL     1      -0.304   9.428  19.771  0.00  0.00    +0.000 NA
ENDBRANCH  24  25
ENDBRANCH  23  24
ENDBRANCH   5  23
TORSDOF 7
ENDMDL
MODEL 7
REMARK VINA RESULT:      -8.2      3.139      6.629
REMARK  Name = 
REMARK  9 active torsions:
REMARK  status: ('A' for Active; 'I' for Inactive)
REMARK    1  A    between atoms: C_1  and  O_2
REMARK    2  A    between atoms: O_2  and  C_3
REMARK    3  A    between atoms: C_3  and  C_5
REMARK    4  A    between atoms: C_10  and  N_11
REMARK    5  A    between atoms: N_14  and  C_15
REMARK    6  A    between atoms: C_19  and  O_20
REMARK    7  A    between atoms: O_20  and  C_21
REMARK    8  A    between atoms: C_21  and  C_22
REMARK    9  A    between atoms: C_30  and  C_31
REMARK                            x       y       z     vdW  Elec       q    Type
REMARK                         _______ _______ _______ _____ _____    ______ ____
ROOT
ATOM      1  C   UNL     1       0.922   9.266  21.603  0.00  0.00    +0.000 A 
ATOM      2  C   UNL     1       0.274   9.226  22.841  0.00  0.00    +0.000 A 
ATOM      3  C   UNL     1      -0.575  10.256  23.245  0.00  0.00    +0.000 A 
ATOM      4  C   UNL     1      -0.795  11.346  22.413  0.00  0.00    +0.000 A 
ATOM      5  C   UNL     1      -0.191  11.398  21.158  0.00  0.00    +0.000 A 
ATOM      6  C   UNL     1       0.692  10.372  20.768  0.00  0.00    +0.000 A 
ENDROOT
BRANCH   1  10
ATOM      7  N   UNL     1       2.539   6.115  20.664  0.00  0.00    +0.000 N 
ATOM      8  C   UNL     1       1.447   6.966  20.801  0.00  0.00    +0.000 C 
ATOM      9  O   UNL     1       0.292   6.598  20.610  0.00  0.00    +0.000 OA
ATOM     10  N   UNL     1       1.819   8.245  21.188  0.00  0.00    +0.000 N 
ATOM     11  H   UNL     1       3.243   6.228  21.386  0.00  0.00    +0.000 HD
ATOM     12  H   UNL     1       2.759   8.524  20.942  0.00  0.00    +0.000 HD
BRANCH   7  18
ATOM     13  C   UNL     1       3.044   4.295  19.046  0.00  0.00    +0.000 A 
ATOM     14  C   UNL     1       2.856   2.956  18.648  0.00  0.00    +0.000 A 
ATOM     15  C   UNL     1       1.986   2.116  19.341  0.00  0.00    +0.000 A 
ATOM     16  C   UNL     1       1.300   2.601  20.447  0.00  0.00    +0.000 A 
ATOM     17  C   UNL     1       1.491   3.922  20.862  0.00  0.00    +0.000 A 
ATOM     18  C   UNL     1       2.368   4.785  20.178  0.00  0.00    +0.000 A 
BRANCH  13  19
ATOM     19  C   UNL     1       4.066   5.051  18.278  0.00  0.00    +0.000 C 
ATOM     20  O   UNL     1       4.010   5.203  17.067  0.00  0.00    +0.000 OA
BRANCH  19  22
ATOM     21  C   UNL     1       6.344   5.172  18.752  0.00  0.00    +0.000 C 
ATOM     22  O   UNL     1       5.015   5.576  19.095  0.00  0.00    +0.000 OA
ENDBRANCH  19  22
ENDBRANCH  13  19
ENDBRANCH   7  18
ENDBRANCH   1  10
BRANCH   5  23
ATOM     23  O   UNL     1      -0.398  12.405  20.249  0.00  0.00    +0.000 OA
BRANCH  23  24
ATOM     24  C   UNL     1      -0.578  11.985  18.883  0.00  0.00    +0.000 C 
BRANCH  24  25
ATOM     25  C   UNL     1      -2.044  11.887  18.501  0.00  0.00    +0.000 A 
ATOM     26  C   UNL     1      -2.434  11.432  17.304  0.00  0.00    +0.000 A 
ATOM     27  C   UNL     1      -3.865  11.241  17.044  0.00  0.00    +0.000 A 
ATOM     28  O   UNL     1      -4.212  10.837  15.933  0.00  0.00    +0.000 OA
ATOM     29  N   UNL     1      -4.713  11.513  18.105  0.00  0.00    +0.000 N 
ATOM     30  C   UNL     1      -6.064  11.232  17.967  0.00  0.00    +0.000 A 
ATOM     31  C   UNL     1      -6.939  11.468  18.950  0.00  0.00    +0.000 A 
ATOM     32  C   UNL     1      -6.492  12.083  20.170  0.00  0.00    +0.000 A 
ATOM     33  C   UNL     1      -5.201  12.401  20.358  0.00  0.00    +0.000 A 
ATOM     34  C   UNL     1      -4.708  13.109  21.580  0.00  0.00    +0.000 C 
ATOM     35  C   UNL     1      -4.198  12.048  19.284  0.00  0.00    +0.000 A 
ATOM     36  N   UNL     1      -2.932  12.249  19.490  0.00  0.00    +0.000 NA
ENDBRANCH  24  25
ENDBRANCH  23  24
ENDBRANCH   5  23
TORSDOF 7
ENDMDL
MODEL 8
REMARK VINA RESULT:      -8.1      2.948      4.740
REMARK  Name = 
REMARK  9 active torsions:
REMARK  status: ('A' for Active; 'I' for Inactive)
REMARK    1  A    between atoms: C_1  and  O_2
REMARK    2  A    between atoms: O_2  and  C_3
REMARK    3  A    between atoms: C_3  and  C_5
REMARK    4  A    between atoms: C_10  and  N_11
REMARK    5  A    between atoms: N_14  and  C_15
REMARK    6  A    between atoms: C_19  and  O_20
REMARK    7  A    between atoms: O_20  and  C_21
REMARK    8  A    between atoms: C_21  and  C_22
REMARK    9  A    between atoms: C_30  and  C_31
REMARK                            x       y       z     vdW  Elec       q    Type
REMARK                         _______ _______ _______ _____ _____    ______ ____
ROOT
ATOM      1  C   UNL     1       1.940   7.604  19.707  0.00  0.00    +0.000 A 
ATOM      2  C   UNL     1       1.587   7.798  21.046  0.00  0.00    +0.000 A 
ATOM      3  C   UNL     1       0.927   8.955  21.458  0.00  0.00    +0.000 A 
ATOM      4  C   UNL     1       0.601   9.940  20.535  0.00  0.00    +0.000 A 
ATOM      5  C   UNL     1       0.908   9.759  19.187  0.00  0.00    +0.000 A 
ATOM      6  C   UNL     1       1.605   8.605  18.780  0.00  0.00    +0.000 A 
ENDROOT
BRANCH   1  10
ATOM      7  N   UNL     1       3.914   5.118  17.879  0.00  0.00    +0.000 N 
ATOM      8  C   UNL     1       3.551   6.415  18.223  0.00  0.00    +0.000 C 
ATOM      9  O   UNL     1       3.984   7.402  17.637  0.00  0.00    +0.000 OA
ATOM     10  N   UNL     1       2.645   6.449  19.273  0.00  0.00    +0.000 N 
ATOM     11  H   UNL     1       3.145   4.456  17.889  0.00  0.00    +0.000 HD
ATOM     12  H   UNL     1       2.665   5.655  19.898  0.00  0.00    +0.000 HD
BRANCH   7  18
ATOM     13  C   UNL     1       6.288   5.007  17.146  0.00  0.00    +0.000 A 
ATOM     14  C   UNL     1       7.218   4.717  16.127  0.00  0.00    +0.000 A 
ATOM     15  C   UNL     1       6.794   4.338  14.855  0.00  0.00    +0.000 A 
ATOM     16  C   UNL     1       5.435   4.232  14.587  0.00  0.00    +0.000 A 
ATOM     17  C   UNL     1       4.504   4.501  15.595  0.00  0.00    +0.000 A 
ATOM     18  C   UNL     1       4.912   4.881  16.886  0.00  0.00    +0.000 A 
BRANCH  13  19
ATOM     19  C   UNL     1       6.875   5.309  18.476  0.00  0.00    +0.000 C 
ATOM     20  O   UNL     1       6.419   4.867  19.520  0.00  0.00    +0.000 OA
BRANCH  19  22
ATOM     21  C   UNL     1       7.696   7.461  18.118  0.00  0.00    +0.000 C 
ATOM     22  O   UNL     1       7.987   6.081  18.366  0.00  0.00    +0.000 OA
ENDBRANCH  19  22
ENDBRANCH  13  19
ENDBRANCH   7  18
ENDBRANCH   1  10
BRANCH   5  23
ATOM     23  O   UNL     1       0.571  10.651  18.199  0.00  0.00    +0.000 OA
BRANCH  23  24
ATOM     24  C   UNL     1      -0.156  11.817  18.633  0.00  0.00    +0.000 C 
BRANCH  24  25
ATOM     25  C   UNL     1      -1.632  11.734  18.288  0.00  0.00    +0.000 A 
ATOM     26  C   UNL     1      -2.058  11.246  17.116  0.00  0.00    +0.000 A 
ATOM     27  C   UNL     1      -3.497  11.073  16.895  0.00  0.00    +0.000 A 
ATOM     28  O   UNL     1      -3.877  10.639  15.807  0.00  0.00    +0.000 OA
ATOM     29  N   UNL     1      -4.316  11.397  17.965  0.00  0.00    +0.000 N 
ATOM     30  C   UNL     1      -5.675  11.138  17.867  0.00  0.00    +0.000 A 
ATOM     31  C   UNL     1      -6.522  11.423  18.862  0.00  0.00    +0.000 A 
ATOM     32  C   UNL     1      -6.036  12.070  20.049  0.00  0.00    +0.000 A 
ATOM     33  C   UNL     1      -4.736  12.369  20.197  0.00  0.00    +0.000 A 
ATOM     34  C   UNL     1      -4.202  13.109  21.383  0.00  0.00    +0.000 C 
ATOM     35  C   UNL     1      -3.764  11.962  19.114  0.00  0.00    +0.000 A 
ATOM     36  N   UNL     1      -2.491  12.146  19.284  0.00  0.00    +0.000 NA
ENDBRANCH  24  25
ENDBRANCH  23  24
ENDBRANCH   5  23
TORSDOF 7
ENDMDL
MODEL 9
REMARK VINA RESULT:      -8.0      3.170      6.037
REMARK  Name = 
REMARK  9 active torsions:
REMARK  status: ('A' for Active; 'I' for Inactive)
REMARK    1  A    between atoms: C_1  and  O_2
REMARK    2  A    between atoms: O_2  and  C_3
REMARK    3  A    between atoms: C_3  and  C_5
REMARK    4  A    between atoms: C_10  and  N_11
REMARK    5  A    between atoms: N_14  and  C_15
REMARK    6  A    between atoms: C_19  and  O_20
REMARK    7  A    between atoms: O_20  and  C_21
REMARK    8  A    between atoms: C_21  and  C_22
REMARK    9  A    between atoms: C_30  and  C_31
REMARK                            x       y       z     vdW  Elec       q    Type
REMARK                         _______ _______ _______ _____ _____    ______ ____
ROOT
ATOM      1  C   UNL     1       1.326   8.494  21.113  0.00  0.00    +0.000 A 
ATOM      2  C   UNL     1       0.778   8.998  22.297  0.00  0.00    +0.000 A 
ATOM      3  C   UNL     1       0.026  10.173  22.301  0.00  0.00    +0.000 A 
ATOM      4  C   UNL     1      -0.196  10.864  21.118  0.00  0.00    +0.000 A 
ATOM      5  C   UNL     1       0.307  10.368  19.916  0.00  0.00    +0.000 A 
ATOM      6  C   UNL     1       1.094   9.200  19.921  0.00  0.00    +0.000 A 
ENDROOT
BRANCH   1  10
ATOM      7  N   UNL     1       2.774   5.186  20.498  0.00  0.00    +0.000 N 
ATOM      8  C   UNL     1       2.035   6.309  20.146  0.00  0.00    +0.000 C 
ATOM      9  O   UNL     1       1.371   6.370  19.116  0.00  0.00    +0.000 OA
ATOM     10  N   UNL     1       2.125   7.319  21.093  0.00  0.00    +0.000 N 
ATOM     11  H   UNL     1       2.719   4.947  21.483  0.00  0.00    +0.000 HD
ATOM     12  H   UNL     1       2.960   7.316  21.663  0.00  0.00    +0.000 HD
BRANCH   7  18
ATOM     13  C   UNL     1       4.016   3.865  18.795  0.00  0.00    +0.000 A 
ATOM     14  C   UNL     1       4.073   2.727  17.966  0.00  0.00    +0.000 A 
ATOM     15  C   UNL     1       3.012   1.824  17.912  0.00  0.00    +0.000 A 
ATOM     16  C   UNL     1       1.885   2.042  18.693  0.00  0.00    +0.000 A 
ATOM     17  C   UNL     1       1.824   3.159  19.533  0.00  0.00    +0.000 A 
ATOM     18  C   UNL     1       2.885   4.079  19.605  0.00  0.00    +0.000 A 
BRANCH  13  19
ATOM     19  C   UNL     1       5.249   4.692  18.826  0.00  0.00    +0.000 C 
ATOM     20  O   UNL     1       5.478   5.510  19.704  0.00  0.00    +0.000 OA
BRANCH  19  22
ATOM     21  C   UNL     1       7.383   4.965  17.931  0.00  0.00    +0.000 C 
ATOM     22  O   UNL     1       6.082   4.382  17.800  0.00  0.00    +0.000 OA
ENDBRANCH  19  22
ENDBRANCH  13  19
ENDBRANCH   7  18
ENDBRANCH   1  10
BRANCH   5  23
ATOM     23  O   UNL     1       0.086  10.952  18.694  0.00  0.00    +0.000 OA
BRANCH  23  24
ATOM     24  C   UNL     1      -0.644  12.194  18.720  0.00  0.00    +0.000 C 
BRANCH  24  25
ATOM     25  C   UNL     1      -2.113  12.002  18.389  0.00  0.00    +0.000 A 
ATOM     26  C   UNL     1      -2.515  11.512  17.210  0.00  0.00    +0.000 A 
ATOM     27  C   UNL     1      -3.939  11.231  17.002  0.00  0.00    +0.000 A 
ATOM     28  O   UNL     1      -4.298  10.796  15.907  0.00  0.00    +0.000 OA
ATOM     29  N   UNL     1      -4.766  11.461  18.089  0.00  0.00    +0.000 N 
ATOM     30  C   UNL     1      -6.101  11.096  18.000  0.00  0.00    +0.000 A 
ATOM     31  C   UNL     1      -6.955  11.287  19.012  0.00  0.00    +0.000 A 
ATOM     32  C   UNL     1      -6.505  11.940  20.210  0.00  0.00    +0.000 A 
ATOM     33  C   UNL     1      -5.231  12.339  20.351  0.00  0.00    +0.000 A 
ATOM     34  C   UNL     1      -4.742  13.088  21.550  0.00  0.00    +0.000 C 
ATOM     35  C   UNL     1      -4.246  12.038  19.246  0.00  0.00    +0.000 A 
ATOM     36  N   UNL     1      -2.988  12.319  19.407  0.00  0.00    +0.000 NA
ENDBRANCH  24  25
ENDBRANCH  23  24
ENDBRANCH   5  23
TORSDOF 7
ENDMDL
