MODEL 1
REMARK VINA RESULT:      -7.0      0.000      0.000
REMARK  Name = 
REMARK  15 active torsions:
REMARK  status: ('A' for Active; 'I' for Inactive)
REMARK    1  A    between atoms: C_1  and  C_2
REMARK    2  A    between atoms: C_2  and  C_3
REMARK    3  A    between atoms: C_3  and  C_4
REMARK    4  A    between atoms: C_4  and  N_5
REMARK    5  A    between atoms: N_5  and  C_6
REMARK    6  A    between atoms: N_5  and  C_10
REMARK    7  A    between atoms: C_6  and  C_7
REMARK    8  A    between atoms: C_7  and  C_8
REMARK    9  A    between atoms: C_8  and  C_9
REMARK   10  A    between atoms: C_10  and  C_11
REMARK   11  A    between atoms: C_11  and  C_12
REMARK   12  A    between atoms: C_12  and  O_13
REMARK   13  A    between atoms: O_13  and  C_14
REMARK   14  A    between atoms: C_17  and  C_18
REMARK   15  A    between atoms: C_25  and  C_26
REMARK                            x       y       z     vdW  Elec       q    Type
REMARK                         _______ _______ _______ _____ _____    ______ ____
ROOT
ATOM      1  C   UNL     1       2.775   7.138  18.785  0.00  0.00    +0.000 A 
ATOM      2  C   UNL     1       2.504   8.225  17.957  0.00  0.00    +0.000 A 
ATOM      3  C   UNL     1       1.669   9.254  18.386  0.00  0.00    +0.000 A 
ATOM      4  C   UNL     1       1.107   9.242  19.662  0.00  0.00    +0.000 A 
ATOM      5  C   UNL     1       1.351   8.132  20.484  0.00  0.00    +0.000 A 
ATOM      6  C   UNL     1       2.180   7.085  20.049  0.00  0.00    +0.000 A 
ENDROOT
BRANCH   4   7
ATOM      7  C   UNL     1       0.265  10.338  20.126  0.00  0.00    +0.000 A 
ATOM      8  N   UNL     1       0.611  11.106  21.228  0.00  0.00    +0.000 NA
ATOM      9  C   UNL     1      -0.376  11.948  21.329  0.00  0.00    +0.000 A 
ATOM     10  S   UNL     1      -0.772  13.245  22.414  0.00  0.00    +0.000 S 
ATOM     11  C   UNL     1      -2.250  13.528  21.480  0.00  0.00    +0.000 A 
ATOM     12  C   UNL     1      -2.385  12.683  20.444  0.00  0.00    +0.000 A 
ATOM     13  N   UNL     1      -1.329  11.800  20.367  0.00  0.00    +0.000 N 
ATOM     14  C   UNL     1      -0.940  10.767  19.555  0.00  0.00    +0.000 A 
ATOM     15  C   UNL     1      -1.715  10.338  18.363  0.00  0.00    +0.000 C 
ENDBRANCH   4   7
BRANCH   1  16
ATOM     16  O   UNL     1       3.588   6.083  18.448  0.00  0.00    +0.000 OA
BRANCH  16  17
ATOM     17  C   UNL     1       2.909   5.004  17.796  0.00  0.00    +0.000 C 
BRANCH  17  18
ATOM     18  C   UNL     1       3.904   4.089  17.102  0.00  0.00    +0.000 C 
BRANCH  18  19
ATOM     19  C   UNL     1       5.282   4.164  17.782  0.00  0.00    +0.000 C 
BRANCH  19  20
ATOM     20  N   UNL     1       6.448   4.294  16.867  0.00  0.00    +0.000 NA
BRANCH  20  21
ATOM     21  C   UNL     1       6.071   5.142  15.708  0.00  0.00    +0.000 C 
BRANCH  21  22
ATOM     22  C   UNL     1       6.695   4.838  14.337  0.00  0.00    +0.000 C 
BRANCH  22  24
ATOM     23  C   UNL     1       6.557   3.606  12.160  0.00  0.00    +0.000 C 
ATOM     24  C   UNL     1       6.084   3.641  13.609  0.00  0.00    +0.000 C 
ENDBRANCH  22  24
ENDBRANCH  21  22
ENDBRANCH  20  21
BRANCH  20  25
ATOM     25  C   UNL     1       7.614   4.860  17.585  0.00  0.00    +0.000 C 
BRANCH  25  26
ATOM     26  C   UNL     1       7.389   6.173  18.361  0.00  0.00    +0.000 C 
BRANCH  26  27
ATOM     27  C   UNL     1       7.492   7.439  17.508  0.00  0.00    +0.000 C 
ATOM     28  C   UNL     1       8.374   8.479  18.188  0.00  0.00    +0.000 C 
ENDBRANCH  26  27
ENDBRANCH  25  26
ENDBRANCH  20  25
ENDBRANCH  19  20
ENDBRANCH  18  19
ENDBRANCH  17  18
ENDBRANCH  16  17
ENDBRANCH   1  16
TORSDOF 12
ENDMDL
MODEL 2
REMARK VINA RESULT:      -7.0      1.094      1.315
REMARK  Name = 
REMARK  15 active torsions:
REMARK  status: ('A' for Active; 'I' for Inactive)
REMARK    1  A    between atoms: C_1  and  C_2
REMARK    2  A    between atoms: C_2  and  C_3
REMARK    3  A    between atoms: C_3  and  C_4
REMARK    4  A    between atoms: C_4  and  N_5
REMARK    5  A    between atoms: N_5  and  C_6
REMARK    6  A    between atoms: N_5  and  C_10
REMARK    7  A    between atoms: C_6  and  C_7
REMARK    8  A    between atoms: C_7  and  C_8
REMARK    9  A    between atoms: C_8  and  C_9
REMARK   10  A    between atoms: C_10  and  C_11
REMARK   11  A    between atoms: C_11  and  C_12
REMARK   12  A    between atoms: C_12  and  O_13
REMARK   13  A    between atoms: O_13  and  C_14
REMARK   14  A    between atoms: C_17  and  C_18
REMARK   15  A    between atoms: C_25  and  C_26
REMARK                            x       y       z     vdW  Elec       q    Type
REMARK                         _______ _______ _______ _____ _____    ______ ____
ROOT
ATOM      1  C   UNL     1       2.355   6.305  19.725  0.00  0.00    +0.000 A 
ATOM      2  C   UNL     1       2.490   7.231  18.693  0.00  0.00    +0.000 A 
ATOM      3  C   UNL     1       1.932   8.503  18.802  0.00  0.00    +0.000 A 
ATOM      4  C   UNL     1       1.251   8.896  19.953  0.00  0.00    +0.000 A 
ATOM      5  C   UNL     1       1.084   7.953  20.979  0.00  0.00    +0.000 A 
ATOM      6  C   UNL     1       1.631   6.665  20.866  0.00  0.00    +0.000 A 
ENDROOT
BRANCH   4   7
ATOM      7  C   UNL     1       0.700  10.239  20.083  0.00  0.00    +0.000 A 
ATOM      8  N   UNL     1       1.193  11.140  21.016  0.00  0.00    +0.000 NA
ATOM      9  C   UNL     1       0.450  12.194  20.836  0.00  0.00    +0.000 A 
ATOM     10  S   UNL     1       0.361  13.767  21.567  0.00  0.00    +0.000 S 
ATOM     11  C   UNL     1      -0.963  14.167  20.460  0.00  0.00    +0.000 A 
ATOM     12  C   UNL     1      -1.272  13.158  19.627  0.00  0.00    +0.000 A 
ATOM     13  N   UNL     1      -0.475  12.055  19.846  0.00  0.00    +0.000 N 
ATOM     14  C   UNL     1      -0.335  10.797  19.321  0.00  0.00    +0.000 A 
ATOM     15  C   UNL     1      -1.151  10.297  18.187  0.00  0.00    +0.000 C 
ENDBRANCH   4   7
BRANCH   1  16
ATOM     16  O   UNL     1       2.874   5.033  19.707  0.00  0.00    +0.000 OA
BRANCH  16  17
ATOM     17  C   UNL     1       4.228   4.960  19.248  0.00  0.00    +0.000 C 
BRANCH  17  18
ATOM     18  C   UNL     1       4.347   3.979  18.092  0.00  0.00    +0.000 C 
BRANCH  18  19
ATOM     19  C   UNL     1       4.788   4.700  16.807  0.00  0.00    +0.000 C 
BRANCH  19  20
ATOM     20  N   UNL     1       6.125   4.318  16.278  0.00  0.00    +0.000 NA
BRANCH  20  21
ATOM     21  C   UNL     1       5.962   3.678  14.948  0.00  0.00    +0.000 C 
BRANCH  21  22
ATOM     22  C   UNL     1       6.558   4.376  13.716  0.00  0.00    +0.000 C 
BRANCH  22  24
ATOM     23  C   UNL     1       4.986   3.324  12.074  0.00  0.00    +0.000 C 
ATOM     24  C   UNL     1       6.449   3.581  12.415  0.00  0.00    +0.000 C 
ENDBRANCH  22  24
ENDBRANCH  21  22
ENDBRANCH  20  21
BRANCH  20  25
ATOM     25  C   UNL     1       7.012   5.502  16.194  0.00  0.00    +0.000 C 
BRANCH  25  26
ATOM     26  C   UNL     1       6.703   6.676  17.146  0.00  0.00    +0.000 C 
BRANCH  26  27
ATOM     27  C   UNL     1       7.794   6.956  18.181  0.00  0.00    +0.000 C 
ATOM     28  C   UNL     1       7.904   5.807  19.176  0.00  0.00    +0.000 C 
ENDBRANCH  26  27
ENDBRANCH  25  26
ENDBRANCH  20  25
ENDBRANCH  19  20
ENDBRANCH  18  19
ENDBRANCH  17  18
ENDBRANCH  16  17
ENDBRANCH   1  16
TORSDOF 12
ENDMDL
MODEL 3
REMARK VINA RESULT:      -6.8      0.929      3.234
REMARK  Name = 
REMARK  15 active torsions:
REMARK  status: ('A' for Active; 'I' for Inactive)
REMARK    1  A    between atoms: C_1  and  C_2
REMARK    2  A    between atoms: C_2  and  C_3
REMARK    3  A    between atoms: C_3  and  C_4
REMARK    4  A    between atoms: C_4  and  N_5
REMARK    5  A    between atoms: N_5  and  C_6
REMARK    6  A    between atoms: N_5  and  C_10
REMARK    7  A    between atoms: C_6  and  C_7
REMARK    8  A    between atoms: C_7  and  C_8
REMARK    9  A    between atoms: C_8  and  C_9
REMARK   10  A    between atoms: C_10  and  C_11
REMARK   11  A    between atoms: C_11  and  C_12
REMARK   12  A    between atoms: C_12  and  O_13
REMARK   13  A    between atoms: O_13  and  C_14
REMARK   14  A    between atoms: C_17  and  C_18
REMARK   15  A    between atoms: C_25  and  C_26
REMARK                            x       y       z     vdW  Elec       q    Type
REMARK                         _______ _______ _______ _____ _____    ______ ____
ROOT
ATOM      1  C   UNL     1       2.767   7.064  18.582  0.00  0.00    +0.000 A 
ATOM      2  C   UNL     1       2.379   8.062  17.691  0.00  0.00    +0.000 A 
ATOM      3  C   UNL     1       1.547   9.100  18.105  0.00  0.00    +0.000 A 
ATOM      4  C   UNL     1       1.104   9.187  19.424  0.00  0.00    +0.000 A 
ATOM      5  C   UNL     1       1.466   8.164  20.314  0.00  0.00    +0.000 A 
ATOM      6  C   UNL     1       2.292   7.108  19.896  0.00  0.00    +0.000 A 
ENDROOT
BRANCH   4   7
ATOM      7  C   UNL     1       0.265  10.293  19.867  0.00  0.00    +0.000 A 
ATOM      8  N   UNL     1       0.651  11.130  20.904  0.00  0.00    +0.000 NA
ATOM      9  C   UNL     1      -0.346  11.960  21.007  0.00  0.00    +0.000 A 
ATOM     10  S   UNL     1      -0.712  13.311  22.035  0.00  0.00    +0.000 S 
ATOM     11  C   UNL     1      -2.241  13.514  21.163  0.00  0.00    +0.000 A 
ATOM     12  C   UNL     1      -2.410  12.609  20.185  0.00  0.00    +0.000 A 
ATOM     13  N   UNL     1      -1.343  11.740  20.105  0.00  0.00    +0.000 N 
ATOM     14  C   UNL     1      -0.975  10.668  19.334  0.00  0.00    +0.000 A 
ATOM     15  C   UNL     1      -1.800  10.158  18.211  0.00  0.00    +0.000 C 
ENDBRANCH   4   7
BRANCH   1  16
ATOM     16  O   UNL     1       3.587   6.008  18.264  0.00  0.00    +0.000 OA
BRANCH  16  17
ATOM     17  C   UNL     1       2.925   4.739  18.236  0.00  0.00    +0.000 C 
BRANCH  17  18
ATOM     18  C   UNL     1       3.281   3.980  16.968  0.00  0.00    +0.000 C 
BRANCH  18  19
ATOM     19  C   UNL     1       4.804   3.800  16.848  0.00  0.00    +0.000 C 
BRANCH  19  20
ATOM     20  N   UNL     1       5.452   4.514  15.716  0.00  0.00    +0.000 NA
BRANCH  20  21
ATOM     21  C   UNL     1       6.617   5.282  16.222  0.00  0.00    +0.000 C 
BRANCH  21  22
ATOM     22  C   UNL     1       7.470   4.673  17.346  0.00  0.00    +0.000 C 
BRANCH  22  24
ATOM     23  C   UNL     1       6.567   5.446  19.552  0.00  0.00    +0.000 C 
ATOM     24  C   UNL     1       7.701   5.594  18.544  0.00  0.00    +0.000 C 
ENDBRANCH  22  24
ENDBRANCH  21  22
ENDBRANCH  20  21
BRANCH  20  25
ATOM     25  C   UNL     1       5.863   3.556  14.662  0.00  0.00    +0.000 C 
BRANCH  25  26
ATOM     26  C   UNL     1       5.869   4.073  13.210  0.00  0.00    +0.000 C 
BRANCH  26  27
ATOM     27  C   UNL     1       5.627   2.995  12.151  0.00  0.00    +0.000 C 
ATOM     28  C   UNL     1       4.357   3.289  11.361  0.00  0.00    +0.000 C 
ENDBRANCH  26  27
ENDBRANCH  25  26
ENDBRANCH  20  25
ENDBRANCH  19  20
ENDBRANCH  18  19
ENDBRANCH  17  18
ENDBRANCH  16  17
ENDBRANCH   1  16
TORSDOF 12
ENDMDL
MODEL 4
REMARK VINA RESULT:      -6.8      1.127      1.582
REMARK  Name = 
REMARK  15 active torsions:
REMARK  status: ('A' for Active; 'I' for Inactive)
REMARK    1  A    between atoms: C_1  and  C_2
REMARK    2  A    between atoms: C_2  and  C_3
REMARK    3  A    between atoms: C_3  and  C_4
REMARK    4  A    between atoms: C_4  and  N_5
REMARK    5  A    between atoms: N_5  and  C_6
REMARK    6  A    between atoms: N_5  and  C_10
REMARK    7  A    between atoms: C_6  and  C_7
REMARK    8  A    between atoms: C_7  and  C_8
REMARK    9  A    between atoms: C_8  and  C_9
REMARK   10  A    between atoms: C_10  and  C_11
REMARK   11  A    between atoms: C_11  and  C_12
REMARK   12  A    between atoms: C_12  and  O_13
REMARK   13  A    between atoms: O_13  and  C_14
REMARK   14  A    between atoms: C_17  and  C_18
REMARK   15  A    between atoms: C_25  and  C_26
REMARK                            x       y       z     vdW  Elec       q    Type
REMARK                         _______ _______ _______ _____ _____    ______ ____
ROOT
ATOM      1  C   UNL     1       2.288   6.543  19.865  0.00  0.00    +0.000 A 
ATOM      2  C   UNL     1       1.656   6.935  21.044  0.00  0.00    +0.000 A 
ATOM      3  C   UNL     1       1.130   8.219  21.175  0.00  0.00    +0.000 A 
ATOM      4  C   UNL     1       1.194   9.135  20.126  0.00  0.00    +0.000 A 
ATOM      5  C   UNL     1       1.861   8.753  18.951  0.00  0.00    +0.000 A 
ATOM      6  C   UNL     1       2.405   7.465  18.821  0.00  0.00    +0.000 A 
ENDROOT
BRANCH   4   7
ATOM      7  C   UNL     1       0.610  10.464  20.249  0.00  0.00    +0.000 A 
ATOM      8  N   UNL     1       1.110  11.400  21.143  0.00  0.00    +0.000 NA
ATOM      9  C   UNL     1       0.331  12.428  20.970  0.00  0.00    +0.000 A 
ATOM     10  S   UNL     1       0.223  14.013  21.670  0.00  0.00    +0.000 S 
ATOM     11  C   UNL     1      -1.152  14.350  20.607  0.00  0.00    +0.000 A 
ATOM     12  C   UNL     1      -1.462  13.316  19.807  0.00  0.00    +0.000 A 
ATOM     13  N   UNL     1      -0.626  12.241  20.019  0.00  0.00    +0.000 N 
ATOM     14  C   UNL     1      -0.468  10.976  19.515  0.00  0.00    +0.000 A 
ATOM     15  C   UNL     1      -1.311  10.428  18.423  0.00  0.00    +0.000 C 
ENDBRANCH   4   7
BRANCH   1  16
ATOM     16  O   UNL     1       2.830   5.300  19.646  0.00  0.00    +0.000 OA
BRANCH  16  17
ATOM     17  C   UNL     1       1.990   4.419  18.892  0.00  0.00    +0.000 C 
BRANCH  17  18
ATOM     18  C   UNL     1       2.723   3.905  17.664  0.00  0.00    +0.000 C 
BRANCH  18  19
ATOM     19  C   UNL     1       4.157   3.477  18.022  0.00  0.00    +0.000 C 
BRANCH  19  20
ATOM     20  N   UNL     1       5.241   4.134  17.243  0.00  0.00    +0.000 NA
BRANCH  20  21
ATOM     21  C   UNL     1       4.736   5.412  16.682  0.00  0.00    +0.000 C 
BRANCH  21  22
ATOM     22  C   UNL     1       5.300   5.901  15.339  0.00  0.00    +0.000 C 
BRANCH  22  24
ATOM     23  C   UNL     1       7.395   5.023  14.281  0.00  0.00    +0.000 C 
ATOM     24  C   UNL     1       5.897   4.803  14.458  0.00  0.00    +0.000 C 
ENDBRANCH  22  24
ENDBRANCH  21  22
ENDBRANCH  20  21
BRANCH  20  25
ATOM     25  C   UNL     1       6.432   4.359  18.095  0.00  0.00    +0.000 C 
BRANCH  25  26
ATOM     26  C   UNL     1       6.526   5.716  18.822  0.00  0.00    +0.000 C 
BRANCH  26  27
ATOM     27  C   UNL     1       7.849   6.456  18.613  0.00  0.00    +0.000 C 
ATOM     28  C   UNL     1       7.674   7.612  17.636  0.00  0.00    +0.000 C 
ENDBRANCH  26  27
ENDBRANCH  25  26
ENDBRANCH  20  25
ENDBRANCH  19  20
ENDBRANCH  18  19
ENDBRANCH  17  18
ENDBRANCH  16  17
ENDBRANCH   1  16
TORSDOF 12
ENDMDL
MODEL 5
REMARK VINA RESULT:      -6.8      5.113      8.377
REMARK  Name = 
REMARK  15 active torsions:
REMARK  status: ('A' for Active; 'I' for Inactive)
REMARK    1  A    between atoms: C_1  and  C_2
REMARK    2  A    between atoms: C_2  and  C_3
REMARK    3  A    between atoms: C_3  and  C_4
REMARK    4  A    between atoms: C_4  and  N_5
REMARK    5  A    between atoms: N_5  and  C_6
REMARK    6  A    between atoms: N_5  and  C_10
REMARK    7  A    between atoms: C_6  and  C_7
REMARK    8  A    between atoms: C_7  and  C_8
REMARK    9  A    between atoms: C_8  and  C_9
REMARK   10  A    between atoms: C_10  and  C_11
REMARK   11  A    between atoms: C_11  and  C_12
REMARK   12  A    between atoms: C_12  and  O_13
REMARK   13  A    between atoms: O_13  and  C_14
REMARK   14  A    between atoms: C_17  and  C_18
REMARK   15  A    between atoms: C_25  and  C_26
REMARK                            x       y       z     vdW  Elec       q    Type
REMARK                         _______ _______ _______ _____ _____    ______ ____
ROOT
ATOM      1  C   UNL     1       8.619   9.341  18.493  0.00  0.00    +0.000 A 
ATOM      2  C   UNL     1       7.951  10.102  17.536  0.00  0.00    +0.000 A 
ATOM      3  C   UNL     1       8.179  11.472  17.432  0.00  0.00    +0.000 A 
ATOM      4  C   UNL     1       9.099  12.116  18.258  0.00  0.00    +0.000 A 
ATOM      5  C   UNL     1       9.746  11.358  19.246  0.00  0.00    +0.000 A 
ATOM      6  C   UNL     1       9.508   9.979  19.364  0.00  0.00    +0.000 A 
ENDROOT
BRANCH   4   7
ATOM      7  C   UNL     1       9.366  13.542  18.124  0.00  0.00    +0.000 A 
ATOM      8  N   UNL     1       8.520  14.496  18.670  0.00  0.00    +0.000 NA
ATOM      9  C   UNL     1       9.077  15.622  18.330  0.00  0.00    +0.000 A 
ATOM     10  S   UNL     1       8.697  17.299  18.576  0.00  0.00    +0.000 S 
ATOM     11  C   UNL     1      10.163  17.726  17.679  0.00  0.00    +0.000 A 
ATOM     12  C   UNL     1      10.847  16.651  17.251  0.00  0.00    +0.000 A 
ATOM     13  N   UNL     1      10.229  15.475  17.620  0.00  0.00    +0.000 N 
ATOM     14  C   UNL     1      10.459  14.132  17.476  0.00  0.00    +0.000 A 
ATOM     15  C   UNL     1      11.654  13.584  16.787  0.00  0.00    +0.000 C 
ENDBRANCH   4   7
BRANCH   1  16
ATOM     16  O   UNL     1       8.462   7.987  18.665  0.00  0.00    +0.000 OA
BRANCH  16  17
ATOM     17  C   UNL     1       7.629   7.365  17.681  0.00  0.00    +0.000 C 
BRANCH  17  18
ATOM     18  C   UNL     1       6.937   6.143  18.263  0.00  0.00    +0.000 C 
BRANCH  18  19
ATOM     19  C   UNL     1       7.388   4.862  17.540  0.00  0.00    +0.000 C 
BRANCH  19  20
ATOM     20  N   UNL     1       6.395   4.263  16.609  0.00  0.00    +0.000 NA
BRANCH  20  21
ATOM     21  C   UNL     1       5.042   4.780  16.934  0.00  0.00    +0.000 C 
BRANCH  21  22
ATOM     22  C   UNL     1       4.055   3.854  17.662  0.00  0.00    +0.000 C 
BRANCH  22  24
ATOM     23  C   UNL     1       2.581   5.821  18.146  0.00  0.00    +0.000 C 
ATOM     24  C   UNL     1       3.188   4.544  18.715  0.00  0.00    +0.000 C 
ENDBRANCH  22  24
ENDBRANCH  21  22
ENDBRANCH  20  21
BRANCH  20  25
ATOM     25  C   UNL     1       6.755   4.560  15.202  0.00  0.00    +0.000 C 
BRANCH  25  26
ATOM     26  C   UNL     1       5.700   4.232  14.126  0.00  0.00    +0.000 C 
BRANCH  26  27
ATOM     27  C   UNL     1       6.266   3.589  12.858  0.00  0.00    +0.000 C 
ATOM     28  C   UNL     1       5.145   3.203  11.900  0.00  0.00    +0.000 C 
ENDBRANCH  26  27
ENDBRANCH  25  26
ENDBRANCH  20  25
ENDBRANCH  19  20
ENDBRANCH  18  19
ENDBRANCH  17  18
ENDBRANCH  16  17
ENDBRANCH   1  16
TORSDOF 12
ENDMDL
MODEL 6
REMARK VINA RESULT:      -6.7      1.347      1.790
REMARK  Name = 
REMARK  15 active torsions:
REMARK  status: ('A' for Active; 'I' for Inactive)
REMARK    1  A    between atoms: C_1  and  C_2
REMARK    2  A    between atoms: C_2  and  C_3
REMARK    3  A    between atoms: C_3  and  C_4
REMARK    4  A    between atoms: C_4  and  N_5
REMARK    5  A    between atoms: N_5  and  C_6
REMARK    6  A    between atoms: N_5  and  C_10
REMARK    7  A    between atoms: C_6  and  C_7
REMARK    8  A    between atoms: C_7  and  C_8
REMARK    9  A    between atoms: C_8  and  C_9
REMARK   10  A    between atoms: C_10  and  C_11
REMARK   11  A    between atoms: C_11  and  C_12
REMARK   12  A    between atoms: C_12  and  O_13
REMARK   13  A    between atoms: O_13  and  C_14
REMARK   14  A    between atoms: C_17  and  C_18
REMARK   15  A    between atoms: C_25  and  C_26
REMARK                            x       y       z     vdW  Elec       q    Type
REMARK                         _______ _______ _______ _____ _____    ______ ____
ROOT
ATOM      1  C   UNL     1       2.646   6.338  18.584  0.00  0.00    +0.000 A 
ATOM      2  C   UNL     1       2.191   6.369  19.901  0.00  0.00    +0.000 A 
ATOM      3  C   UNL     1       1.647   7.533  20.437  0.00  0.00    +0.000 A 
ATOM      4  C   UNL     1       1.515   8.689  19.669  0.00  0.00    +0.000 A 
ATOM      5  C   UNL     1       2.004   8.670  18.353  0.00  0.00    +0.000 A 
ATOM      6  C   UNL     1       2.567   7.502  17.814  0.00  0.00    +0.000 A 
ENDROOT
BRANCH   4   7
ATOM      7  C   UNL     1       0.911   9.896  20.218  0.00  0.00    +0.000 A 
ATOM      8  N   UNL     1       1.078  11.134  19.615  0.00  0.00    +0.000 NA
ATOM      9  C   UNL     1       0.416  11.939  20.394  0.00  0.00    +0.000 A 
ATOM     10  S   UNL     1       0.105  13.648  20.406  0.00  0.00    +0.000 S 
ATOM     11  C   UNL     1      -0.853  13.426  21.879  0.00  0.00    +0.000 A 
ATOM     12  C   UNL     1      -0.901  12.146  22.286  0.00  0.00    +0.000 A 
ATOM     13  N   UNL     1      -0.185  11.319  21.447  0.00  0.00    +0.000 N 
ATOM     14  C   UNL     1       0.104   9.982  21.360  0.00  0.00    +0.000 A 
ATOM     15  C   UNL     1      -0.418   8.977  22.319  0.00  0.00    +0.000 C 
ENDBRANCH   4   7
BRANCH   1  16
ATOM     16  O   UNL     1       3.191   5.236  17.971  0.00  0.00    +0.000 OA
BRANCH  16  17
ATOM     17  C   UNL     1       3.452   4.141  18.857  0.00  0.00    +0.000 C 
BRANCH  17  18
ATOM     18  C   UNL     1       4.946   3.877  18.952  0.00  0.00    +0.000 C 
BRANCH  18  19
ATOM     19  C   UNL     1       5.749   5.115  18.518  0.00  0.00    +0.000 C 
BRANCH  19  20
ATOM     20  N   UNL     1       6.734   4.896  17.425  0.00  0.00    +0.000 NA
BRANCH  20  21
ATOM     21  C   UNL     1       6.066   4.203  16.295  0.00  0.00    +0.000 C 
BRANCH  21  22
ATOM     22  C   UNL     1       6.552   4.488  14.865  0.00  0.00    +0.000 C 
BRANCH  22  24
ATOM     23  C   UNL     1       6.277   3.652  12.519  0.00  0.00    +0.000 C 
ATOM     24  C   UNL     1       5.548   4.138  13.767  0.00  0.00    +0.000 C 
ENDBRANCH  22  24
ENDBRANCH  21  22
ENDBRANCH  20  21
BRANCH  20  25
ATOM     25  C   UNL     1       7.322   6.184  16.987  0.00  0.00    +0.000 C 
BRANCH  25  26
ATOM     26  C   UNL     1       7.757   7.167  18.093  0.00  0.00    +0.000 C 
BRANCH  26  27
ATOM     27  C   UNL     1       7.735   8.639  17.679  0.00  0.00    +0.000 C 
ATOM     28  C   UNL     1       8.760   9.441  18.471  0.00  0.00    +0.000 C 
ENDBRANCH  26  27
ENDBRANCH  25  26
ENDBRANCH  20  25
ENDBRANCH  19  20
ENDBRANCH  18  19
ENDBRANCH  17  18
ENDBRANCH  16  17
ENDBRANCH   1  16
TORSDOF 12
ENDMDL
MODEL 7
REMARK VINA RESULT:      -6.6      1.183      1.769
REMARK  Name = 
REMARK  15 active torsions:
REMARK  status: ('A' for Active; 'I' for Inactive)
REMARK    1  A    between atoms: C_1  and  C_2
REMARK    2  A    between atoms: C_2  and  C_3
REMARK    3  A    between atoms: C_3  and  C_4
REMARK    4  A    between atoms: C_4  and  N_5
REMARK    5  A    between atoms: N_5  and  C_6
REMARK    6  A    between atoms: N_5  and  C_10
REMARK    7  A    between atoms: C_6  and  C_7
REMARK    8  A    between atoms: C_7  and  C_8
REMARK    9  A    between atoms: C_8  and  C_9
REMARK   10  A    between atoms: C_10  and  C_11
REMARK   11  A    between atoms: C_11  and  C_12
REMARK   12  A    between atoms: C_12  and  O_13
REMARK   13  A    between atoms: O_13  and  C_14
REMARK   14  A    between atoms: C_17  and  C_18
REMARK   15  A    between atoms: C_25  and  C_26
REMARK                            x       y       z     vdW  Elec       q    Type
REMARK                         _______ _______ _______ _____ _____    ______ ____
ROOT
ATOM      1  C   UNL     1       2.436   7.481  18.587  0.00  0.00    +0.000 A 
ATOM      2  C   UNL     1       2.139   7.344  19.942  0.00  0.00    +0.000 A 
ATOM      3  C   UNL     1       1.324   8.270  20.588  0.00  0.00    +0.000 A 
ATOM      4  C   UNL     1       0.759   9.341  19.896  0.00  0.00    +0.000 A 
ATOM      5  C   UNL     1       1.084   9.500  18.541  0.00  0.00    +0.000 A 
ATOM      6  C   UNL     1       1.918   8.577  17.889  0.00  0.00    +0.000 A 
ENDROOT
BRANCH   4   7
ATOM      7  C   UNL     1      -0.125  10.288  20.564  0.00  0.00    +0.000 A 
ATOM      8  N   UNL     1      -0.791  11.282  19.861  0.00  0.00    +0.000 NA
ATOM      9  C   UNL     1      -1.451  11.914  20.788  0.00  0.00    +0.000 A 
ATOM     10  S   UNL     1      -2.522  13.281  20.811  0.00  0.00    +0.000 S 
ATOM     11  C   UNL     1      -2.690  13.075  22.562  0.00  0.00    +0.000 A 
ATOM     12  C   UNL     1      -1.974  12.042  23.039  0.00  0.00    +0.000 A 
ATOM     13  N   UNL     1      -1.281  11.398  22.036  0.00  0.00    +0.000 N 
ATOM     14  C   UNL     1      -0.432  10.327  21.930  0.00  0.00    +0.000 A 
ATOM     15  C   UNL     1      -0.045   9.483  23.087  0.00  0.00    +0.000 C 
ENDBRANCH   4   7
BRANCH   1  16
ATOM     16  O   UNL     1       3.224   6.616  17.868  0.00  0.00    +0.000 OA
BRANCH  16  17
ATOM     17  C   UNL     1       3.527   5.394  18.550  0.00  0.00    +0.000 C 
BRANCH  17  18
ATOM     18  C   UNL     1       3.836   4.289  17.553  0.00  0.00    +0.000 C 
BRANCH  18  19
ATOM     19  C   UNL     1       5.322   3.897  17.615  0.00  0.00    +0.000 C 
BRANCH  19  20
ATOM     20  N   UNL     1       6.167   4.386  16.492  0.00  0.00    +0.000 NA
BRANCH  20  21
ATOM     21  C   UNL     1       5.338   5.213  15.579  0.00  0.00    +0.000 C 
BRANCH  21  22
ATOM     22  C   UNL     1       5.342   4.883  14.079  0.00  0.00    +0.000 C 
BRANCH  22  24
ATOM     23  C   UNL     1       5.929   3.194  12.324  0.00  0.00    +0.000 C 
ATOM     24  C   UNL     1       6.332   3.795  13.666  0.00  0.00    +0.000 C 
ENDBRANCH  22  24
ENDBRANCH  21  22
ENDBRANCH  20  21
BRANCH  20  25
ATOM     25  C   UNL     1       7.324   5.156  17.007  0.00  0.00    +0.000 C 
BRANCH  25  26
ATOM     26  C   UNL     1       7.104   6.660  17.267  0.00  0.00    +0.000 C 
BRANCH  26  27
ATOM     27  C   UNL     1       8.049   7.268  18.305  0.00  0.00    +0.000 C 
ATOM     28  C   UNL     1       8.234   8.761  18.060  0.00  0.00    +0.000 C 
ENDBRANCH  26  27
ENDBRANCH  25  26
ENDBRANCH  20  25
ENDBRANCH  19  20
ENDBRANCH  18  19
ENDBRANCH  17  18
ENDBRANCH  16  17
ENDBRANCH   1  16
TORSDOF 12
ENDMDL
MODEL 8
REMARK VINA RESULT:      -6.6      2.965      4.954
REMARK  Name = 
REMARK  15 active torsions:
REMARK  status: ('A' for Active; 'I' for Inactive)
REMARK    1  A    between atoms: C_1  and  C_2
REMARK    2  A    between atoms: C_2  and  C_3
REMARK    3  A    between atoms: C_3  and  C_4
REMARK    4  A    between atoms: C_4  and  N_5
REMARK    5  A    between atoms: N_5  and  C_6
REMARK    6  A    between atoms: N_5  and  C_10
REMARK    7  A    between atoms: C_6  and  C_7
REMARK    8  A    between atoms: C_7  and  C_8
REMARK    9  A    between atoms: C_8  and  C_9
REMARK   10  A    between atoms: C_10  and  C_11
REMARK   11  A    between atoms: C_11  and  C_12
REMARK   12  A    between atoms: C_12  and  O_13
REMARK   13  A    between atoms: O_13  and  C_14
REMARK   14  A    between atoms: C_17  and  C_18
REMARK   15  A    between atoms: C_25  and  C_26
REMARK                            x       y       z     vdW  Elec       q    Type
REMARK                         _______ _______ _______ _____ _____    ______ ____
ROOT
ATOM      1  C   UNL     1       1.069   9.124  20.412  0.00  0.00    +0.000 A 
ATOM      2  C   UNL     1       0.464  10.174  19.724  0.00  0.00    +0.000 A 
ATOM      3  C   UNL     1      -0.349  11.086  20.393  0.00  0.00    +0.000 A 
ATOM      4  C   UNL     1      -0.558  10.994  21.768  0.00  0.00    +0.000 A 
ATOM      5  C   UNL     1       0.022   9.917  22.456  0.00  0.00    +0.000 A 
ATOM      6  C   UNL     1       0.830   8.987  21.783  0.00  0.00    +0.000 A 
ENDROOT
BRANCH   4   7
ATOM      7  C   UNL     1      -1.378  11.971  22.474  0.00  0.00    +0.000 A 
ATOM      8  N   UNL     1      -2.564  11.612  23.097  0.00  0.00    +0.000 NA
ATOM      9  C   UNL     1      -2.998  12.736  23.588  0.00  0.00    +0.000 A 
ATOM     10  S   UNL     1      -4.397  13.215  24.499  0.00  0.00    +0.000 S 
ATOM     11  C   UNL     1      -3.777  14.874  24.511  0.00  0.00    +0.000 A 
ATOM     12  C   UNL     1      -2.605  15.000  23.865  0.00  0.00    +0.000 A 
ATOM     13  N   UNL     1      -2.176  13.796  23.350  0.00  0.00    +0.000 N 
ATOM     14  C   UNL     1      -1.101  13.334  22.636  0.00  0.00    +0.000 A 
ATOM     15  C   UNL     1       0.032  14.202  22.227  0.00  0.00    +0.000 C 
ENDBRANCH   4   7
BRANCH   1  16
ATOM     16  O   UNL     1       1.888   8.183  19.838  0.00  0.00    +0.000 OA
BRANCH  16  17
ATOM     17  C   UNL     1       1.963   8.263  18.410  0.00  0.00    +0.000 C 
BRANCH  17  18
ATOM     18  C   UNL     1       3.164   7.487  17.894  0.00  0.00    +0.000 C 
BRANCH  18  19
ATOM     19  C   UNL     1       3.039   5.993  18.239  0.00  0.00    +0.000 C 
BRANCH  19  20
ATOM     20  N   UNL     1       3.831   5.532  19.411  0.00  0.00    +0.000 NA
BRANCH  20  21
ATOM     21  C   UNL     1       2.907   5.092  20.486  0.00  0.00    +0.000 C 
BRANCH  21  22
ATOM     22  C   UNL     1       1.500   4.611  20.097  0.00  0.00    +0.000 C 
BRANCH  22  24
ATOM     23  C   UNL     1       2.212   2.708  21.563  0.00  0.00    +0.000 C 
ATOM     24  C   UNL     1       1.056   3.317  20.779  0.00  0.00    +0.000 C 
ENDBRANCH  22  24
ENDBRANCH  21  22
ENDBRANCH  20  21
BRANCH  20  25
ATOM     25  C   UNL     1       4.753   4.440  19.020  0.00  0.00    +0.000 C 
BRANCH  25  26
ATOM     26  C   UNL     1       4.370   3.612  17.776  0.00  0.00    +0.000 C 
BRANCH  26  27
ATOM     27  C   UNL     1       3.791   2.231  18.087  0.00  0.00    +0.000 C 
ATOM     28  C   UNL     1       2.349   2.127  17.606  0.00  0.00    +0.000 C 
ENDBRANCH  26  27
ENDBRANCH  25  26
ENDBRANCH  20  25
ENDBRANCH  19  20
ENDBRANCH  18  19
ENDBRANCH  17  18
ENDBRANCH  16  17
ENDBRANCH   1  16
TORSDOF 12
ENDMDL
MODEL 9
REMARK VINA RESULT:      -6.6      1.482      3.415
REMARK  Name = 
REMARK  15 active torsions:
REMARK  status: ('A' for Active; 'I' for Inactive)
REMARK    1  A    between atoms: C_1  and  C_2
REMARK    2  A    between atoms: C_2  and  C_3
REMARK    3  A    between atoms: C_3  and  C_4
REMARK    4  A    between atoms: C_4  and  N_5
REMARK    5  A    between atoms: N_5  and  C_6
REMARK    6  A    between atoms: N_5  and  C_10
REMARK    7  A    between atoms: C_6  and  C_7
REMARK    8  A    between atoms: C_7  and  C_8
REMARK    9  A    between atoms: C_8  and  C_9
REMARK   10  A    between atoms: C_10  and  C_11
REMARK   11  A    between atoms: C_11  and  C_12
REMARK   12  A    between atoms: C_12  and  O_13
REMARK   13  A    between atoms: O_13  and  C_14
REMARK   14  A    between atoms: C_17  and  C_18
REMARK   15  A    between atoms: C_25  and  C_26
REMARK                            x       y       z     vdW  Elec       q    Type
REMARK                         _______ _______ _______ _____ _____    ______ ____
ROOT
ATOM      1  C   UNL     1       2.519   7.442  18.594  0.00  0.00    +0.000 A 
ATOM      2  C   UNL     1       2.163   7.292  19.933  0.00  0.00    +0.000 A 
ATOM      3  C   UNL     1       1.393   8.258  20.576  0.00  0.00    +0.000 A 
ATOM      4  C   UNL     1       0.933   9.385  19.896  0.00  0.00    +0.000 A 
ATOM      5  C   UNL     1       1.319   9.555  18.558  0.00  0.00    +0.000 A 
ATOM      6  C   UNL     1       2.108   8.591  17.910  0.00  0.00    +0.000 A 
ENDROOT
BRANCH   4   7
ATOM      7  C   UNL     1       0.095  10.376  20.559  0.00  0.00    +0.000 A 
ATOM      8  N   UNL     1      -0.435  11.458  19.871  0.00  0.00    +0.000 NA
ATOM      9  C   UNL     1      -1.093  12.104  20.790  0.00  0.00    +0.000 A 
ATOM     10  S   UNL     1      -2.039  13.560  20.821  0.00  0.00    +0.000 S 
ATOM     11  C   UNL     1      -2.334  13.289  22.546  0.00  0.00    +0.000 A 
ATOM     12  C   UNL     1      -1.743  12.175  23.010  0.00  0.00    +0.000 A 
ATOM     13  N   UNL     1      -1.048  11.517  22.017  0.00  0.00    +0.000 N 
ATOM     14  C   UNL     1      -0.292  10.379  21.905  0.00  0.00    +0.000 A 
ATOM     15  C   UNL     1      -0.054   9.450  23.038  0.00  0.00    +0.000 C 
ENDBRANCH   4   7
BRANCH   1  16
ATOM     16  O   UNL     1       3.269   6.541  17.878  0.00  0.00    +0.000 OA
BRANCH  16  17
ATOM     17  C   UNL     1       4.365   7.125  17.166  0.00  0.00    +0.000 C 
BRANCH  17  18
ATOM     18  C   UNL     1       5.686   6.741  17.813  0.00  0.00    +0.000 C 
BRANCH  18  19
ATOM     19  C   UNL     1       5.486   5.606  18.832  0.00  0.00    +0.000 C 
BRANCH  19  20
ATOM     20  N   UNL     1       5.905   4.252  18.381  0.00  0.00    +0.000 NA
BRANCH  20  21
ATOM     21  C   UNL     1       4.710   3.376  18.283  0.00  0.00    +0.000 C 
BRANCH  21  22
ATOM     22  C   UNL     1       3.696   3.380  19.437  0.00  0.00    +0.000 C 
BRANCH  22  24
ATOM     23  C   UNL     1       2.102   3.343  17.504  0.00  0.00    +0.000 C 
ATOM     24  C   UNL     1       2.239   3.553  19.008  0.00  0.00    +0.000 C 
ENDBRANCH  22  24
ENDBRANCH  21  22
ENDBRANCH  20  21
BRANCH  20  25
ATOM     25  C   UNL     1       6.615   4.331  17.082  0.00  0.00    +0.000 C 
BRANCH  25  26
ATOM     26  C   UNL     1       5.858   3.826  15.838  0.00  0.00    +0.000 C 
BRANCH  26  27
ATOM     27  C   UNL     1       6.151   4.607  14.556  0.00  0.00    +0.000 C 
ATOM     28  C   UNL     1       5.912   3.740  13.326  0.00  0.00    +0.000 C 
ENDBRANCH  26  27
ENDBRANCH  25  26
ENDBRANCH  20  25
ENDBRANCH  19  20
ENDBRANCH  18  19
ENDBRANCH  17  18
ENDBRANCH  16  17
ENDBRANCH   1  16
TORSDOF 12
ENDMDL
