MODEL 1
REMARK VINA RESULT:      -6.3      0.000      0.000
REMARK  Name = 
REMARK  5 active torsions:
REMARK  status: ('A' for Active; 'I' for Inactive)
REMARK    1  A    between atoms: C_2  and  S_4
REMARK    2  A    between atoms: S_4  and  C_5
REMARK    3  A    between atoms: C_8  and  N_9
REMARK    4  A    between atoms: C_10  and  S_11
REMARK    5  A    between atoms: N_12  and  C_13
REMARK                            x       y       z     vdW  Elec       q    Type
REMARK                         _______ _______ _______ _____ _____    ______ ____
ROOT
ATOM      1  N   UNL     1       2.594   7.966  18.514  0.00  0.00    +0.000 N 
ATOM      2  C   UNL     1       2.968   6.645  18.605  0.00  0.00    +0.000 C 
ATOM      3  N   UNL     1       3.959   6.258  17.852  0.00  0.00    +0.000 NA
ATOM      4  H   UNL     1       3.270   8.505  17.985  0.00  0.00    +0.000 HD
ENDROOT
BRANCH   1   8
ATOM      5  C   UNL     1      -0.343  10.517  20.215  0.00  0.00    +0.000 A 
ATOM      6  C   UNL     1      -0.076  10.532  18.848  0.00  0.00    +0.000 A 
ATOM      7  C   UNL     1       0.871   9.652  18.299  0.00  0.00    +0.000 A 
ATOM      8  C   UNL     1       1.570   8.732  19.100  0.00  0.00    +0.000 A 
ATOM      9  C   UNL     1       1.249   8.700  20.461  0.00  0.00    +0.000 A 
ATOM     10  C   UNL     1       0.317   9.587  21.017  0.00  0.00    +0.000 A 
BRANCH   5  11
ATOM     11  S   UNL     1      -1.420  11.736  20.939  0.00  0.00    +0.000 S 
BRANCH  11  13
ATOM     12  F   UNL     1      -0.942  12.878  23.222  0.00  0.00    +0.000 F 
ATOM     13  C   UNL     1      -0.872  11.644  22.655  0.00  0.00    +0.000 C 
ATOM     14  F   UNL     1      -1.698  10.844  23.375  0.00  0.00    +0.000 F 
ENDBRANCH  11  13
ENDBRANCH   5  11
ENDBRANCH   1   8
BRANCH   3  15
ATOM     15  C   UNL     1       4.578   4.927  18.001  0.00  0.00    +0.000 C 
ATOM     16  C   UNL     1       4.932   4.301  16.643  0.00  0.00    +0.000 C 
ATOM     17  C   UNL     1       6.314   4.633  16.087  0.00  0.00    +0.000 C 
ATOM     18  C   UNL     1       7.407   4.532  17.139  0.00  0.00    +0.000 C 
ATOM     19  C   UNL     1       7.088   5.441  18.314  0.00  0.00    +0.000 C 
ATOM     20  C   UNL     1       5.771   5.037  18.967  0.00  0.00    +0.000 C 
ENDBRANCH   3  15
BRANCH   2  21
ATOM     21  S   UNL     1       2.196   5.579  19.775  0.00  0.00    +0.000 S 
ATOM     22  H   UNL     1       2.493   4.427  19.168  0.00  0.00    +0.000 HD
ENDBRANCH   2  21
TORSDOF 5
ENDMDL
MODEL 2
REMARK VINA RESULT:      -6.2      1.674      1.871
REMARK  Name = 
REMARK  5 active torsions:
REMARK  status: ('A' for Active; 'I' for Inactive)
REMARK    1  A    between atoms: C_2  and  S_4
REMARK    2  A    between atoms: S_4  and  C_5
REMARK    3  A    between atoms: C_8  and  N_9
REMARK    4  A    between atoms: C_10  and  S_11
REMARK    5  A    between atoms: N_12  and  C_13
REMARK                            x       y       z     vdW  Elec       q    Type
REMARK                         _______ _______ _______ _____ _____    ______ ____
ROOT
ATOM      1  N   UNL     1       2.696   7.953  18.303  0.00  0.00    +0.000 N 
ATOM      2  C   UNL     1       3.106   6.667  18.565  0.00  0.00    +0.000 C 
ATOM      3  N   UNL     1       4.155   6.237  17.919  0.00  0.00    +0.000 NA
ATOM      4  H   UNL     1       3.386   8.457  17.756  0.00  0.00    +0.000 HD
ENDROOT
BRANCH   1   8
ATOM      5  C   UNL     1      -0.453  10.550  19.473  0.00  0.00    +0.000 A 
ATOM      6  C   UNL     1      -0.253  10.213  18.137  0.00  0.00    +0.000 A 
ATOM      7  C   UNL     1       0.769   9.321  17.775  0.00  0.00    +0.000 A 
ATOM      8  C   UNL     1       1.613   8.739  18.738  0.00  0.00    +0.000 A 
ATOM      9  C   UNL     1       1.361   9.053  20.077  0.00  0.00    +0.000 A 
ATOM     10  C   UNL     1       0.353   9.956  20.443  0.00  0.00    +0.000 A 
BRANCH   5  11
ATOM     11  S   UNL     1      -1.638  11.801  19.922  0.00  0.00    +0.000 S 
BRANCH  11  13
ATOM     12  F   UNL     1       0.536  13.189  19.623  0.00  0.00    +0.000 F 
ATOM     13  C   UNL     1      -0.784  13.265  19.306  0.00  0.00    +0.000 C 
ATOM     14  F   UNL     1      -0.852  13.320  17.953  0.00  0.00    +0.000 F 
ENDBRANCH  11  13
ENDBRANCH   5  11
ENDBRANCH   1   8
BRANCH   3  15
ATOM     15  C   UNL     1       4.806   4.957  18.254  0.00  0.00    +0.000 C 
ATOM     16  C   UNL     1       5.201   4.166  16.998  0.00  0.00    +0.000 C 
ATOM     17  C   UNL     1       6.584   4.461  16.423  0.00  0.00    +0.000 C 
ATOM     18  C   UNL     1       7.660   4.532  17.494  0.00  0.00    +0.000 C 
ATOM     19  C   UNL     1       7.295   5.581  18.532  0.00  0.00    +0.000 C 
ATOM     20  C   UNL     1       5.978   5.230  19.215  0.00  0.00    +0.000 C 
ENDBRANCH   3  15
BRANCH   2  21
ATOM     21  S   UNL     1       2.298   5.709  19.801  0.00  0.00    +0.000 S 
ATOM     22  H   UNL     1       1.055   6.127  19.548  0.00  0.00    +0.000 HD
ENDBRANCH   2  21
TORSDOF 5
ENDMDL
MODEL 3
REMARK VINA RESULT:      -6.2      1.916      2.791
REMARK  Name = 
REMARK  5 active torsions:
REMARK  status: ('A' for Active; 'I' for Inactive)
REMARK    1  A    between atoms: C_2  and  S_4
REMARK    2  A    between atoms: S_4  and  C_5
REMARK    3  A    between atoms: C_8  and  N_9
REMARK    4  A    between atoms: C_10  and  S_11
REMARK    5  A    between atoms: N_12  and  C_13
REMARK                            x       y       z     vdW  Elec       q    Type
REMARK                         _______ _______ _______ _____ _____    ______ ____
ROOT
ATOM      1  N   UNL     1       1.799   7.328  20.491  0.00  0.00    +0.000 N 
ATOM      2  C   UNL     1       2.579   6.771  19.504  0.00  0.00    +0.000 C 
ATOM      3  N   UNL     1       3.025   5.564  19.713  0.00  0.00    +0.000 NA
ATOM      4  H   UNL     1       1.534   6.639  21.185  0.00  0.00    +0.000 HD
ENDROOT
BRANCH   1   8
ATOM      5  C   UNL     1      -0.267  10.988  21.096  0.00  0.00    +0.000 A 
ATOM      6  C   UNL     1       0.044  10.148  22.163  0.00  0.00    +0.000 A 
ATOM      7  C   UNL     1       0.763   8.962  21.946  0.00  0.00    +0.000 A 
ATOM      8  C   UNL     1       1.194   8.587  20.661  0.00  0.00    +0.000 A 
ATOM      9  C   UNL     1       0.915   9.471  19.614  0.00  0.00    +0.000 A 
ATOM     10  C   UNL     1       0.183  10.648  19.821  0.00  0.00    +0.000 A 
BRANCH   5  11
ATOM     11  S   UNL     1      -1.314  12.408  21.338  0.00  0.00    +0.000 S 
BRANCH  11  13
ATOM     12  F   UNL     1      -1.698  13.446  23.688  0.00  0.00    +0.000 F 
ATOM     13  C   UNL     1      -1.677  12.222  23.095  0.00  0.00    +0.000 C 
ATOM     14  F   UNL     1      -2.912  11.688  23.271  0.00  0.00    +0.000 F 
ENDBRANCH  11  13
ENDBRANCH   5  11
ENDBRANCH   1   8
BRANCH   3  15
ATOM     15  C   UNL     1       3.702   4.789  18.657  0.00  0.00    +0.000 C 
ATOM     16  C   UNL     1       4.738   3.813  19.233  0.00  0.00    +0.000 C 
ATOM     17  C   UNL     1       4.223   2.426  19.608  0.00  0.00    +0.000 C 
ATOM     18  C   UNL     1       3.313   1.833  18.545  0.00  0.00    +0.000 C 
ATOM     19  C   UNL     1       2.144   2.766  18.277  0.00  0.00    +0.000 C 
ATOM     20  C   UNL     1       2.636   4.117  17.772  0.00  0.00    +0.000 C 
ENDBRANCH   3  15
BRANCH   2  21
ATOM     21  S   UNL     1       2.852   7.632  17.992  0.00  0.00    +0.000 S 
ATOM     22  H   UNL     1       3.570   8.636  18.502  0.00  0.00    +0.000 HD
ENDBRANCH   2  21
TORSDOF 5
ENDMDL
MODEL 4
REMARK VINA RESULT:      -6.2      2.207      3.114
REMARK  Name = 
REMARK  5 active torsions:
REMARK  status: ('A' for Active; 'I' for Inactive)
REMARK    1  A    between atoms: C_2  and  S_4
REMARK    2  A    between atoms: S_4  and  C_5
REMARK    3  A    between atoms: C_8  and  N_9
REMARK    4  A    between atoms: C_10  and  S_11
REMARK    5  A    between atoms: N_12  and  C_13
REMARK                            x       y       z     vdW  Elec       q    Type
REMARK                         _______ _______ _______ _____ _____    ______ ____
ROOT
ATOM      1  N   UNL     1       1.392   8.158  20.925  0.00  0.00    +0.000 N 
ATOM      2  C   UNL     1       1.938   7.803  19.714  0.00  0.00    +0.000 C 
ATOM      3  N   UNL     1       2.440   6.603  19.620  0.00  0.00    +0.000 NA
ATOM      4  H   UNL     1       1.303   7.357  21.539  0.00  0.00    +0.000 HD
ENDROOT
BRANCH   1   8
ATOM      5  C   UNL     1      -0.595  11.618  22.377  0.00  0.00    +0.000 A 
ATOM      6  C   UNL     1      -0.752  10.381  22.998  0.00  0.00    +0.000 A 
ATOM      7  C   UNL     1      -0.054   9.257  22.526  0.00  0.00    +0.000 A 
ATOM      8  C   UNL     1       0.821   9.341  21.428  0.00  0.00    +0.000 A 
ATOM      9  C   UNL     1       1.000  10.604  20.853  0.00  0.00    +0.000 A 
ATOM     10  C   UNL     1       0.294  11.726  21.309  0.00  0.00    +0.000 A 
BRANCH   5  11
ATOM     11  S   UNL     1      -1.596  13.008  22.866  0.00  0.00    +0.000 S 
BRANCH  11  13
ATOM     12  F   UNL     1      -3.576  12.729  24.524  0.00  0.00    +0.000 F 
ATOM     13  C   UNL     1      -3.082  12.138  23.403  0.00  0.00    +0.000 C 
ATOM     14  F   UNL     1      -4.053  12.232  22.460  0.00  0.00    +0.000 F 
ENDBRANCH  11  13
ENDBRANCH   5  11
ENDBRANCH   1   8
BRANCH   3  15
ATOM     15  C   UNL     1       2.873   6.038  18.329  0.00  0.00    +0.000 C 
ATOM     16  C   UNL     1       4.354   5.633  18.344  0.00  0.00    +0.000 C 
ATOM     17  C   UNL     1       4.660   4.212  18.813  0.00  0.00    +0.000 C 
ATOM     18  C   UNL     1       3.725   3.181  18.202  0.00  0.00    +0.000 C 
ATOM     19  C   UNL     1       2.280   3.533  18.518  0.00  0.00    +0.000 C 
ATOM     20  C   UNL     1       1.917   4.895  17.939  0.00  0.00    +0.000 C 
ENDBRANCH   3  15
BRANCH   2  21
ATOM     21  S   UNL     1       1.847   8.900  18.340  0.00  0.00    +0.000 S 
ATOM     22  H   UNL     1       1.533  10.001  19.029  0.00  0.00    +0.000 HD
ENDBRANCH   2  21
TORSDOF 5
ENDMDL
MODEL 5
REMARK VINA RESULT:      -6.2      2.110      2.884
REMARK  Name = 
REMARK  5 active torsions:
REMARK  status: ('A' for Active; 'I' for Inactive)
REMARK    1  A    between atoms: C_2  and  S_4
REMARK    2  A    between atoms: S_4  and  C_5
REMARK    3  A    between atoms: C_8  and  N_9
REMARK    4  A    between atoms: C_10  and  S_11
REMARK    5  A    between atoms: N_12  and  C_13
REMARK                            x       y       z     vdW  Elec       q    Type
REMARK                         _______ _______ _______ _____ _____    ______ ____
ROOT
ATOM      1  N   UNL     1       1.316   8.127  20.914  0.00  0.00    +0.000 N 
ATOM      2  C   UNL     1       1.917   7.819  19.717  0.00  0.00    +0.000 C 
ATOM      3  N   UNL     1       2.579   6.697  19.658  0.00  0.00    +0.000 NA
ATOM      4  H   UNL     1       1.330   7.336  21.548  0.00  0.00    +0.000 HD
ENDROOT
BRANCH   1   8
ATOM      5  C   UNL     1      -0.639  11.599  22.380  0.00  0.00    +0.000 A 
ATOM      6  C   UNL     1       0.130  11.639  21.220  0.00  0.00    +0.000 A 
ATOM      7  C   UNL     1       0.736  10.470  20.730  0.00  0.00    +0.000 A 
ATOM      8  C   UNL     1       0.584   9.233  21.382  0.00  0.00    +0.000 A 
ATOM      9  C   UNL     1      -0.234   9.209  22.516  0.00  0.00    +0.000 A 
ATOM     10  C   UNL     1      -0.828  10.375  23.020  0.00  0.00    +0.000 A 
BRANCH   5  11
ATOM     11  S   UNL     1      -1.275  13.102  23.094  0.00  0.00    +0.000 S 
BRANCH  11  13
ATOM     12  F   UNL     1      -3.298  12.195  21.743  0.00  0.00    +0.000 F 
ATOM     13  C   UNL     1      -3.044  12.787  22.940  0.00  0.00    +0.000 C 
ATOM     14  F   UNL     1      -3.456  11.917  23.895  0.00  0.00    +0.000 F 
ENDBRANCH  11  13
ENDBRANCH   5  11
ENDBRANCH   1   8
BRANCH   3  15
ATOM     15  C   UNL     1       3.098   6.163  18.384  0.00  0.00    +0.000 C 
ATOM     16  C   UNL     1       4.576   5.759  18.489  0.00  0.00    +0.000 C 
ATOM     17  C   UNL     1       4.853   4.328  18.942  0.00  0.00    +0.000 C 
ATOM     18  C   UNL     1       3.963   3.311  18.245  0.00  0.00    +0.000 C 
ATOM     19  C   UNL     1       2.500   3.654  18.473  0.00  0.00    +0.000 C 
ATOM     20  C   UNL     1       2.173   5.030  17.904  0.00  0.00    +0.000 C 
ENDBRANCH   3  15
BRANCH   2  21
ATOM     21  S   UNL     1       1.693   8.860  18.314  0.00  0.00    +0.000 S 
ATOM     22  H   UNL     1       1.721  10.025  18.967  0.00  0.00    +0.000 HD
ENDBRANCH   2  21
TORSDOF 5
ENDMDL
MODEL 6
REMARK VINA RESULT:      -6.1      4.318      8.294
REMARK  Name = 
REMARK  5 active torsions:
REMARK  status: ('A' for Active; 'I' for Inactive)
REMARK    1  A    between atoms: C_2  and  S_4
REMARK    2  A    between atoms: S_4  and  C_5
REMARK    3  A    between atoms: C_8  and  N_9
REMARK    4  A    between atoms: C_10  and  S_11
REMARK    5  A    between atoms: N_12  and  C_13
REMARK                            x       y       z     vdW  Elec       q    Type
REMARK                         _______ _______ _______ _____ _____    ______ ____
ROOT
ATOM      1  N   UNL     1       1.807   7.948  19.307  0.00  0.00    +0.000 N 
ATOM      2  C   UNL     1       1.352   8.997  20.071  0.00  0.00    +0.000 C 
ATOM      3  N   UNL     1       0.954  10.064  19.436  0.00  0.00    +0.000 NA
ATOM      4  H   UNL     1       1.605   8.093  18.324  0.00  0.00    +0.000 HD
ENDROOT
BRANCH   1   8
ATOM      5  C   UNL     1       3.424   4.073  19.935  0.00  0.00    +0.000 A 
ATOM      6  C   UNL     1       4.062   4.998  19.111  0.00  0.00    +0.000 A 
ATOM      7  C   UNL     1       3.532   6.288  18.949  0.00  0.00    +0.000 A 
ATOM      8  C   UNL     1       2.356   6.689  19.608  0.00  0.00    +0.000 A 
ATOM      9  C   UNL     1       1.762   5.761  20.469  0.00  0.00    +0.000 A 
ATOM     10  C   UNL     1       2.277   4.466  20.623  0.00  0.00    +0.000 A 
BRANCH   5  11
ATOM     11  S   UNL     1       3.999   2.390  20.020  0.00  0.00    +0.000 S 
BRANCH  11  13
ATOM     12  F   UNL     1       2.022   2.156  18.352  0.00  0.00    +0.000 F 
ATOM     13  C   UNL     1       3.317   1.757  18.475  0.00  0.00    +0.000 C 
ATOM     14  F   UNL     1       3.982   2.278  17.414  0.00  0.00    +0.000 F 
ENDBRANCH  11  13
ENDBRANCH   5  11
ENDBRANCH   1   8
BRANCH   3  15
ATOM     15  C   UNL     1       0.266  11.171  20.125  0.00  0.00    +0.000 C 
ATOM     16  C   UNL     1       1.140  12.432  20.205  0.00  0.00    +0.000 C 
ATOM     17  C   UNL     1       1.038  13.399  19.028  0.00  0.00    +0.000 C 
ATOM     18  C   UNL     1      -0.399  13.648  18.599  0.00  0.00    +0.000 C 
ATOM     19  C   UNL     1      -1.075  12.332  18.249  0.00  0.00    +0.000 C 
ATOM     20  C   UNL     1      -1.102  11.402  19.457  0.00  0.00    +0.000 C 
ENDBRANCH   3  15
BRANCH   2  21
ATOM     21  S   UNL     1       1.220   8.834  21.820  0.00  0.00    +0.000 S 
ATOM     22  H   UNL     1       0.281   9.766  22.002  0.00  0.00    +0.000 HD
ENDBRANCH   2  21
TORSDOF 5
ENDMDL
MODEL 7
REMARK VINA RESULT:      -6.1      4.549      8.451
REMARK  Name = 
REMARK  5 active torsions:
REMARK  status: ('A' for Active; 'I' for Inactive)
REMARK    1  A    between atoms: C_2  and  S_4
REMARK    2  A    between atoms: S_4  and  C_5
REMARK    3  A    between atoms: C_8  and  N_9
REMARK    4  A    between atoms: C_10  and  S_11
REMARK    5  A    between atoms: N_12  and  C_13
REMARK                            x       y       z     vdW  Elec       q    Type
REMARK                         _______ _______ _______ _____ _____    ______ ____
ROOT
ATOM      1  N   UNL     1       1.779   7.773  20.398  0.00  0.00    +0.000 N 
ATOM      2  C   UNL     1       1.450   8.856  19.616  0.00  0.00    +0.000 C 
ATOM      3  N   UNL     1       0.936   9.890  20.223  0.00  0.00    +0.000 NA
ATOM      4  H   UNL     1       1.732   8.002  21.384  0.00  0.00    +0.000 HD
ENDROOT
BRANCH   1   8
ATOM      5  C   UNL     1       3.348   3.865  19.855  0.00  0.00    +0.000 A 
ATOM      6  C   UNL     1       2.142   4.074  20.519  0.00  0.00    +0.000 A 
ATOM      7  C   UNL     1       1.620   5.371  20.653  0.00  0.00    +0.000 A 
ATOM      8  C   UNL     1       2.286   6.490  20.123  0.00  0.00    +0.000 A 
ATOM      9  C   UNL     1       3.470   6.251  19.416  0.00  0.00    +0.000 A 
ATOM     10  C   UNL     1       4.004   4.960  19.294  0.00  0.00    +0.000 A 
BRANCH   5  11
ATOM     11  S   UNL     1       4.094   2.249  19.822  0.00  0.00    +0.000 S 
BRANCH  11  13
ATOM     12  F   UNL     1       2.190   1.845  18.102  0.00  0.00    +0.000 F 
ATOM     13  C   UNL     1       3.538   1.690  18.200  0.00  0.00    +0.000 C 
ATOM     14  F   UNL     1       4.084   2.455  17.221  0.00  0.00    +0.000 F 
ENDBRANCH  11  13
ENDBRANCH   5  11
ENDBRANCH   1   8
BRANCH   3  15
ATOM     15  C   UNL     1       0.726  11.175  19.531  0.00  0.00    +0.000 C 
ATOM     16  C   UNL     1      -0.715  11.326  19.022  0.00  0.00    +0.000 C 
ATOM     17  C   UNL     1      -1.714  11.944  19.997  0.00  0.00    +0.000 C 
ATOM     18  C   UNL     1      -1.157  13.169  20.704  0.00  0.00    +0.000 C 
ATOM     19  C   UNL     1       0.128  12.814  21.434  0.00  0.00    +0.000 C 
ATOM     20  C   UNL     1       1.185  12.319  20.453  0.00  0.00    +0.000 C 
ENDBRANCH   3  15
BRANCH   2  21
ATOM     21  S   UNL     1       1.819   8.857  17.894  0.00  0.00    +0.000 S 
ATOM     22  H   UNL     1       0.990   7.869  17.547  0.00  0.00    +0.000 HD
ENDBRANCH   2  21
TORSDOF 5
ENDMDL
MODEL 8
REMARK VINA RESULT:      -6.1      4.150      8.200
REMARK  Name = 
REMARK  5 active torsions:
REMARK  status: ('A' for Active; 'I' for Inactive)
REMARK    1  A    between atoms: C_2  and  S_4
REMARK    2  A    between atoms: S_4  and  C_5
REMARK    3  A    between atoms: C_8  and  N_9
REMARK    4  A    between atoms: C_10  and  S_11
REMARK    5  A    between atoms: N_12  and  C_13
REMARK                            x       y       z     vdW  Elec       q    Type
REMARK                         _______ _______ _______ _____ _____    ______ ____
ROOT
ATOM      1  N   UNL     1       2.144   7.786  18.062  0.00  0.00    +0.000 N 
ATOM      2  C   UNL     1       1.726   8.652  19.045  0.00  0.00    +0.000 C 
ATOM      3  N   UNL     1       1.462   9.876  18.683  0.00  0.00    +0.000 NA
ATOM      4  H   UNL     1       2.022   8.188  17.140  0.00  0.00    +0.000 HD
ENDROOT
BRANCH   1   8
ATOM      5  C   UNL     1       3.245   3.691  18.287  0.00  0.00    +0.000 A 
ATOM      6  C   UNL     1       1.939   4.073  17.990  0.00  0.00    +0.000 A 
ATOM      7  C   UNL     1       1.605   5.433  17.881  0.00  0.00    +0.000 A 
ATOM      8  C   UNL     1       2.566   6.444  18.060  0.00  0.00    +0.000 A 
ATOM      9  C   UNL     1       3.881   6.035  18.307  0.00  0.00    +0.000 A 
ATOM     10  C   UNL     1       4.218   4.680  18.433  0.00  0.00    +0.000 A 
BRANCH   5  11
ATOM     11  S   UNL     1       3.642   1.981  18.585  0.00  0.00    +0.000 S 
BRANCH  11  13
ATOM     12  F   UNL     1       3.634   2.285  21.164  0.00  0.00    +0.000 F 
ATOM     13  C   UNL     1       4.527   2.142  20.148  0.00  0.00    +0.000 C 
ATOM     14  F   UNL     1       5.232   1.014  20.412  0.00  0.00    +0.000 F 
ENDBRANCH  11  13
ENDBRANCH   5  11
ENDBRANCH   1   8
BRANCH   3  15
ATOM     15  C   UNL     1       0.822  10.840  19.598  0.00  0.00    +0.000 C 
ATOM     16  C   UNL     1       1.470  12.230  19.515  0.00  0.00    +0.000 C 
ATOM     17  C   UNL     1       0.893  13.182  18.470  0.00  0.00    +0.000 C 
ATOM     18  C   UNL     1      -0.627  13.186  18.460  0.00  0.00    +0.000 C 
ATOM     19  C   UNL     1      -1.153  11.779  18.227  0.00  0.00    +0.000 C 
ATOM     20  C   UNL     1      -0.696  10.842  19.338  0.00  0.00    +0.000 C 
ENDBRANCH   3  15
BRANCH   2  21
ATOM     21  S   UNL     1       1.463   8.074  20.688  0.00  0.00    +0.000 S 
ATOM     22  H   UNL     1       0.367   8.794  20.942  0.00  0.00    +0.000 HD
ENDBRANCH   2  21
TORSDOF 5
ENDMDL
MODEL 9
REMARK VINA RESULT:      -6.1      0.830      1.030
REMARK  Name = 
REMARK  5 active torsions:
REMARK  status: ('A' for Active; 'I' for Inactive)
REMARK    1  A    between atoms: C_2  and  S_4
REMARK    2  A    between atoms: S_4  and  C_5
REMARK    3  A    between atoms: C_8  and  N_9
REMARK    4  A    between atoms: C_10  and  S_11
REMARK    5  A    between atoms: N_12  and  C_13
REMARK                            x       y       z     vdW  Elec       q    Type
REMARK                         _______ _______ _______ _____ _____    ______ ____
ROOT
ATOM      1  N   UNL     1       2.670   7.986  18.412  0.00  0.00    +0.000 N 
ATOM      2  C   UNL     1       3.080   6.689  18.614  0.00  0.00    +0.000 C 
ATOM      3  N   UNL     1       4.117   6.283  17.935  0.00  0.00    +0.000 NA
ATOM      4  H   UNL     1       3.353   8.509  17.877  0.00  0.00    +0.000 HD
ENDROOT
BRANCH   1   8
ATOM      5  C   UNL     1      -0.422  10.548  19.791  0.00  0.00    +0.000 A 
ATOM      6  C   UNL     1      -0.097  10.471  18.439  0.00  0.00    +0.000 A 
ATOM      7  C   UNL     1       0.902   9.587  17.999  0.00  0.00    +0.000 A 
ATOM      8  C   UNL     1       1.596   8.755  18.896  0.00  0.00    +0.000 A 
ATOM      9  C   UNL     1       1.217   8.814  20.241  0.00  0.00    +0.000 A 
ATOM     10  C   UNL     1       0.233   9.706  20.689  0.00  0.00    +0.000 A 
BRANCH   5  11
ATOM     11  S   UNL     1      -1.570  11.777  20.376  0.00  0.00    +0.000 S 
BRANCH  11  13
ATOM     12  F   UNL     1      -0.414  12.162  22.670  0.00  0.00    +0.000 F 
ATOM     13  C   UNL     1      -0.473  12.737  21.439  0.00  0.00    +0.000 C 
ATOM     14  F   UNL     1       0.791  12.726  20.948  0.00  0.00    +0.000 F 
ENDBRANCH  11  13
ENDBRANCH   5  11
ENDBRANCH   1   8
BRANCH   3  15
ATOM     15  C   UNL     1       4.768   4.988  18.207  0.00  0.00    +0.000 C 
ATOM     16  C   UNL     1       5.121   4.239  16.913  0.00  0.00    +0.000 C 
ATOM     17  C   UNL     1       6.488   4.545  16.307  0.00  0.00    +0.000 C 
ATOM     18  C   UNL     1       7.595   4.572  17.348  0.00  0.00    +0.000 C 
ATOM     19  C   UNL     1       7.269   5.587  18.432  0.00  0.00    +0.000 C 
ATOM     20  C   UNL     1       5.970   5.220  19.140  0.00  0.00    +0.000 C 
ENDBRANCH   3  15
BRANCH   2  21
ATOM     21  S   UNL     1       2.287   5.681  19.821  0.00  0.00    +0.000 S 
ATOM     22  H   UNL     1       1.095   6.283  19.781  0.00  0.00    +0.000 HD
ENDBRANCH   2  21
TORSDOF 5
ENDMDL
