MODEL 1
REMARK VINA RESULT:      -7.9      0.000      0.000
REMARK  Name = 
REMARK  6 active torsions:
REMARK  status: ('A' for Active; 'I' for Inactive)
REMARK    1  A    between atoms: N_1  and  S_2
REMARK    2  A    between atoms: S_2  and  C_5
REMARK    3  A    between atoms: C_7  and  C_8
REMARK    4  A    between atoms: N_10  and  N_11
REMARK    5  A    between atoms: C_16  and  S_17
REMARK    6  A    between atoms: S_17  and  N_18
REMARK                            x       y       z     vdW  Elec       q    Type
REMARK                         _______ _______ _______ _____ _____    ______ ____
ROOT
ATOM      1  C   UNL     1       1.355   8.377  20.623  0.00  0.00    +0.000 C 
ATOM      2  O   UNL     1       1.950   7.887  21.594  0.00  0.00    +0.000 OA
ATOM      3  N   UNL     1       1.612   7.868  19.310  0.00  0.00    +0.000 N 
ATOM      4  H   UNL     1       1.469   8.422  18.474  0.00  0.00    +0.000 HD
ENDROOT
BRANCH   3   5
ATOM      5  N   UNL     1       2.736   6.871  19.266  0.00  0.00    +0.000 N 
ATOM      6  C   UNL     1       2.251   5.452  19.336  0.00  0.00    +0.000 C 
ATOM      7  C   UNL     1       2.385   4.789  17.968  0.00  0.00    +0.000 C 
ATOM      8  C   UNL     1       3.535   5.560  17.436  0.00  0.00    +0.000 A 
ATOM      9  C   UNL     1       4.490   5.030  16.569  0.00  0.00    +0.000 A 
ATOM     10  C   UNL     1       5.743   5.642  16.498  0.00  0.00    +0.000 A 
ATOM     11  C   UNL     1       5.959   6.812  17.251  0.00  0.00    +0.000 A 
ATOM     12 CL   UNL     1       7.530   7.532  17.381  0.00  0.00    +0.000 Cl
ATOM     13  C   UNL     1       4.912   7.396  18.042  0.00  0.00    +0.000 A 
ATOM     14  C   UNL     1       3.669   6.765  18.144  0.00  0.00    +0.000 A 
BRANCH  10  15
ATOM     15  S   UNL     1       7.029   4.730  15.669  0.00  0.00    +0.000 S 
ATOM     16  O   UNL     1       7.561   5.509  14.578  0.00  0.00    +0.000 OA
ATOM     17  O   UNL     1       7.906   4.164  16.674  0.00  0.00    +0.000 OA
BRANCH  15  18
ATOM     18  N   UNL     1       6.283   3.387  14.994  0.00  0.00    +0.000 NA
ATOM     19  H   UNL     1       5.316   3.345  15.327  0.00  0.00    +0.000 HD
ATOM     20  H   UNL     1       6.334   3.456  13.975  0.00  0.00    +0.000 HD
ENDBRANCH  15  18
ENDBRANCH  10  15
ENDBRANCH   3   5
BRANCH   1  23
ATOM     21  C   UNL     1      -1.107  11.468  20.847  0.00  0.00    +0.000 A 
ATOM     22  C   UNL     1      -0.235  10.495  20.231  0.00  0.00    +0.000 A 
ATOM     23  C   UNL     1       0.380   9.500  21.010  0.00  0.00    +0.000 A 
ATOM     24  C   UNL     1       0.045   9.512  22.396  0.00  0.00    +0.000 A 
ATOM     25  C   UNL     1      -0.808  10.450  22.989  0.00  0.00    +0.000 A 
ATOM     26  C   UNL     1      -1.379  11.448  22.223  0.00  0.00    +0.000 A 
ATOM     27 CL   UNL     1      -2.372  12.586  23.071  0.00  0.00    +0.000 Cl
BRANCH  21  28
ATOM     28  S   UNL     1      -1.816  12.775  19.878  0.00  0.00    +0.000 S 
ATOM     29  O   UNL     1      -1.176  14.012  20.263  0.00  0.00    +0.000 OA
ATOM     30  O   UNL     1      -3.261  12.635  19.883  0.00  0.00    +0.000 OA
BRANCH  28  31
ATOM     31  N   UNL     1      -1.297  12.483  18.307  0.00  0.00    +0.000 NA
ATOM     32  H   UNL     1      -1.995  11.955  17.784  0.00  0.00    +0.000 HD
ATOM     33  H   UNL     1      -0.373  12.047  18.302  0.00  0.00    +0.000 HD
ENDBRANCH  28  31
ENDBRANCH  21  28
ENDBRANCH   1  23
TORSDOF 6
ENDMDL
MODEL 2
REMARK VINA RESULT:      -7.7      1.290      1.329
REMARK  Name = 
REMARK  6 active torsions:
REMARK  status: ('A' for Active; 'I' for Inactive)
REMARK    1  A    between atoms: N_1  and  S_2
REMARK    2  A    between atoms: S_2  and  C_5
REMARK    3  A    between atoms: C_7  and  C_8
REMARK    4  A    between atoms: N_10  and  N_11
REMARK    5  A    between atoms: C_16  and  S_17
REMARK    6  A    between atoms: S_17  and  N_18
REMARK                            x       y       z     vdW  Elec       q    Type
REMARK                         _______ _______ _______ _____ _____    ______ ____
ROOT
ATOM      1  C   UNL     1       1.789   7.478  20.323  0.00  0.00    +0.000 C 
ATOM      2  O   UNL     1       2.461   7.685  19.302  0.00  0.00    +0.000 OA
ATOM      3  N   UNL     1       1.872   6.207  20.975  0.00  0.00    +0.000 N 
ATOM      4  H   UNL     1       1.125   5.841  21.553  0.00  0.00    +0.000 HD
ENDROOT
BRANCH   3   5
ATOM      5  N   UNL     1       2.679   5.195  20.209  0.00  0.00    +0.000 N 
ATOM      6  C   UNL     1       1.824   4.289  19.372  0.00  0.00    +0.000 C 
ATOM      7  C   UNL     1       1.966   4.656  17.898  0.00  0.00    +0.000 C 
ATOM      8  C   UNL     1       3.346   5.202  17.915  0.00  0.00    +0.000 A 
ATOM      9  C   UNL     1       4.234   5.098  16.846  0.00  0.00    +0.000 A 
ATOM     10  C   UNL     1       5.603   5.206  17.101  0.00  0.00    +0.000 A 
ATOM     11  C   UNL     1       6.018   5.488  18.416  0.00  0.00    +0.000 A 
ATOM     12 CL   UNL     1       7.690   5.449  18.869  0.00  0.00    +0.000 Cl
ATOM     13  C   UNL     1       5.067   5.706  19.470  0.00  0.00    +0.000 A 
ATOM     14  C   UNL     1       3.699   5.562  19.226  0.00  0.00    +0.000 A 
BRANCH  10  15
ATOM     15  S   UNL     1       6.699   4.710  15.787  0.00  0.00    +0.000 S 
ATOM     16  O   UNL     1       6.592   5.631  14.681  0.00  0.00    +0.000 OA
ATOM     17  O   UNL     1       7.989   4.391  16.365  0.00  0.00    +0.000 OA
BRANCH  15  18
ATOM     18  N   UNL     1       6.130   3.226  15.245  0.00  0.00    +0.000 NA
ATOM     19  H   UNL     1       6.821   2.821  14.607  0.00  0.00    +0.000 HD
ATOM     20  H   UNL     1       5.954   2.624  16.052  0.00  0.00    +0.000 HD
ENDBRANCH  15  18
ENDBRANCH  10  15
ENDBRANCH   3   5
BRANCH   1  23
ATOM     21  C   UNL     1      -0.373  10.778  20.644  0.00  0.00    +0.000 A 
ATOM     22  C   UNL     1       0.370   9.723  19.992  0.00  0.00    +0.000 A 
ATOM     23  C   UNL     1       0.943   8.687  20.750  0.00  0.00    +0.000 A 
ATOM     24  C   UNL     1       0.697   8.746  22.153  0.00  0.00    +0.000 A 
ATOM     25  C   UNL     1      -0.031   9.763  22.780  0.00  0.00    +0.000 A 
ATOM     26  C   UNL     1      -0.559  10.798  22.034  0.00  0.00    +0.000 A 
ATOM     27 CL   UNL     1      -1.393  12.030  22.921  0.00  0.00    +0.000 Cl
BRANCH  21  28
ATOM     28  S   UNL     1      -1.024  12.131  19.697  0.00  0.00    +0.000 S 
ATOM     29  O   UNL     1      -0.288  13.320  20.058  0.00  0.00    +0.000 OA
ATOM     30  O   UNL     1      -2.474  12.090  19.752  0.00  0.00    +0.000 OA
BRANCH  28  31
ATOM     31  N   UNL     1      -0.581  11.804  18.109  0.00  0.00    +0.000 NA
ATOM     32  H   UNL     1       0.298  11.288  18.075  0.00  0.00    +0.000 HD
ATOM     33  H   UNL     1      -0.570  12.659  17.550  0.00  0.00    +0.000 HD
ENDBRANCH  28  31
ENDBRANCH  21  28
ENDBRANCH   1  23
TORSDOF 6
ENDMDL
MODEL 3
REMARK VINA RESULT:      -7.4      3.400      9.434
REMARK  Name = 
REMARK  6 active torsions:
REMARK  status: ('A' for Active; 'I' for Inactive)
REMARK    1  A    between atoms: N_1  and  S_2
REMARK    2  A    between atoms: S_2  and  C_5
REMARK    3  A    between atoms: C_7  and  C_8
REMARK    4  A    between atoms: N_10  and  N_11
REMARK    5  A    between atoms: C_16  and  S_17
REMARK    6  A    between atoms: S_17  and  N_18
REMARK                            x       y       z     vdW  Elec       q    Type
REMARK                         _______ _______ _______ _____ _____    ______ ____
ROOT
ATOM      1  C   UNL     1       2.090   8.510  18.259  0.00  0.00    +0.000 C 
ATOM      2  O   UNL     1       2.196   8.990  17.121  0.00  0.00    +0.000 OA
ATOM      3  N   UNL     1       1.263   9.166  19.225  0.00  0.00    +0.000 N 
ATOM      4  H   UNL     1       1.407   9.067  20.223  0.00  0.00    +0.000 HD
ENDROOT
BRANCH   3   5
ATOM      5  N   UNL     1       0.736  10.494  18.757  0.00  0.00    +0.000 N 
ATOM      6  C   UNL     1      -0.714  10.690  19.091  0.00  0.00    +0.000 C 
ATOM      7  C   UNL     1      -0.853  11.693  20.232  0.00  0.00    +0.000 C 
ATOM      8  C   UNL     1       0.365  12.505  19.992  0.00  0.00    +0.000 A 
ATOM      9  C   UNL     1       0.454  13.870  20.260  0.00  0.00    +0.000 A 
ATOM     10  C   UNL     1       1.423  14.622  19.594  0.00  0.00    +0.000 A 
ATOM     11  C   UNL     1       2.315  13.951  18.735  0.00  0.00    +0.000 A 
ATOM     12 CL   UNL     1       3.421  14.817  17.719  0.00  0.00    +0.000 Cl
ATOM     13  C   UNL     1       2.269  12.525  18.574  0.00  0.00    +0.000 A 
ATOM     14  C   UNL     1       1.277  11.775  19.211  0.00  0.00    +0.000 A 
BRANCH  10  15
ATOM     15  S   UNL     1       1.262  16.393  19.690  0.00  0.00    +0.000 S 
ATOM     16  O   UNL     1       2.462  16.968  20.248  0.00  0.00    +0.000 OA
ATOM     17  O   UNL     1       0.726  16.871  18.431  0.00  0.00    +0.000 OA
BRANCH  15  18
ATOM     18  N   UNL     1       0.023  16.687  20.784  0.00  0.00    +0.000 NA
ATOM     19  H   UNL     1      -0.587  17.416  20.403  0.00  0.00    +0.000 HD
ATOM     20  H   UNL     1      -0.482  15.815  20.955  0.00  0.00    +0.000 HD
ENDBRANCH  15  18
ENDBRANCH  10  15
ENDBRANCH   3   5
BRANCH   1  23
ATOM     21  C   UNL     1       4.601   5.453  18.141  0.00  0.00    +0.000 A 
ATOM     22  C   UNL     1       4.037   6.735  17.786  0.00  0.00    +0.000 A 
ATOM     23  C   UNL     1       2.896   7.216  18.451  0.00  0.00    +0.000 A 
ATOM     24  C   UNL     1       2.395   6.380  19.492  0.00  0.00    +0.000 A 
ATOM     25  C   UNL     1       2.949   5.143  19.840  0.00  0.00    +0.000 A 
ATOM     26  C   UNL     1       4.047   4.659  19.157  0.00  0.00    +0.000 A 
ATOM     27 CL   UNL     1       4.615   3.094  19.635  0.00  0.00    +0.000 Cl
BRANCH  21  28
ATOM     28  S   UNL     1       5.990   4.807  17.245  0.00  0.00    +0.000 S 
ATOM     29  O   UNL     1       5.502   3.797  16.335  0.00  0.00    +0.000 OA
ATOM     30  O   UNL     1       7.067   4.530  18.179  0.00  0.00    +0.000 OA
BRANCH  28  31
ATOM     31  N   UNL     1       6.502   6.072  16.263  0.00  0.00    +0.000 NA
ATOM     32  H   UNL     1       5.730   6.434  15.704  0.00  0.00    +0.000 HD
ATOM     33  H   UNL     1       7.312   5.796  15.705  0.00  0.00    +0.000 HD
ENDBRANCH  28  31
ENDBRANCH  21  28
ENDBRANCH   1  23
TORSDOF 6
ENDMDL
MODEL 4
REMARK VINA RESULT:      -7.4      3.284      3.889
REMARK  Name = 
REMARK  6 active torsions:
REMARK  status: ('A' for Active; 'I' for Inactive)
REMARK    1  A    between atoms: N_1  and  S_2
REMARK    2  A    between atoms: S_2  and  C_5
REMARK    3  A    between atoms: C_7  and  C_8
REMARK    4  A    between atoms: N_10  and  N_11
REMARK    5  A    between atoms: C_16  and  S_17
REMARK    6  A    between atoms: S_17  and  N_18
REMARK                            x       y       z     vdW  Elec       q    Type
REMARK                         _______ _______ _______ _____ _____    ______ ____
ROOT
ATOM      1  C   UNL     1       0.262  10.197  20.309  0.00  0.00    +0.000 C 
ATOM      2  O   UNL     1      -0.715   9.769  19.676  0.00  0.00    +0.000 OA
ATOM      3  N   UNL     1       1.520   9.523  20.203  0.00  0.00    +0.000 N 
ATOM      4  H   UNL     1       2.226   9.571  20.928  0.00  0.00    +0.000 HD
ENDROOT
BRANCH   3   5
ATOM      5  N   UNL     1       1.444   8.236  19.429  0.00  0.00    +0.000 N 
ATOM      6  C   UNL     1       1.863   8.398  17.997  0.00  0.00    +0.000 C 
ATOM      7  C   UNL     1       3.236   7.768  17.783  0.00  0.00    +0.000 C 
ATOM      8  C   UNL     1       3.187   6.717  18.829  0.00  0.00    +0.000 A 
ATOM      9  C   UNL     1       3.812   5.476  18.712  0.00  0.00    +0.000 A 
ATOM     10  C   UNL     1       3.343   4.415  19.489  0.00  0.00    +0.000 A 
ATOM     11  C   UNL     1       2.308   4.667  20.410  0.00  0.00    +0.000 A 
ATOM     12 CL   UNL     1       1.530   3.382  21.275  0.00  0.00    +0.000 Cl
ATOM     13  C   UNL     1       1.770   5.986  20.587  0.00  0.00    +0.000 A 
ATOM     14  C   UNL     1       2.211   7.042  19.785  0.00  0.00    +0.000 A 
BRANCH  10  15
ATOM     15  S   UNL     1       3.920   2.788  19.046  0.00  0.00    +0.000 S 
ATOM     16  O   UNL     1       4.841   2.303  20.044  0.00  0.00    +0.000 OA
ATOM     17  O   UNL     1       2.776   1.994  18.642  0.00  0.00    +0.000 OA
BRANCH  15  18
ATOM     18  N   UNL     1       4.792   2.977  17.625  0.00  0.00    +0.000 NA
ATOM     19  H   UNL     1       4.228   3.516  16.961  0.00  0.00    +0.000 HD
ATOM     20  H   UNL     1       5.678   3.440  17.838  0.00  0.00    +0.000 HD
ENDBRANCH  15  18
ENDBRANCH  10  15
ENDBRANCH   3   5
BRANCH   1  23
ATOM     21  C   UNL     1      -0.032  13.792  21.938  0.00  0.00    +0.000 A 
ATOM     22  C   UNL     1       0.397  12.779  21.001  0.00  0.00    +0.000 A 
ATOM     23  C   UNL     1      -0.052  11.454  21.134  0.00  0.00    +0.000 A 
ATOM     24  C   UNL     1      -0.965  11.221  22.205  0.00  0.00    +0.000 A 
ATOM     25  C   UNL     1      -1.386  12.206  23.105  0.00  0.00    +0.000 A 
ATOM     26  C   UNL     1      -0.911  13.498  22.991  0.00  0.00    +0.000 A 
ATOM     27 CL   UNL     1      -1.456  14.621  24.192  0.00  0.00    +0.000 Cl
BRANCH  21  28
ATOM     28  S   UNL     1       0.602  15.446  21.820  0.00  0.00    +0.000 S 
ATOM     29  O   UNL     1       1.540  15.640  22.902  0.00  0.00    +0.000 OA
ATOM     30  O   UNL     1      -0.505  16.360  21.602  0.00  0.00    +0.000 OA
BRANCH  28  31
ATOM     31  N   UNL     1       1.535  15.457  20.423  0.00  0.00    +0.000 NA
ATOM     32  H   UNL     1       2.199  14.684  20.422  0.00  0.00    +0.000 HD
ATOM     33  H   UNL     1       1.974  16.368  20.284  0.00  0.00    +0.000 HD
ENDBRANCH  28  31
ENDBRANCH  21  28
ENDBRANCH   1  23
TORSDOF 6
ENDMDL
MODEL 5
REMARK VINA RESULT:      -7.3      4.098      9.209
REMARK  Name = 
REMARK  6 active torsions:
REMARK  status: ('A' for Active; 'I' for Inactive)
REMARK    1  A    between atoms: N_1  and  S_2
REMARK    2  A    between atoms: S_2  and  C_5
REMARK    3  A    between atoms: C_7  and  C_8
REMARK    4  A    between atoms: N_10  and  N_11
REMARK    5  A    between atoms: C_16  and  S_17
REMARK    6  A    between atoms: S_17  and  N_18
REMARK                            x       y       z     vdW  Elec       q    Type
REMARK                         _______ _______ _______ _____ _____    ______ ____
ROOT
ATOM      1  C   UNL     1       1.787   9.026  18.462  0.00  0.00    +0.000 C 
ATOM      2  O   UNL     1       2.047   9.295  17.279  0.00  0.00    +0.000 OA
ATOM      3  N   UNL     1       1.101   9.988  19.268  0.00  0.00    +0.000 N 
ATOM      4  H   UNL     1       1.179  10.007  20.278  0.00  0.00    +0.000 HD
ENDROOT
BRANCH   3   5
ATOM      5  N   UNL     1       0.922  11.318  18.588  0.00  0.00    +0.000 N 
ATOM      6  C   UNL     1      -0.496  11.808  18.646  0.00  0.00    +0.000 C 
ATOM      7  C   UNL     1      -0.608  12.958  19.641  0.00  0.00    +0.000 C 
ATOM      8  C   UNL     1       0.768  13.504  19.539  0.00  0.00    +0.000 A 
ATOM      9  C   UNL     1       1.079  14.855  19.684  0.00  0.00    +0.000 A 
ATOM     10  C   UNL     1       2.267  15.332  19.126  0.00  0.00    +0.000 A 
ATOM     11  C   UNL     1       3.131  14.410  18.504  0.00  0.00    +0.000 A 
ATOM     12 CL   UNL     1       4.526  14.928  17.616  0.00  0.00    +0.000 Cl
ATOM     13  C   UNL     1       2.831  13.006  18.477  0.00  0.00    +0.000 A 
ATOM     14  C   UNL     1       1.627  12.530  19.003  0.00  0.00    +0.000 A 
BRANCH  10  15
ATOM     15  S   UNL     1       2.442  17.101  19.019  0.00  0.00    +0.000 S 
ATOM     16  O   UNL     1       3.630  17.522  19.723  0.00  0.00    +0.000 OA
ATOM     17  O   UNL     1       2.213  17.501  17.645  0.00  0.00    +0.000 OA
BRANCH  15  18
ATOM     18  N   UNL     1       1.130  17.747  19.843  0.00  0.00    +0.000 NA
ATOM     19  H   UNL     1       1.399  17.906  20.818  0.00  0.00    +0.000 HD
ATOM     20  H   UNL     1       0.840  18.611  19.379  0.00  0.00    +0.000 HD
ENDBRANCH  15  18
ENDBRANCH  10  15
ENDBRANCH   3   5
BRANCH   1  23
ATOM     21  C   UNL     1       3.432   5.450  18.879  0.00  0.00    +0.000 A 
ATOM     22  C   UNL     1       3.179   6.746  18.291  0.00  0.00    +0.000 A 
ATOM     23  C   UNL     1       2.257   7.625  18.884  0.00  0.00    +0.000 A 
ATOM     24  C   UNL     1       1.653   7.160  20.089  0.00  0.00    +0.000 A 
ATOM     25  C   UNL     1       1.907   5.908  20.661  0.00  0.00    +0.000 A 
ATOM     26  C   UNL     1       2.786   5.034  20.053  0.00  0.00    +0.000 A 
ATOM     27 CL   UNL     1       2.983   3.492  20.818  0.00  0.00    +0.000 Cl
BRANCH  21  28
ATOM     28  S   UNL     1       4.533   4.307  18.084  0.00  0.00    +0.000 S 
ATOM     29  O   UNL     1       3.746   3.198  17.596  0.00  0.00    +0.000 OA
ATOM     30  O   UNL     1       5.691   4.099  18.935  0.00  0.00    +0.000 OA
BRANCH  28  31
ATOM     31  N   UNL     1       5.070   5.105  16.706  0.00  0.00    +0.000 NA
ATOM     32  H   UNL     1       5.963   4.726  16.391  0.00  0.00    +0.000 HD
ATOM     33  H   UNL     1       5.088   6.115  16.853  0.00  0.00    +0.000 HD
ENDBRANCH  28  31
ENDBRANCH  21  28
ENDBRANCH   1  23
TORSDOF 6
ENDMDL
MODEL 6
REMARK VINA RESULT:      -7.2      1.509      1.610
REMARK  Name = 
REMARK  6 active torsions:
REMARK  status: ('A' for Active; 'I' for Inactive)
REMARK    1  A    between atoms: N_1  and  S_2
REMARK    2  A    between atoms: S_2  and  C_5
REMARK    3  A    between atoms: C_7  and  C_8
REMARK    4  A    between atoms: N_10  and  N_11
REMARK    5  A    between atoms: C_16  and  S_17
REMARK    6  A    between atoms: S_17  and  N_18
REMARK                            x       y       z     vdW  Elec       q    Type
REMARK                         _______ _______ _______ _____ _____    ______ ____
ROOT
ATOM      1  C   UNL     1       1.753   7.644  20.111  0.00  0.00    +0.000 C 
ATOM      2  O   UNL     1       2.510   7.772  19.137  0.00  0.00    +0.000 OA
ATOM      3  N   UNL     1       1.751   6.416  20.845  0.00  0.00    +0.000 N 
ATOM      4  H   UNL     1       0.950   6.103  21.382  0.00  0.00    +0.000 HD
ENDROOT
BRANCH   3   5
ATOM      5  N   UNL     1       2.590   5.340  20.212  0.00  0.00    +0.000 N 
ATOM      6  C   UNL     1       1.771   4.359  19.425  0.00  0.00    +0.000 C 
ATOM      7  C   UNL     1       1.978   4.589  17.931  0.00  0.00    +0.000 C 
ATOM      8  C   UNL     1       3.356   5.138  17.958  0.00  0.00    +0.000 A 
ATOM      9  C   UNL     1       4.291   4.939  16.944  0.00  0.00    +0.000 A 
ATOM     10  C   UNL     1       5.647   5.075  17.247  0.00  0.00    +0.000 A 
ATOM     11  C   UNL     1       6.004   5.478  18.548  0.00  0.00    +0.000 A 
ATOM     12 CL   UNL     1       7.655   5.486  19.075  0.00  0.00    +0.000 Cl
ATOM     13  C   UNL     1       5.008   5.789  19.534  0.00  0.00    +0.000 A 
ATOM     14  C   UNL     1       3.652   5.619  19.245  0.00  0.00    +0.000 A 
BRANCH  10  15
ATOM     15  S   UNL     1       6.799   4.463  16.033  0.00  0.00    +0.000 S 
ATOM     16  O   UNL     1       8.048   4.119  16.669  0.00  0.00    +0.000 OA
ATOM     17  O   UNL     1       6.108   3.509  15.189  0.00  0.00    +0.000 OA
BRANCH  15  18
ATOM     18  N   UNL     1       7.112   5.749  15.001  0.00  0.00    +0.000 NA
ATOM     19  H   UNL     1       7.590   6.486  15.528  0.00  0.00    +0.000 HD
ATOM     20  H   UNL     1       7.673   5.415  14.215  0.00  0.00    +0.000 HD
ENDBRANCH  15  18
ENDBRANCH  10  15
ENDBRANCH   3   5
BRANCH   1  23
ATOM     21  C   UNL     1      -0.487  10.906  20.037  0.00  0.00    +0.000 A 
ATOM     22  C   UNL     1       0.229   9.764  19.518  0.00  0.00    +0.000 A 
ATOM     23  C   UNL     1       0.907   8.896  20.392  0.00  0.00    +0.000 A 
ATOM     24  C   UNL     1       0.791   9.208  21.778  0.00  0.00    +0.000 A 
ATOM     25  C   UNL     1       0.089  10.310  22.278  0.00  0.00    +0.000 A 
ATOM     26  C   UNL     1      -0.543  11.180  21.412  0.00  0.00    +0.000 A 
ATOM     27 CL   UNL     1      -1.335  12.539  22.137  0.00  0.00    +0.000 Cl
BRANCH  21  28
ATOM     28  S   UNL     1      -1.272  12.049  18.928  0.00  0.00    +0.000 S 
ATOM     29  O   UNL     1      -0.421  13.211  18.812  0.00  0.00    +0.000 OA
ATOM     30  O   UNL     1      -2.674  12.168  19.289  0.00  0.00    +0.000 OA
BRANCH  28  31
ATOM     31  N   UNL     1      -1.211  11.306  17.422  0.00  0.00    +0.000 NA
ATOM     32  H   UNL     1      -0.433  11.666  16.870  0.00  0.00    +0.000 HD
ATOM     33  H   UNL     1      -2.112  11.374  16.945  0.00  0.00    +0.000 HD
ENDBRANCH  28  31
ENDBRANCH  21  28
ENDBRANCH   1  23
TORSDOF 6
ENDMDL
MODEL 7
REMARK VINA RESULT:      -7.1      3.364      9.429
REMARK  Name = 
REMARK  6 active torsions:
REMARK  status: ('A' for Active; 'I' for Inactive)
REMARK    1  A    between atoms: N_1  and  S_2
REMARK    2  A    between atoms: S_2  and  C_5
REMARK    3  A    between atoms: C_7  and  C_8
REMARK    4  A    between atoms: N_10  and  N_11
REMARK    5  A    between atoms: C_16  and  S_17
REMARK    6  A    between atoms: S_17  and  N_18
REMARK                            x       y       z     vdW  Elec       q    Type
REMARK                         _______ _______ _______ _____ _____    ______ ____
ROOT
ATOM      1  C   UNL     1       2.111   8.506  18.179  0.00  0.00    +0.000 C 
ATOM      2  O   UNL     1       2.218   9.059  17.075  0.00  0.00    +0.000 OA
ATOM      3  N   UNL     1       1.252   9.078  19.172  0.00  0.00    +0.000 N 
ATOM      4  H   UNL     1       1.386   8.919  20.164  0.00  0.00    +0.000 HD
ENDROOT
BRANCH   3   5
ATOM      5  N   UNL     1       0.695  10.418  18.780  0.00  0.00    +0.000 N 
ATOM      6  C   UNL     1      -0.734  10.594  19.201  0.00  0.00    +0.000 C 
ATOM      7  C   UNL     1      -0.813  11.558  20.381  0.00  0.00    +0.000 C 
ATOM      8  C   UNL     1       0.387  12.384  20.102  0.00  0.00    +0.000 A 
ATOM      9  C   UNL     1       0.486  13.739  20.412  0.00  0.00    +0.000 A 
ATOM     10  C   UNL     1       1.414  14.519  19.718  0.00  0.00    +0.000 A 
ATOM     11  C   UNL     1       2.259  13.883  18.788  0.00  0.00    +0.000 A 
ATOM     12 CL   UNL     1       3.303  14.788  17.742  0.00  0.00    +0.000 Cl
ATOM     13  C   UNL     1       2.209  12.463  18.582  0.00  0.00    +0.000 A 
ATOM     14  C   UNL     1       1.257  11.686  19.247  0.00  0.00    +0.000 A 
BRANCH  10  15
ATOM     15  S   UNL     1       1.253  16.285  19.884  0.00  0.00    +0.000 S 
ATOM     16  O   UNL     1       0.988  16.879  18.596  0.00  0.00    +0.000 OA
ATOM     17  O   UNL     1       0.393  16.559  21.019  0.00  0.00    +0.000 OA
BRANCH  15  18
ATOM     18  N   UNL     1       2.755  16.843  20.382  0.00  0.00    +0.000 NA
ATOM     19  H   UNL     1       3.463  16.145  20.141  0.00  0.00    +0.000 HD
ATOM     20  H   UNL     1       2.938  17.744  19.937  0.00  0.00    +0.000 HD
ENDBRANCH  15  18
ENDBRANCH  10  15
ENDBRANCH   3   5
BRANCH   1  23
ATOM     21  C   UNL     1       4.638   5.479  17.840  0.00  0.00    +0.000 A 
ATOM     22  C   UNL     1       4.024   6.750  17.531  0.00  0.00    +0.000 A 
ATOM     23  C   UNL     1       2.949   7.225  18.302  0.00  0.00    +0.000 A 
ATOM     24  C   UNL     1       2.566   6.394  19.396  0.00  0.00    +0.000 A 
ATOM     25  C   UNL     1       3.169   5.168  19.699  0.00  0.00    +0.000 A 
ATOM     26  C   UNL     1       4.199   4.690  18.914  0.00  0.00    +0.000 A 
ATOM     27 CL   UNL     1       4.833   3.138  19.348  0.00  0.00    +0.000 Cl
BRANCH  21  28
ATOM     28  S   UNL     1       5.939   4.841  16.815  0.00  0.00    +0.000 S 
ATOM     29  O   UNL     1       6.496   5.944  16.065  0.00  0.00    +0.000 OA
ATOM     30  O   UNL     1       5.471   3.635  16.156  0.00  0.00    +0.000 OA
BRANCH  28  31
ATOM     31  N   UNL     1       7.150   4.381  17.885  0.00  0.00    +0.000 NA
ATOM     32  H   UNL     1       7.917   5.053  17.878  0.00  0.00    +0.000 HD
ATOM     33  H   UNL     1       7.452   3.422  17.704  0.00  0.00    +0.000 HD
ENDBRANCH  28  31
ENDBRANCH  21  28
ENDBRANCH   1  23
TORSDOF 6
ENDMDL
MODEL 8
REMARK VINA RESULT:      -7.1      3.317      4.006
REMARK  Name = 
REMARK  6 active torsions:
REMARK  status: ('A' for Active; 'I' for Inactive)
REMARK    1  A    between atoms: N_1  and  S_2
REMARK    2  A    between atoms: S_2  and  C_5
REMARK    3  A    between atoms: C_7  and  C_8
REMARK    4  A    between atoms: N_10  and  N_11
REMARK    5  A    between atoms: C_16  and  S_17
REMARK    6  A    between atoms: S_17  and  N_18
REMARK                            x       y       z     vdW  Elec       q    Type
REMARK                         _______ _______ _______ _____ _____    ______ ____
ROOT
ATOM      1  C   UNL     1       0.129  10.327  20.150  0.00  0.00    +0.000 C 
ATOM      2  O   UNL     1      -0.805   9.904  19.453  0.00  0.00    +0.000 OA
ATOM      3  N   UNL     1       1.381   9.633  20.147  0.00  0.00    +0.000 N 
ATOM      4  H   UNL     1       2.032   9.681  20.921  0.00  0.00    +0.000 HD
ENDROOT
BRANCH   3   5
ATOM      5  N   UNL     1       1.342   8.336  19.386  0.00  0.00    +0.000 N 
ATOM      6  C   UNL     1       1.747   8.498  17.950  0.00  0.00    +0.000 C 
ATOM      7  C   UNL     1       3.138   7.911  17.733  0.00  0.00    +0.000 C 
ATOM      8  C   UNL     1       3.130   6.869  18.789  0.00  0.00    +0.000 A 
ATOM      9  C   UNL     1       3.795   5.649  18.680  0.00  0.00    +0.000 A 
ATOM     10  C   UNL     1       3.366   4.581  19.472  0.00  0.00    +0.000 A 
ATOM     11  C   UNL     1       2.329   4.808  20.396  0.00  0.00    +0.000 A 
ATOM     12 CL   UNL     1       1.600   3.508  21.280  0.00  0.00    +0.000 Cl
ATOM     13  C   UNL     1       1.749   6.110  20.564  0.00  0.00    +0.000 A 
ATOM     14  C   UNL     1       2.150   7.172  19.749  0.00  0.00    +0.000 A 
BRANCH  10  15
ATOM     15  S   UNL     1       3.993   2.970  19.040  0.00  0.00    +0.000 S 
ATOM     16  O   UNL     1       4.849   2.477  20.091  0.00  0.00    +0.000 OA
ATOM     17  O   UNL     1       2.891   2.170  18.544  0.00  0.00    +0.000 OA
BRANCH  15  18
ATOM     18  N   UNL     1       4.959   3.195  17.686  0.00  0.00    +0.000 NA
ATOM     19  H   UNL     1       5.540   4.025  17.831  0.00  0.00    +0.000 HD
ATOM     20  H   UNL     1       5.521   2.355  17.537  0.00  0.00    +0.000 HD
ENDBRANCH  15  18
ENDBRANCH  10  15
ENDBRANCH   3   5
BRANCH   1  23
ATOM     21  C   UNL     1      -1.480  13.234  22.302  0.00  0.00    +0.000 A 
ATOM     22  C   UNL     1      -1.376  11.941  21.666  0.00  0.00    +0.000 A 
ATOM     23  C   UNL     1      -0.225  11.600  20.934  0.00  0.00    +0.000 A 
ATOM     24  C   UNL     1       0.803  12.588  20.914  0.00  0.00    +0.000 A 
ATOM     25  C   UNL     1       0.704  13.836  21.539  0.00  0.00    +0.000 A 
ATOM     26  C   UNL     1      -0.445  14.179  22.224  0.00  0.00    +0.000 A 
ATOM     27 CL   UNL     1      -0.479  15.769  22.911  0.00  0.00    +0.000 Cl
BRANCH  21  28
ATOM     28  S   UNL     1      -2.966  13.696  23.154  0.00  0.00    +0.000 S 
ATOM     29  O   UNL     1      -3.699  14.608  22.307  0.00  0.00    +0.000 OA
ATOM     30  O   UNL     1      -2.636  14.033  24.528  0.00  0.00    +0.000 OA
BRANCH  28  31
ATOM     31  N   UNL     1      -3.895  12.296  23.200  0.00  0.00    +0.000 NA
ATOM     32  H   UNL     1      -4.595  12.347  23.940  0.00  0.00    +0.000 HD
ATOM     33  H   UNL     1      -3.302  11.466  23.260  0.00  0.00    +0.000 HD
ENDBRANCH  28  31
ENDBRANCH  21  28
ENDBRANCH   1  23
TORSDOF 6
ENDMDL
MODEL 9
REMARK VINA RESULT:      -7.1      2.829      9.801
REMARK  Name = 
REMARK  6 active torsions:
REMARK  status: ('A' for Active; 'I' for Inactive)
REMARK    1  A    between atoms: N_1  and  S_2
REMARK    2  A    between atoms: S_2  and  C_5
REMARK    3  A    between atoms: C_7  and  C_8
REMARK    4  A    between atoms: N_10  and  N_11
REMARK    5  A    between atoms: C_16  and  S_17
REMARK    6  A    between atoms: S_17  and  N_18
REMARK                            x       y       z     vdW  Elec       q    Type
REMARK                         _______ _______ _______ _____ _____    ______ ____
ROOT
ATOM      1  C   UNL     1       2.178   8.388  18.167  0.00  0.00    +0.000 C 
ATOM      2  O   UNL     1       2.417   8.953  17.089  0.00  0.00    +0.000 OA
ATOM      3  N   UNL     1       1.208   8.950  19.056  0.00  0.00    +0.000 N 
ATOM      4  H   UNL     1       1.222   8.781  20.055  0.00  0.00    +0.000 HD
ENDROOT
BRANCH   3   5
ATOM      5  N   UNL     1       0.702  10.295  18.615  0.00  0.00    +0.000 N 
ATOM      6  C   UNL     1      -0.602  10.207  17.878  0.00  0.00    +0.000 C 
ATOM      7  C   UNL     1      -1.735  10.720  18.763  0.00  0.00    +0.000 C 
ATOM      8  C   UNL     1      -0.975  11.686  19.594  0.00  0.00    +0.000 A 
ATOM      9  C   UNL     1      -1.515  12.868  20.099  0.00  0.00    +0.000 A 
ATOM     10  C   UNL     1      -0.647  13.904  20.450  0.00  0.00    +0.000 A 
ATOM     11  C   UNL     1       0.739  13.679  20.346  0.00  0.00    +0.000 A 
ATOM     12 CL   UNL     1       1.886  14.959  20.570  0.00  0.00    +0.000 Cl
ATOM     13  C   UNL     1       1.261  12.406  19.934  0.00  0.00    +0.000 A 
ATOM     14  C   UNL     1       0.395  11.380  19.547  0.00  0.00    +0.000 A 
BRANCH  10  15
ATOM     15  S   UNL     1      -1.387  15.499  20.738  0.00  0.00    +0.000 S 
ATOM     16  O   UNL     1      -1.175  15.899  22.108  0.00  0.00    +0.000 OA
ATOM     17  O   UNL     1      -1.021  16.376  19.643  0.00  0.00    +0.000 OA
BRANCH  15  18
ATOM     18  N   UNL     1      -3.040  15.286  20.539  0.00  0.00    +0.000 NA
ATOM     19  H   UNL     1      -3.196  14.599  19.797  0.00  0.00    +0.000 HD
ATOM     20  H   UNL     1      -3.445  14.988  21.429  0.00  0.00    +0.000 HD
ENDBRANCH  15  18
ENDBRANCH  10  15
ENDBRANCH   3   5
BRANCH   1  23
ATOM     21  C   UNL     1       4.729   5.362  18.099  0.00  0.00    +0.000 A 
ATOM     22  C   UNL     1       4.157   6.637  17.734  0.00  0.00    +0.000 A 
ATOM     23  C   UNL     1       2.996   7.104  18.375  0.00  0.00    +0.000 A 
ATOM     24  C   UNL     1       2.484   6.261  19.404  0.00  0.00    +0.000 A 
ATOM     25  C   UNL     1       3.045   5.030  19.763  0.00  0.00    +0.000 A 
ATOM     26  C   UNL     1       4.164   4.561  19.103  0.00  0.00    +0.000 A 
ATOM     27 CL   UNL     1       4.740   3.002  19.591  0.00  0.00    +0.000 Cl
BRANCH  21  28
ATOM     28  S   UNL     1       6.145   4.735  17.232  0.00  0.00    +0.000 S 
ATOM     29  O   UNL     1       5.688   3.718  16.312  0.00  0.00    +0.000 OA
ATOM     30  O   UNL     1       7.205   4.472  18.189  0.00  0.00    +0.000 OA
BRANCH  28  31
ATOM     31  N   UNL     1       6.660   6.006  16.262  0.00  0.00    +0.000 NA
ATOM     32  H   UNL     1       7.235   5.666  15.491  0.00  0.00    +0.000 HD
ATOM     33  H   UNL     1       7.118   6.729  16.820  0.00  0.00    +0.000 HD
ENDBRANCH  28  31
ENDBRANCH  21  28
ENDBRANCH   1  23
TORSDOF 6
ENDMDL
