MODEL 1
REMARK VINA RESULT:      -9.1      0.000      0.000
REMARK  Name = 
REMARK  8 active torsions:
REMARK  status: ('A' for Active; 'I' for Inactive)
REMARK    1  A    between atoms: C_1  and  O_2
REMARK    2  A    between atoms: O_2  and  C_3
REMARK    3  A    between atoms: C_6  and  C_7
REMARK    4  A    between atoms: C_13  and  C_14
REMARK    5  A    between atoms: C_18  and  O_19
REMARK    6  A    between atoms: O_19  and  C_20
REMARK    7  A    between atoms: C_20  and  C_21
REMARK    8  A    between atoms: C_20  and  C_22
REMARK                            x       y       z     vdW  Elec       q    Type
REMARK                         _______ _______ _______ _____ _____    ______ ____
ROOT
ATOM      1  C   UNL     1       4.526   3.921  18.686  0.00  0.00    +0.000 A 
ATOM      2  N   UNL     1       4.539   2.724  19.252  0.00  0.00    +0.000 NA
ATOM      3  N   UNL     1       3.586   2.686  20.245  0.00  0.00    +0.000 NA
ATOM      4  C   UNL     1       2.979   3.851  20.259  0.00  0.00    +0.000 A 
ATOM      5  C   UNL     1       1.935   4.385  21.066  0.00  0.00    +0.000 A 
ATOM      6  C   UNL     1       1.498   5.643  20.851  0.00  0.00    +0.000 A 
ATOM      7  C   UNL     1       2.057   6.474  19.791  0.00  0.00    +0.000 A 
ATOM      8  C   UNL     1       3.025   5.950  19.013  0.00  0.00    +0.000 A 
ATOM      9  N   UNL     1       3.504   4.665  19.264  0.00  0.00    +0.000 N 
ENDROOT
BRANCH   1  13
ATOM     10  C   UNL     1       7.036   5.213  15.443  0.00  0.00    +0.000 A 
ATOM     11  C   UNL     1       6.196   4.105  15.308  0.00  0.00    +0.000 A 
ATOM     12  C   UNL     1       5.395   3.678  16.376  0.00  0.00    +0.000 A 
ATOM     13  C   UNL     1       5.417   4.352  17.604  0.00  0.00    +0.000 A 
ATOM     14  C   UNL     1       6.315   5.415  17.753  0.00  0.00    +0.000 A 
ATOM     15  C   UNL     1       7.090   5.852  16.680  0.00  0.00    +0.000 A 
ATOM     16  F   UNL     1       7.881   6.916  16.893  0.00  0.00    +0.000 F 
BRANCH  10  18
ATOM     17  C   UNL     1       7.366   4.867  13.114  0.00  0.00    +0.000 C 
ATOM     18  O   UNL     1       7.731   5.542  14.313  0.00  0.00    +0.000 OA
ENDBRANCH  10  18
ENDBRANCH   1  13
BRANCH   7  19
ATOM     19  C   UNL     1       1.705   7.879  19.548  0.00  0.00    +0.000 A 
ATOM     20  C   UNL     1       1.972   8.488  18.318  0.00  0.00    +0.000 A 
ATOM     21  C   UNL     1       1.739   9.853  18.153  0.00  0.00    +0.000 A 
ATOM     22  C   UNL     1       1.273  10.616  19.225  0.00  0.00    +0.000 A 
ATOM     23  C   UNL     1       1.033  10.023  20.466  0.00  0.00    +0.000 A 
ATOM     24  C   UNL     1       1.199   8.646  20.609  0.00  0.00    +0.000 A 
BRANCH  23  25
ATOM     25  O   UNL     1       0.679  10.887  21.464  0.00  0.00    +0.000 OA
BRANCH  25  26
ATOM     26  C   UNL     1      -0.545  10.642  22.173  0.00  0.00    +0.000 C 
ATOM     27  C   UNL     1      -0.344   9.695  23.360  0.00  0.00    +0.000 C 
ATOM     28  C   UNL     1      -1.022  11.997  22.696  0.00  0.00    +0.000 C 
ENDBRANCH  25  26
ENDBRANCH  23  25
ENDBRANCH   7  19
TORSDOF 5
ENDMDL
MODEL 2
REMARK VINA RESULT:      -8.8      1.002      1.313
REMARK  Name = 
REMARK  8 active torsions:
REMARK  status: ('A' for Active; 'I' for Inactive)
REMARK    1  A    between atoms: C_1  and  O_2
REMARK    2  A    between atoms: O_2  and  C_3
REMARK    3  A    between atoms: C_6  and  C_7
REMARK    4  A    between atoms: C_13  and  C_14
REMARK    5  A    between atoms: C_18  and  O_19
REMARK    6  A    between atoms: O_19  and  C_20
REMARK    7  A    between atoms: C_20  and  C_21
REMARK    8  A    between atoms: C_20  and  C_22
REMARK                            x       y       z     vdW  Elec       q    Type
REMARK                         _______ _______ _______ _____ _____    ______ ____
ROOT
ATOM      1  C   UNL     1       4.471   3.888  18.472  0.00  0.00    +0.000 A 
ATOM      2  N   UNL     1       4.543   2.699  19.050  0.00  0.00    +0.000 NA
ATOM      3  N   UNL     1       3.684   2.670  20.126  0.00  0.00    +0.000 NA
ATOM      4  C   UNL     1       3.074   3.831  20.180  0.00  0.00    +0.000 A 
ATOM      5  C   UNL     1       2.104   4.372  21.072  0.00  0.00    +0.000 A 
ATOM      6  C   UNL     1       1.641   5.623  20.881  0.00  0.00    +0.000 A 
ATOM      7  C   UNL     1       2.097   6.443  19.762  0.00  0.00    +0.000 A 
ATOM      8  C   UNL     1       2.993   5.913  18.906  0.00  0.00    +0.000 A 
ATOM      9  N   UNL     1       3.501   4.634  19.131  0.00  0.00    +0.000 N 
ENDROOT
BRANCH   1  13
ATOM     10  C   UNL     1       6.871   5.041  15.096  0.00  0.00    +0.000 A 
ATOM     11  C   UNL     1       7.288   5.307  16.402  0.00  0.00    +0.000 A 
ATOM     12  C   UNL     1       6.491   4.946  17.497  0.00  0.00    +0.000 A 
ATOM     13  C   UNL     1       5.258   4.308  17.308  0.00  0.00    +0.000 A 
ATOM     14  C   UNL     1       4.816   4.111  15.996  0.00  0.00    +0.000 A 
ATOM     15  C   UNL     1       5.623   4.449  14.910  0.00  0.00    +0.000 A 
ATOM     16  F   UNL     1       5.146   4.171  13.687  0.00  0.00    +0.000 F 
BRANCH  10  18
ATOM     17  C   UNL     1       7.572   4.849  12.832  0.00  0.00    +0.000 C 
ATOM     18  O   UNL     1       7.761   5.411  14.126  0.00  0.00    +0.000 OA
ENDBRANCH  10  18
ENDBRANCH   1  13
BRANCH   7  19
ATOM     19  C   UNL     1       1.714   7.843  19.534  0.00  0.00    +0.000 A 
ATOM     20  C   UNL     1       1.948   8.463  18.303  0.00  0.00    +0.000 A 
ATOM     21  C   UNL     1       1.688   9.824  18.150  0.00  0.00    +0.000 A 
ATOM     22  C   UNL     1       1.227  10.573  19.234  0.00  0.00    +0.000 A 
ATOM     23  C   UNL     1       1.021   9.969  20.475  0.00  0.00    +0.000 A 
ATOM     24  C   UNL     1       1.214   8.595  20.609  0.00  0.00    +0.000 A 
BRANCH  23  25
ATOM     25  O   UNL     1       0.670  10.822  21.484  0.00  0.00    +0.000 OA
BRANCH  25  26
ATOM     26  C   UNL     1      -0.498  10.512  22.260  0.00  0.00    +0.000 C 
ATOM     27  C   UNL     1      -0.180   9.582  23.435  0.00  0.00    +0.000 C 
ATOM     28  C   UNL     1      -1.019  11.841  22.808  0.00  0.00    +0.000 C 
ENDBRANCH  25  26
ENDBRANCH  23  25
ENDBRANCH   7  19
TORSDOF 5
ENDMDL
MODEL 3
REMARK VINA RESULT:      -8.2      1.481      2.283
REMARK  Name = 
REMARK  8 active torsions:
REMARK  status: ('A' for Active; 'I' for Inactive)
REMARK    1  A    between atoms: C_1  and  O_2
REMARK    2  A    between atoms: O_2  and  C_3
REMARK    3  A    between atoms: C_6  and  C_7
REMARK    4  A    between atoms: C_13  and  C_14
REMARK    5  A    between atoms: C_18  and  O_19
REMARK    6  A    between atoms: O_19  and  C_20
REMARK    7  A    between atoms: C_20  and  C_21
REMARK    8  A    between atoms: C_20  and  C_22
REMARK                            x       y       z     vdW  Elec       q    Type
REMARK                         _______ _______ _______ _____ _____    ______ ____
ROOT
ATOM      1  C   UNL     1       3.853   3.253  18.031  0.00  0.00    +0.000 A 
ATOM      2  N   UNL     1       3.608   1.954  18.103  0.00  0.00    +0.000 NA
ATOM      3  N   UNL     1       2.562   1.742  18.973  0.00  0.00    +0.000 NA
ATOM      4  C   UNL     1       2.159   2.915  19.405  0.00  0.00    +0.000 A 
ATOM      5  C   UNL     1       1.139   3.309  20.315  0.00  0.00    +0.000 A 
ATOM      6  C   UNL     1       0.940   4.618  20.575  0.00  0.00    +0.000 A 
ATOM      7  C   UNL     1       1.738   5.654  19.928  0.00  0.00    +0.000 A 
ATOM      8  C   UNL     1       2.683   5.272  19.044  0.00  0.00    +0.000 A 
ATOM      9  N   UNL     1       2.913   3.917  18.810  0.00  0.00    +0.000 N 
ENDROOT
BRANCH   1  13
ATOM     10  C   UNL     1       6.872   5.134  15.615  0.00  0.00    +0.000 A 
ATOM     11  C   UNL     1       5.818   4.427  15.032  0.00  0.00    +0.000 A 
ATOM     12  C   UNL     1       4.849   3.799  15.826  0.00  0.00    +0.000 A 
ATOM     13  C   UNL     1       4.912   3.868  17.224  0.00  0.00    +0.000 A 
ATOM     14  C   UNL     1       6.010   4.517  17.800  0.00  0.00    +0.000 A 
ATOM     15  C   UNL     1       6.957   5.161  17.005  0.00  0.00    +0.000 A 
ATOM     16  F   UNL     1       7.946   5.810  17.641  0.00  0.00    +0.000 F 
BRANCH  10  18
ATOM     17  C   UNL     1       7.785   5.161  13.420  0.00  0.00    +0.000 C 
ATOM     18  O   UNL     1       7.722   5.728  14.724  0.00  0.00    +0.000 OA
ENDBRANCH  10  18
ENDBRANCH   1  13
BRANCH   7  19
ATOM     19  C   UNL     1       1.651   7.090  20.220  0.00  0.00    +0.000 A 
ATOM     20  C   UNL     1       1.341   7.548  21.504  0.00  0.00    +0.000 A 
ATOM     21  C   UNL     1       1.145   8.910  21.728  0.00  0.00    +0.000 A 
ATOM     22  C   UNL     1       1.225   9.811  20.664  0.00  0.00    +0.000 A 
ATOM     23  C   UNL     1       1.503   9.359  19.373  0.00  0.00    +0.000 A 
ATOM     24  C   UNL     1       1.768   8.007  19.163  0.00  0.00    +0.000 A 
BRANCH  23  25
ATOM     25  O   UNL     1       1.452  10.318  18.400  0.00  0.00    +0.000 OA
BRANCH  25  26
ATOM     26  C   UNL     1       1.471  11.696  18.803  0.00  0.00    +0.000 C 
ATOM     27  C   UNL     1       2.522  12.506  18.037  0.00  0.00    +0.000 C 
ATOM     28  C   UNL     1       0.086  12.259  18.485  0.00  0.00    +0.000 C 
ENDBRANCH  25  26
ENDBRANCH  23  25
ENDBRANCH   7  19
TORSDOF 5
ENDMDL
MODEL 4
REMARK VINA RESULT:      -7.9      2.510      8.221
REMARK  Name = 
REMARK  8 active torsions:
REMARK  status: ('A' for Active; 'I' for Inactive)
REMARK    1  A    between atoms: C_1  and  O_2
REMARK    2  A    between atoms: O_2  and  C_3
REMARK    3  A    between atoms: C_6  and  C_7
REMARK    4  A    between atoms: C_13  and  C_14
REMARK    5  A    between atoms: C_18  and  O_19
REMARK    6  A    between atoms: O_19  and  C_20
REMARK    7  A    between atoms: C_20  and  C_21
REMARK    8  A    between atoms: C_20  and  C_22
REMARK                            x       y       z     vdW  Elec       q    Type
REMARK                         _______ _______ _______ _____ _____    ______ ____
ROOT
ATOM      1  C   UNL     1       1.877   4.915  19.485  0.00  0.00    +0.000 A 
ATOM      2  N   UNL     1       1.119   4.087  20.186  0.00  0.00    +0.000 NA
ATOM      3  N   UNL     1       1.461   2.791  19.873  0.00  0.00    +0.000 NA
ATOM      4  C   UNL     1       2.444   2.837  19.003  0.00  0.00    +0.000 A 
ATOM      5  C   UNL     1       3.182   1.826  18.326  0.00  0.00    +0.000 A 
ATOM      6  C   UNL     1       4.163   2.171  17.469  0.00  0.00    +0.000 A 
ATOM      7  C   UNL     1       4.508   3.569  17.226  0.00  0.00    +0.000 A 
ATOM      8  C   UNL     1       3.823   4.519  17.894  0.00  0.00    +0.000 A 
ATOM      9  N   UNL     1       2.781   4.159  18.748  0.00  0.00    +0.000 N 
ENDROOT
BRANCH   1  13
ATOM     10  C   UNL     1       1.532   9.201  19.522  0.00  0.00    +0.000 A 
ATOM     11  C   UNL     1       1.953   8.521  18.377  0.00  0.00    +0.000 A 
ATOM     12  C   UNL     1       2.082   7.125  18.378  0.00  0.00    +0.000 A 
ATOM     13  C   UNL     1       1.791   6.379  19.528  0.00  0.00    +0.000 A 
ATOM     14  C   UNL     1       1.440   7.074  20.690  0.00  0.00    +0.000 A 
ATOM     15  C   UNL     1       1.288   8.460  20.676  0.00  0.00    +0.000 A 
ATOM     16  F   UNL     1       0.891   9.040  21.820  0.00  0.00    +0.000 F 
BRANCH  10  18
ATOM     17  C   UNL     1       0.156  11.041  18.911  0.00  0.00    +0.000 C 
ATOM     18  O   UNL     1       1.412  10.555  19.370  0.00  0.00    +0.000 OA
ENDBRANCH  10  18
ENDBRANCH   1  13
BRANCH   7  19
ATOM     19  C   UNL     1       5.496   4.035  16.245  0.00  0.00    +0.000 A 
ATOM     20  C   UNL     1       6.354   5.099  16.534  0.00  0.00    +0.000 A 
ATOM     21  C   UNL     1       7.198   5.600  15.545  0.00  0.00    +0.000 A 
ATOM     22  C   UNL     1       7.161   5.062  14.257  0.00  0.00    +0.000 A 
ATOM     23  C   UNL     1       6.285   4.019  13.951  0.00  0.00    +0.000 A 
ATOM     24  C   UNL     1       5.492   3.473  14.958  0.00  0.00    +0.000 A 
BRANCH  23  25
ATOM     25  O   UNL     1       6.265   3.646  12.635  0.00  0.00    +0.000 OA
BRANCH  25  26
ATOM     26  C   UNL     1       5.267   2.706  12.211  0.00  0.00    +0.000 C 
ATOM     27  C   UNL     1       4.176   3.367  11.362  0.00  0.00    +0.000 C 
ATOM     28  C   UNL     1       5.989   1.661  11.362  0.00  0.00    +0.000 C 
ENDBRANCH  25  26
ENDBRANCH  23  25
ENDBRANCH   7  19
TORSDOF 5
ENDMDL
MODEL 5
REMARK VINA RESULT:      -7.9      4.737      6.568
REMARK  Name = 
REMARK  8 active torsions:
REMARK  status: ('A' for Active; 'I' for Inactive)
REMARK    1  A    between atoms: C_1  and  O_2
REMARK    2  A    between atoms: O_2  and  C_3
REMARK    3  A    between atoms: C_6  and  C_7
REMARK    4  A    between atoms: C_13  and  C_14
REMARK    5  A    between atoms: C_18  and  O_19
REMARK    6  A    between atoms: O_19  and  C_20
REMARK    7  A    between atoms: C_20  and  C_21
REMARK    8  A    between atoms: C_20  and  C_22
REMARK                            x       y       z     vdW  Elec       q    Type
REMARK                         _______ _______ _______ _____ _____    ______ ____
ROOT
ATOM      1  C   UNL     1       1.229   8.773  20.960  0.00  0.00    +0.000 A 
ATOM      2  N   UNL     1       1.713   9.192  22.119  0.00  0.00    +0.000 NA
ATOM      3  N   UNL     1       1.057  10.345  22.489  0.00  0.00    +0.000 NA
ATOM      4  C   UNL     1       0.158  10.605  21.568  0.00  0.00    +0.000 A 
ATOM      5  C   UNL     1      -0.790  11.655  21.413  0.00  0.00    +0.000 A 
ATOM      6  C   UNL     1      -1.609  11.668  20.342  0.00  0.00    +0.000 A 
ATOM      7  C   UNL     1      -1.564  10.614  19.334  0.00  0.00    +0.000 A 
ATOM      8  C   UNL     1      -0.683   9.607  19.504  0.00  0.00    +0.000 A 
ATOM      9  N   UNL     1       0.191   9.619  20.591  0.00  0.00    +0.000 N 
ENDROOT
BRANCH   1  13
ATOM     10  C   UNL     1       2.713   5.346  18.828  0.00  0.00    +0.000 A 
ATOM     11  C   UNL     1       2.790   6.628  18.278  0.00  0.00    +0.000 A 
ATOM     12  C   UNL     1       2.287   7.738  18.970  0.00  0.00    +0.000 A 
ATOM     13  C   UNL     1       1.694   7.588  20.232  0.00  0.00    +0.000 A 
ATOM     14  C   UNL     1       1.557   6.293  20.742  0.00  0.00    +0.000 A 
ATOM     15  C   UNL     1       2.082   5.196  20.061  0.00  0.00    +0.000 A 
ATOM     16  F   UNL     1       1.958   3.997  20.651  0.00  0.00    +0.000 F 
BRANCH  10  18
ATOM     17  C   UNL     1       2.386   3.469  17.406  0.00  0.00    +0.000 C 
ATOM     18  O   UNL     1       3.277   4.363  18.065  0.00  0.00    +0.000 OA
ENDBRANCH  10  18
ENDBRANCH   1  13
BRANCH   7  19
ATOM     19  C   UNL     1      -2.352  10.598  18.095  0.00  0.00    +0.000 A 
ATOM     20  C   UNL     1      -1.879   9.958  16.947  0.00  0.00    +0.000 A 
ATOM     21  C   UNL     1      -2.589  10.060  15.751  0.00  0.00    +0.000 A 
ATOM     22  C   UNL     1      -3.752  10.830  15.694  0.00  0.00    +0.000 A 
ATOM     23  C   UNL     1      -4.215  11.500  16.828  0.00  0.00    +0.000 A 
ATOM     24  C   UNL     1      -3.543  11.339  18.039  0.00  0.00    +0.000 A 
BRANCH  23  25
ATOM     25  O   UNL     1      -5.302  12.304  16.624  0.00  0.00    +0.000 OA
BRANCH  25  26
ATOM     26  C   UNL     1      -6.063  12.719  17.768  0.00  0.00    +0.000 C 
ATOM     27  C   UNL     1      -6.915  13.958  17.474  0.00  0.00    +0.000 C 
ATOM     28  C   UNL     1      -6.989  11.555  18.119  0.00  0.00    +0.000 C 
ENDBRANCH  25  26
ENDBRANCH  23  25
ENDBRANCH   7  19
TORSDOF 5
ENDMDL
MODEL 6
REMARK VINA RESULT:      -7.8      5.221      9.002
REMARK  Name = 
REMARK  8 active torsions:
REMARK  status: ('A' for Active; 'I' for Inactive)
REMARK    1  A    between atoms: C_1  and  O_2
REMARK    2  A    between atoms: O_2  and  C_3
REMARK    3  A    between atoms: C_6  and  C_7
REMARK    4  A    between atoms: C_13  and  C_14
REMARK    5  A    between atoms: C_18  and  O_19
REMARK    6  A    between atoms: O_19  and  C_20
REMARK    7  A    between atoms: C_20  and  C_21
REMARK    8  A    between atoms: C_20  and  C_22
REMARK                            x       y       z     vdW  Elec       q    Type
REMARK                         _______ _______ _______ _____ _____    ______ ____
ROOT
ATOM      1  C   UNL     1      -0.201  13.178  21.723  0.00  0.00    +0.000 A 
ATOM      2  N   UNL     1      -0.975  13.538  22.735  0.00  0.00    +0.000 NA
ATOM      3  N   UNL     1      -1.371  12.411  23.420  0.00  0.00    +0.000 NA
ATOM      4  C   UNL     1      -0.814  11.374  22.838  0.00  0.00    +0.000 A 
ATOM      5  C   UNL     1      -0.871   9.976  23.097  0.00  0.00    +0.000 A 
ATOM      6  C   UNL     1      -0.177   9.120  22.319  0.00  0.00    +0.000 A 
ATOM      7  C   UNL     1       0.656   9.594  21.218  0.00  0.00    +0.000 A 
ATOM      8  C   UNL     1       0.727  10.922  20.999  0.00  0.00    +0.000 A 
ATOM      9  N   UNL     1      -0.025  11.801  21.779  0.00  0.00    +0.000 N 
ENDROOT
BRANCH   1  13
ATOM     10  C   UNL     1       1.614  15.778  18.819  0.00  0.00    +0.000 A 
ATOM     11  C   UNL     1       2.381  15.145  19.800  0.00  0.00    +0.000 A 
ATOM     12  C   UNL     1       1.780  14.314  20.756  0.00  0.00    +0.000 A 
ATOM     13  C   UNL     1       0.395  14.098  20.749  0.00  0.00    +0.000 A 
ATOM     14  C   UNL     1      -0.373  14.792  19.808  0.00  0.00    +0.000 A 
ATOM     15  C   UNL     1       0.233  15.596  18.844  0.00  0.00    +0.000 A 
ATOM     16  F   UNL     1      -0.574  16.179  17.942  0.00  0.00    +0.000 F 
BRANCH  10  18
ATOM     17  C   UNL     1       3.656  16.089  17.641  0.00  0.00    +0.000 C 
ATOM     18  O   UNL     1       2.332  16.526  17.928  0.00  0.00    +0.000 OA
ENDBRANCH  10  18
ENDBRANCH   1  13
BRANCH   7  19
ATOM     19  C   UNL     1       1.369   8.729  20.269  0.00  0.00    +0.000 A 
ATOM     20  C   UNL     1       1.547   9.113  18.937  0.00  0.00    +0.000 A 
ATOM     21  C   UNL     1       2.120   8.225  18.028  0.00  0.00    +0.000 A 
ATOM     22  C   UNL     1       2.482   6.941  18.441  0.00  0.00    +0.000 A 
ATOM     23  C   UNL     1       2.278   6.538  19.762  0.00  0.00    +0.000 A 
ATOM     24  C   UNL     1       1.771   7.451  20.685  0.00  0.00    +0.000 A 
BRANCH  23  25
ATOM     25  O   UNL     1       2.575   5.229  20.021  0.00  0.00    +0.000 OA
BRANCH  25  26
ATOM     26  C   UNL     1       1.550   4.400  20.591  0.00  0.00    +0.000 C 
ATOM     27  C   UNL     1       0.877   3.511  19.541  0.00  0.00    +0.000 C 
ATOM     28  C   UNL     1       2.239   3.510  21.625  0.00  0.00    +0.000 C 
ENDBRANCH  25  26
ENDBRANCH  23  25
ENDBRANCH   7  19
TORSDOF 5
ENDMDL
MODEL 7
REMARK VINA RESULT:      -7.8      2.448      8.048
REMARK  Name = 
REMARK  8 active torsions:
REMARK  status: ('A' for Active; 'I' for Inactive)
REMARK    1  A    between atoms: C_1  and  O_2
REMARK    2  A    between atoms: O_2  and  C_3
REMARK    3  A    between atoms: C_6  and  C_7
REMARK    4  A    between atoms: C_13  and  C_14
REMARK    5  A    between atoms: C_18  and  O_19
REMARK    6  A    between atoms: O_19  and  C_20
REMARK    7  A    between atoms: C_20  and  C_21
REMARK    8  A    between atoms: C_20  and  C_22
REMARK                            x       y       z     vdW  Elec       q    Type
REMARK                         _______ _______ _______ _____ _____    ______ ____
ROOT
ATOM      1  C   UNL     1       2.068   6.016  20.139  0.00  0.00    +0.000 A 
ATOM      2  N   UNL     1       1.424   5.416  21.128  0.00  0.00    +0.000 NA
ATOM      3  N   UNL     1       1.848   4.108  21.211  0.00  0.00    +0.000 NA
ATOM      4  C   UNL     1       2.768   3.928  20.291  0.00  0.00    +0.000 A 
ATOM      5  C   UNL     1       3.539   2.796  19.906  0.00  0.00    +0.000 A 
ATOM      6  C   UNL     1       4.434   2.903  18.902  0.00  0.00    +0.000 A 
ATOM      7  C   UNL     1       4.648   4.166  18.203  0.00  0.00    +0.000 A 
ATOM      8  C   UNL     1       3.934   5.240  18.594  0.00  0.00    +0.000 A 
ATOM      9  N   UNL     1       2.981   5.116  19.604  0.00  0.00    +0.000 N 
ENDROOT
BRANCH   1  13
ATOM     10  C   UNL     1       1.399  10.059  18.837  0.00  0.00    +0.000 A 
ATOM     11  C   UNL     1       1.997   9.119  17.995  0.00  0.00    +0.000 A 
ATOM     12  C   UNL     1       2.229   7.808  18.433  0.00  0.00    +0.000 A 
ATOM     13  C   UNL     1       1.867   7.409  19.726  0.00  0.00    +0.000 A 
ATOM     14  C   UNL     1       1.335   8.375  20.586  0.00  0.00    +0.000 A 
ATOM     15  C   UNL     1       1.082   9.671  20.137  0.00  0.00    +0.000 A 
ATOM     16  F   UNL     1       0.516  10.519  21.011  0.00  0.00    +0.000 F 
BRANCH  10  18
ATOM     17  C   UNL     1       2.256  12.229  18.380  0.00  0.00    +0.000 C 
ATOM     18  O   UNL     1       1.195  11.286  18.270  0.00  0.00    +0.000 OA
ENDBRANCH  10  18
ENDBRANCH   1  13
BRANCH   7  19
ATOM     19  C   UNL     1       5.532   4.347  17.044  0.00  0.00    +0.000 A 
ATOM     20  C   UNL     1       6.751   5.019  17.164  0.00  0.00    +0.000 A 
ATOM     21  C   UNL     1       7.514   5.284  16.027  0.00  0.00    +0.000 A 
ATOM     22  C   UNL     1       7.043   4.908  14.768  0.00  0.00    +0.000 A 
ATOM     23  C   UNL     1       5.812   4.264  14.635  0.00  0.00    +0.000 A 
ATOM     24  C   UNL     1       5.083   3.938  15.778  0.00  0.00    +0.000 A 
BRANCH  23  25
ATOM     25  O   UNL     1       5.410   4.040  13.348  0.00  0.00    +0.000 OA
BRANCH  25  26
ATOM     26  C   UNL     1       6.244   3.226  12.508  0.00  0.00    +0.000 C 
ATOM     27  C   UNL     1       5.423   2.315  11.590  0.00  0.00    +0.000 C 
ATOM     28  C   UNL     1       7.061   4.189  11.647  0.00  0.00    +0.000 C 
ENDBRANCH  25  26
ENDBRANCH  23  25
ENDBRANCH   7  19
TORSDOF 5
ENDMDL
MODEL 8
REMARK VINA RESULT:      -7.7      1.700      2.579
REMARK  Name = 
REMARK  8 active torsions:
REMARK  status: ('A' for Active; 'I' for Inactive)
REMARK    1  A    between atoms: C_1  and  O_2
REMARK    2  A    between atoms: O_2  and  C_3
REMARK    3  A    between atoms: C_6  and  C_7
REMARK    4  A    between atoms: C_13  and  C_14
REMARK    5  A    between atoms: C_18  and  O_19
REMARK    6  A    between atoms: O_19  and  C_20
REMARK    7  A    between atoms: C_20  and  C_21
REMARK    8  A    between atoms: C_20  and  C_22
REMARK                            x       y       z     vdW  Elec       q    Type
REMARK                         _______ _______ _______ _____ _____    ______ ____
ROOT
ATOM      1  C   UNL     1       3.936   3.307  17.982  0.00  0.00    +0.000 A 
ATOM      2  N   UNL     1       3.767   2.000  18.104  0.00  0.00    +0.000 NA
ATOM      3  N   UNL     1       2.805   1.759  19.060  0.00  0.00    +0.000 NA
ATOM      4  C   UNL     1       2.375   2.921  19.494  0.00  0.00    +0.000 A 
ATOM      5  C   UNL     1       1.410   3.289  20.473  0.00  0.00    +0.000 A 
ATOM      6  C   UNL     1       1.164   4.592  20.717  0.00  0.00    +0.000 A 
ATOM      7  C   UNL     1       1.853   5.649  19.984  0.00  0.00    +0.000 A 
ATOM      8  C   UNL     1       2.744   5.291  19.038  0.00  0.00    +0.000 A 
ATOM      9  N   UNL     1       3.027   3.944  18.817  0.00  0.00    +0.000 N 
ENDROOT
BRANCH   1  13
ATOM     10  C   UNL     1       6.835   5.111  15.368  0.00  0.00    +0.000 A 
ATOM     11  C   UNL     1       7.033   5.075  16.751  0.00  0.00    +0.000 A 
ATOM     12  C   UNL     1       6.075   4.503  17.598  0.00  0.00    +0.000 A 
ATOM     13  C   UNL     1       4.895   3.952  17.079  0.00  0.00    +0.000 A 
ATOM     14  C   UNL     1       4.673   4.057  15.702  0.00  0.00    +0.000 A 
ATOM     15  C   UNL     1       5.641   4.603  14.861  0.00  0.00    +0.000 A 
ATOM     16  F   UNL     1       5.371   4.611  13.546  0.00  0.00    +0.000 F 
BRANCH  10  18
ATOM     17  C   UNL     1       8.003   5.252  13.302  0.00  0.00    +0.000 C 
ATOM     18  O   UNL     1       7.866   5.661  14.658  0.00  0.00    +0.000 OA
ENDBRANCH  10  18
ENDBRANCH   1  13
BRANCH   7  19
ATOM     19  C   UNL     1       1.713   7.087  20.249  0.00  0.00    +0.000 A 
ATOM     20  C   UNL     1       1.354   7.556  21.516  0.00  0.00    +0.000 A 
ATOM     21  C   UNL     1       1.110   8.914  21.710  0.00  0.00    +0.000 A 
ATOM     22  C   UNL     1       1.190   9.799  20.634  0.00  0.00    +0.000 A 
ATOM     23  C   UNL     1       1.518   9.335  19.359  0.00  0.00    +0.000 A 
ATOM     24  C   UNL     1       1.830   7.988  19.180  0.00  0.00    +0.000 A 
BRANCH  23  25
ATOM     25  O   UNL     1       1.464  10.276  18.368  0.00  0.00    +0.000 OA
BRANCH  25  26
ATOM     26  C   UNL     1       1.485  11.661  18.744  0.00  0.00    +0.000 C 
ATOM     27  C   UNL     1       2.558  12.448  17.985  0.00  0.00    +0.000 C 
ATOM     28  C   UNL     1       0.111  12.227  18.388  0.00  0.00    +0.000 C 
ENDBRANCH  25  26
ENDBRANCH  23  25
ENDBRANCH   7  19
TORSDOF 5
ENDMDL
MODEL 9
REMARK VINA RESULT:      -7.7      2.004      8.046
REMARK  Name = 
REMARK  8 active torsions:
REMARK  status: ('A' for Active; 'I' for Inactive)
REMARK    1  A    between atoms: C_1  and  O_2
REMARK    2  A    between atoms: O_2  and  C_3
REMARK    3  A    between atoms: C_6  and  C_7
REMARK    4  A    between atoms: C_13  and  C_14
REMARK    5  A    between atoms: C_18  and  O_19
REMARK    6  A    between atoms: O_19  and  C_20
REMARK    7  A    between atoms: C_20  and  C_21
REMARK    8  A    between atoms: C_20  and  C_22
REMARK                            x       y       z     vdW  Elec       q    Type
REMARK                         _______ _______ _______ _____ _____    ______ ____
ROOT
ATOM      1  C   UNL     1       1.867   5.246  20.026  0.00  0.00    +0.000 A 
ATOM      2  N   UNL     1       1.179   4.506  20.882  0.00  0.00    +0.000 NA
ATOM      3  N   UNL     1       1.589   3.196  20.774  0.00  0.00    +0.000 NA
ATOM      4  C   UNL     1       2.544   3.150  19.874  0.00  0.00    +0.000 A 
ATOM      5  C   UNL     1       3.321   2.081  19.346  0.00  0.00    +0.000 A 
ATOM      6  C   UNL     1       4.257   2.332  18.408  0.00  0.00    +0.000 A 
ATOM      7  C   UNL     1       4.511   3.685  17.926  0.00  0.00    +0.000 A 
ATOM      8  C   UNL     1       3.790   4.695  18.452  0.00  0.00    +0.000 A 
ATOM      9  N   UNL     1       2.794   4.428  19.392  0.00  0.00    +0.000 N 
ENDROOT
BRANCH   1  13
ATOM     10  C   UNL     1       1.451   9.498  19.542  0.00  0.00    +0.000 A 
ATOM     11  C   UNL     1       1.112   8.871  20.744  0.00  0.00    +0.000 A 
ATOM     12  C   UNL     1       1.232   7.482  20.888  0.00  0.00    +0.000 A 
ATOM     13  C   UNL     1       1.695   6.689  19.830  0.00  0.00    +0.000 A 
ATOM     14  C   UNL     1       1.963   7.315  18.608  0.00  0.00    +0.000 A 
ATOM     15  C   UNL     1       1.867   8.700  18.478  0.00  0.00    +0.000 A 
ATOM     16  F   UNL     1       2.200   9.225  17.288  0.00  0.00    +0.000 F 
BRANCH  10  18
ATOM     17  C   UNL     1       0.831  11.449  20.750  0.00  0.00    +0.000 C 
ATOM     18  O   UNL     1       1.324  10.859  19.552  0.00  0.00    +0.000 OA
ENDBRANCH  10  18
ENDBRANCH   1  13
BRANCH   7  19
ATOM     19  C   UNL     1       5.443   4.034  16.845  0.00  0.00    +0.000 A 
ATOM     20  C   UNL     1       6.684   4.613  17.122  0.00  0.00    +0.000 A 
ATOM     21  C   UNL     1       7.498   5.045  16.076  0.00  0.00    +0.000 A 
ATOM     22  C   UNL     1       7.058   4.931  14.756  0.00  0.00    +0.000 A 
ATOM     23  C   UNL     1       5.806   4.383  14.472  0.00  0.00    +0.000 A 
ATOM     24  C   UNL     1       5.024   3.887  15.513  0.00  0.00    +0.000 A 
BRANCH  23  25
ATOM     25  O   UNL     1       5.443   4.419  13.154  0.00  0.00    +0.000 OA
BRANCH  25  26
ATOM     26  C   UNL     1       5.407   3.182  12.425  0.00  0.00    +0.000 C 
ATOM     27  C   UNL     1       4.282   3.157  11.386  0.00  0.00    +0.000 C 
ATOM     28  C   UNL     1       6.750   3.066  11.704  0.00  0.00    +0.000 C 
ENDBRANCH  25  26
ENDBRANCH  23  25
ENDBRANCH   7  19
TORSDOF 5
ENDMDL
