MODEL 1
REMARK VINA RESULT:      -7.9      0.000      0.000
REMARK  Name = 
REMARK  3 active torsions:
REMARK  status: ('A' for Active; 'I' for Inactive)
REMARK    1  A    between atoms: C_1  and  C_2
REMARK    2  A    between atoms: C_2  and  C_3
REMARK    3  A    between atoms: C_2  and  N_11
REMARK                            x       y       z     vdW  Elec       q    Type
REMARK                         _______ _______ _______ _____ _____    ______ ____
ROOT
ATOM      1  N   UNL     1       5.980   4.809  16.769  0.00  0.00    +0.000 N 
ATOM      2  C   UNL     1       5.445   3.851  15.942  0.00  0.00    +0.000 C 
ATOM      3  O   UNL     1       4.658   2.961  16.198  0.00  0.00    +0.000 OA
ATOM      4  C   UNL     1       6.042   4.039  14.623  0.00  0.00    +0.000 A 
ATOM      5  C   UNL     1       5.857   3.354  13.441  0.00  0.00    +0.000 A 
ATOM      6  C   UNL     1       6.607   3.770  12.335  0.00  0.00    +0.000 A 
ATOM      7  C   UNL     1       7.520   4.840  12.440  0.00  0.00    +0.000 A 
ATOM      8  C   UNL     1       7.704   5.505  13.656  0.00  0.00    +0.000 A 
ATOM      9  C   UNL     1       6.945   5.079  14.727  0.00  0.00    +0.000 A 
ATOM     10  C   UNL     1       6.934   5.542  16.111  0.00  0.00    +0.000 C 
ATOM     11  O   UNL     1       7.695   6.394  16.524  0.00  0.00    +0.000 OA
ENDROOT
BRANCH   1  13
ATOM     12  C   UNL     1       6.753   5.497  19.085  0.00  0.00    +0.000 C 
ATOM     13  C   UNL     1       5.698   4.829  18.204  0.00  0.00    +0.000 C 
BRANCH  13  14
ATOM     14  C   UNL     1       4.260   5.295  18.554  0.00  0.00    +0.000 C 
ATOM     15  O   UNL     1       3.949   6.458  18.260  0.00  0.00    +0.000 OA
ATOM     16  N   UNL     1       3.317   4.449  19.126  0.00  0.00    +0.000 N 
ATOM     17  C   UNL     1       1.937   4.934  19.254  0.00  0.00    +0.000 C 
ATOM     18  C   UNL     1       1.414   4.737  20.672  0.00  0.00    +0.000 C 
ATOM     19  C   UNL     1       1.543   3.278  21.102  0.00  0.00    +0.000 C 
ATOM     20  C   UNL     1       2.977   2.785  20.918  0.00  0.00    +0.000 C 
ATOM     21  C   UNL     1       3.495   3.049  19.503  0.00  0.00    +0.000 C 
ENDBRANCH  13  14
ENDBRANCH   1  13
TORSDOF 2
ENDMDL
MODEL 2
REMARK VINA RESULT:      -7.9      1.203      2.537
REMARK  Name = 
REMARK  3 active torsions:
REMARK  status: ('A' for Active; 'I' for Inactive)
REMARK    1  A    between atoms: C_1  and  C_2
REMARK    2  A    between atoms: C_2  and  C_3
REMARK    3  A    between atoms: C_2  and  N_11
REMARK                            x       y       z     vdW  Elec       q    Type
REMARK                         _______ _______ _______ _____ _____    ______ ____
ROOT
ATOM      1  N   UNL     1       5.739   5.114  16.560  0.00  0.00    +0.000 N 
ATOM      2  C   UNL     1       6.819   5.658  15.908  0.00  0.00    +0.000 C 
ATOM      3  O   UNL     1       7.598   6.512  16.282  0.00  0.00    +0.000 OA
ATOM      4  C   UNL     1       6.870   5.052  14.581  0.00  0.00    +0.000 A 
ATOM      5  C   UNL     1       7.747   5.241  13.533  0.00  0.00    +0.000 A 
ATOM      6  C   UNL     1       7.510   4.514  12.361  0.00  0.00    +0.000 A 
ATOM      7  C   UNL     1       6.412   3.635  12.263  0.00  0.00    +0.000 A 
ATOM      8  C   UNL     1       5.526   3.475  13.332  0.00  0.00    +0.000 A 
ATOM      9  C   UNL     1       5.788   4.200  14.479  0.00  0.00    +0.000 A 
ATOM     10  C   UNL     1       5.043   4.273  15.730  0.00  0.00    +0.000 C 
ATOM     11  O   UNL     1       3.987   3.696  15.901  0.00  0.00    +0.000 OA
ENDROOT
BRANCH   1  13
ATOM     12  C   UNL     1       4.341   6.774  17.873  0.00  0.00    +0.000 C 
ATOM     13  C   UNL     1       5.314   5.596  17.875  0.00  0.00    +0.000 C 
BRANCH  13  14
ATOM     14  C   UNL     1       4.870   4.468  18.842  0.00  0.00    +0.000 C 
ATOM     15  O   UNL     1       5.760   3.815  19.406  0.00  0.00    +0.000 OA
ATOM     16  N   UNL     1       3.534   4.209  19.128  0.00  0.00    +0.000 N 
ATOM     17  C   UNL     1       3.226   3.241  20.188  0.00  0.00    +0.000 C 
ATOM     18  C   UNL     1       2.224   2.199  19.706  0.00  0.00    +0.000 C 
ATOM     19  C   UNL     1       0.962   2.866  19.166  0.00  0.00    +0.000 C 
ATOM     20  C   UNL     1       1.312   3.899  18.097  0.00  0.00    +0.000 C 
ATOM     21  C   UNL     1       2.363   4.896  18.589  0.00  0.00    +0.000 C 
ENDBRANCH  13  14
ENDBRANCH   1  13
TORSDOF 2
ENDMDL
MODEL 3
REMARK VINA RESULT:      -7.7      0.185      1.916
REMARK  Name = 
REMARK  3 active torsions:
REMARK  status: ('A' for Active; 'I' for Inactive)
REMARK    1  A    between atoms: C_1  and  C_2
REMARK    2  A    between atoms: C_2  and  C_3
REMARK    3  A    between atoms: C_2  and  N_11
REMARK                            x       y       z     vdW  Elec       q    Type
REMARK                         _______ _______ _______ _____ _____    ______ ____
ROOT
ATOM      1  N   UNL     1       6.210   4.574  16.830  0.00  0.00    +0.000 N 
ATOM      2  C   UNL     1       7.060   5.403  16.138  0.00  0.00    +0.000 C 
ATOM      3  O   UNL     1       7.712   6.347  16.535  0.00  0.00    +0.000 OA
ATOM      4  C   UNL     1       7.026   4.982  14.740  0.00  0.00    +0.000 A 
ATOM      5  C   UNL     1       7.687   5.471  13.632  0.00  0.00    +0.000 A 
ATOM      6  C   UNL     1       7.419   4.855  12.404  0.00  0.00    +0.000 A 
ATOM      7  C   UNL     1       6.503   3.787  12.313  0.00  0.00    +0.000 A 
ATOM      8  C   UNL     1       5.832   3.323  13.448  0.00  0.00    +0.000 A 
ATOM      9  C   UNL     1       6.120   3.944  14.647  0.00  0.00    +0.000 A 
ATOM     10  C   UNL     1       5.569   3.713  15.978  0.00  0.00    +0.000 C 
ATOM     11  O   UNL     1       4.677   2.915  16.190  0.00  0.00    +0.000 OA
ENDROOT
BRANCH   1  13
ATOM     12  C   UNL     1       6.945   5.582  19.039  0.00  0.00    +0.000 C 
ATOM     13  C   UNL     1       5.902   4.798  18.243  0.00  0.00    +0.000 C 
BRANCH  13  14
ATOM     14  C   UNL     1       4.461   5.313  18.497  0.00  0.00    +0.000 C 
ATOM     15  O   UNL     1       4.196   6.470  18.140  0.00  0.00    +0.000 OA
ATOM     16  N   UNL     1       3.467   4.515  19.052  0.00  0.00    +0.000 N 
ATOM     17  C   UNL     1       2.097   5.037  19.087  0.00  0.00    +0.000 C 
ATOM     18  C   UNL     1       1.496   4.912  20.483  0.00  0.00    +0.000 C 
ATOM     19  C   UNL     1       1.564   3.471  20.978  0.00  0.00    +0.000 C 
ATOM     20  C   UNL     1       2.992   2.936  20.890  0.00  0.00    +0.000 C 
ATOM     21  C   UNL     1       3.589   3.128  19.494  0.00  0.00    +0.000 C 
ENDBRANCH  13  14
ENDBRANCH   1  13
TORSDOF 2
ENDMDL
MODEL 4
REMARK VINA RESULT:      -7.3      1.230      1.746
REMARK  Name = 
REMARK  3 active torsions:
REMARK  status: ('A' for Active; 'I' for Inactive)
REMARK    1  A    between atoms: C_1  and  C_2
REMARK    2  A    between atoms: C_2  and  C_3
REMARK    3  A    between atoms: C_2  and  N_11
REMARK                            x       y       z     vdW  Elec       q    Type
REMARK                         _______ _______ _______ _____ _____    ______ ____
ROOT
ATOM      1  N   UNL     1       5.527   5.421  16.499  0.00  0.00    +0.000 N 
ATOM      2  C   UNL     1       4.861   4.487  15.743  0.00  0.00    +0.000 C 
ATOM      3  O   UNL     1       3.858   3.854  16.004  0.00  0.00    +0.000 OA
ATOM      4  C   UNL     1       5.619   4.315  14.507  0.00  0.00    +0.000 A 
ATOM      5  C   UNL     1       5.394   3.505  13.414  0.00  0.00    +0.000 A 
ATOM      6  C   UNL     1       6.335   3.552  12.378  0.00  0.00    +0.000 A 
ATOM      7  C   UNL     1       7.467   4.389  12.464  0.00  0.00    +0.000 A 
ATOM      8  C   UNL     1       7.681   5.186  13.592  0.00  0.00    +0.000 A 
ATOM      9  C   UNL     1       6.734   5.125  14.595  0.00  0.00    +0.000 A 
ATOM     10  C   UNL     1       6.694   5.800  15.888  0.00  0.00    +0.000 C 
ATOM     11  O   UNL     1       7.595   6.513  16.285  0.00  0.00    +0.000 OA
ENDROOT
BRANCH   1  13
ATOM     12  C   UNL     1       4.030   6.813  18.002  0.00  0.00    +0.000 C 
ATOM     13  C   UNL     1       5.111   5.741  17.865  0.00  0.00    +0.000 C 
BRANCH  13  14
ATOM     14  C   UNL     1       4.816   4.494  18.739  0.00  0.00    +0.000 C 
ATOM     15  O   UNL     1       5.785   3.832  19.137  0.00  0.00    +0.000 OA
ATOM     16  N   UNL     1       3.528   4.135  19.122  0.00  0.00    +0.000 N 
ATOM     17  C   UNL     1       3.371   3.044  20.091  0.00  0.00    +0.000 C 
ATOM     18  C   UNL     1       2.370   2.007  19.596  0.00  0.00    +0.000 C 
ATOM     19  C   UNL     1       1.033   2.660  19.258  0.00  0.00    +0.000 C 
ATOM     20  C   UNL     1       1.228   3.819  18.282  0.00  0.00    +0.000 C 
ATOM     21  C   UNL     1       2.281   4.812  18.779  0.00  0.00    +0.000 C 
ENDBRANCH  13  14
ENDBRANCH   1  13
TORSDOF 2
ENDMDL
MODEL 5
REMARK VINA RESULT:      -7.2      0.985      1.166
REMARK  Name = 
REMARK  3 active torsions:
REMARK  status: ('A' for Active; 'I' for Inactive)
REMARK    1  A    between atoms: C_1  and  C_2
REMARK    2  A    between atoms: C_2  and  C_3
REMARK    3  A    between atoms: C_2  and  N_11
REMARK                            x       y       z     vdW  Elec       q    Type
REMARK                         _______ _______ _______ _____ _____    ______ ____
ROOT
ATOM      1  N   UNL     1       5.985   5.008  16.419  0.00  0.00    +0.000 N 
ATOM      2  C   UNL     1       5.341   4.039  15.689  0.00  0.00    +0.000 C 
ATOM      3  O   UNL     1       4.474   3.260  16.033  0.00  0.00    +0.000 OA
ATOM      4  C   UNL     1       5.927   4.047  14.352  0.00  0.00    +0.000 A 
ATOM      5  C   UNL     1       5.650   3.281  13.239  0.00  0.00    +0.000 A 
ATOM      6  C   UNL     1       6.417   3.519  12.092  0.00  0.00    +0.000 A 
ATOM      7  C   UNL     1       7.434   4.496  12.090  0.00  0.00    +0.000 A 
ATOM      8  C   UNL     1       7.708   5.245  13.238  0.00  0.00    +0.000 A 
ATOM      9  C   UNL     1       6.931   4.994  14.352  0.00  0.00    +0.000 A 
ATOM     10  C   UNL     1       6.994   5.578  15.687  0.00  0.00    +0.000 C 
ATOM     11  O   UNL     1       7.845   6.382  16.013  0.00  0.00    +0.000 OA
ENDROOT
BRANCH   1  13
ATOM     12  C   UNL     1       6.971   5.380  18.727  0.00  0.00    +0.000 C 
ATOM     13  C   UNL     1       5.735   5.184  17.850  0.00  0.00    +0.000 C 
BRANCH  13  14
ATOM     14  C   UNL     1       4.620   6.214  18.169  0.00  0.00    +0.000 C 
ATOM     15  O   UNL     1       4.791   7.380  17.785  0.00  0.00    +0.000 OA
ATOM     16  N   UNL     1       3.438   5.864  18.812  0.00  0.00    +0.000 N 
ATOM     17  C   UNL     1       2.375   6.871  18.908  0.00  0.00    +0.000 C 
ATOM     18  C   UNL     1       1.870   7.003  20.341  0.00  0.00    +0.000 C 
ATOM     19  C   UNL     1       1.419   5.651  20.885  0.00  0.00    +0.000 C 
ATOM     20  C   UNL     1       2.526   4.610  20.734  0.00  0.00    +0.000 C 
ATOM     21  C   UNL     1       3.053   4.541  19.299  0.00  0.00    +0.000 C 
ENDBRANCH  13  14
ENDBRANCH   1  13
TORSDOF 2
ENDMDL
MODEL 6
REMARK VINA RESULT:      -7.0      2.837      6.582
REMARK  Name = 
REMARK  3 active torsions:
REMARK  status: ('A' for Active; 'I' for Inactive)
REMARK    1  A    between atoms: C_1  and  C_2
REMARK    2  A    between atoms: C_2  and  C_3
REMARK    3  A    between atoms: C_2  and  N_11
REMARK                            x       y       z     vdW  Elec       q    Type
REMARK                         _______ _______ _______ _____ _____    ______ ____
ROOT
ATOM      1  N   UNL     1       3.053   6.339  19.128  0.00  0.00    +0.000 N 
ATOM      2  C   UNL     1       2.165   6.713  20.108  0.00  0.00    +0.000 C 
ATOM      3  O   UNL     1       1.788   6.098  21.086  0.00  0.00    +0.000 OA
ATOM      4  C   UNL     1       1.663   8.037  19.751  0.00  0.00    +0.000 A 
ATOM      5  C   UNL     1       0.759   8.863  20.385  0.00  0.00    +0.000 A 
ATOM      6  C   UNL     1       0.464  10.084  19.767  0.00  0.00    +0.000 A 
ATOM      7  C   UNL     1       1.065  10.439  18.541  0.00  0.00    +0.000 A 
ATOM      8  C   UNL     1       1.964   9.576  17.910  0.00  0.00    +0.000 A 
ATOM      9  C   UNL     1       2.242   8.382  18.545  0.00  0.00    +0.000 A 
ATOM     10  C   UNL     1       3.098   7.276  18.129  0.00  0.00    +0.000 C 
ATOM     11  O   UNL     1       3.671   7.257  17.057  0.00  0.00    +0.000 OA
ENDROOT
BRANCH   1  13
ATOM     12  C   UNL     1       2.864   3.934  18.344  0.00  0.00    +0.000 C 
ATOM     13  C   UNL     1       3.649   5.003  19.103  0.00  0.00    +0.000 C 
BRANCH  13  14
ATOM     14  C   UNL     1       5.156   4.996  18.737  0.00  0.00    +0.000 C 
ATOM     15  O   UNL     1       5.957   5.377  19.603  0.00  0.00    +0.000 OA
ATOM     16  N   UNL     1       5.628   4.536  17.513  0.00  0.00    +0.000 N 
ATOM     17  C   UNL     1       7.079   4.406  17.333  0.00  0.00    +0.000 C 
ATOM     18  C   UNL     1       7.537   5.091  16.050  0.00  0.00    +0.000 C 
ATOM     19  C   UNL     1       6.768   4.559  14.844  0.00  0.00    +0.000 C 
ATOM     20  C   UNL     1       5.262   4.665  15.075  0.00  0.00    +0.000 C 
ATOM     21  C   UNL     1       4.839   4.021  16.397  0.00  0.00    +0.000 C 
ENDBRANCH  13  14
ENDBRANCH   1  13
TORSDOF 2
ENDMDL
MODEL 7
REMARK VINA RESULT:      -7.0      1.655      6.418
REMARK  Name = 
REMARK  3 active torsions:
REMARK  status: ('A' for Active; 'I' for Inactive)
REMARK    1  A    between atoms: C_1  and  C_2
REMARK    2  A    between atoms: C_2  and  C_3
REMARK    3  A    between atoms: C_2  and  N_11
REMARK                            x       y       z     vdW  Elec       q    Type
REMARK                         _______ _______ _______ _____ _____    ______ ____
ROOT
ATOM      1  N   UNL     1       3.285   5.344  18.159  0.00  0.00    +0.000 N 
ATOM      2  C   UNL     1       2.067   4.718  18.052  0.00  0.00    +0.000 C 
ATOM      3  O   UNL     1       1.213   4.829  17.196  0.00  0.00    +0.000 OA
ATOM      4  C   UNL     1       1.915   3.871  19.232  0.00  0.00    +0.000 A 
ATOM      5  C   UNL     1       0.888   3.036  19.619  0.00  0.00    +0.000 A 
ATOM      6  C   UNL     1       1.034   2.365  20.838  0.00  0.00    +0.000 A 
ATOM      7  C   UNL     1       2.182   2.551  21.635  0.00  0.00    +0.000 A 
ATOM      8  C   UNL     1       3.200   3.418  21.229  0.00  0.00    +0.000 A 
ATOM      9  C   UNL     1       3.034   4.061  20.019  0.00  0.00    +0.000 A 
ATOM     10  C   UNL     1       3.889   5.035  19.350  0.00  0.00    +0.000 C 
ATOM     11  O   UNL     1       4.907   5.469  19.852  0.00  0.00    +0.000 OA
ENDROOT
BRANCH   1  13
ATOM     12  C   UNL     1       3.332   7.810  17.563  0.00  0.00    +0.000 C 
ATOM     13  C   UNL     1       3.706   6.372  17.205  0.00  0.00    +0.000 C 
BRANCH  13  14
ATOM     14  C   UNL     1       5.185   6.243  16.757  0.00  0.00    +0.000 C 
ATOM     15  O   UNL     1       5.996   7.057  17.222  0.00  0.00    +0.000 OA
ATOM     16  N   UNL     1       5.626   5.234  15.909  0.00  0.00    +0.000 N 
ATOM     17  C   UNL     1       7.070   5.095  15.688  0.00  0.00    +0.000 C 
ATOM     18  C   UNL     1       7.395   5.029  14.200  0.00  0.00    +0.000 C 
ATOM     19  C   UNL     1       6.609   3.911  13.521  0.00  0.00    +0.000 C 
ATOM     20  C   UNL     1       5.114   4.053  13.802  0.00  0.00    +0.000 C 
ATOM     21  C   UNL     1       4.825   4.176  15.299  0.00  0.00    +0.000 C 
ENDBRANCH  13  14
ENDBRANCH   1  13
TORSDOF 2
ENDMDL
MODEL 8
REMARK VINA RESULT:      -6.8      2.370      6.666
REMARK  Name = 
REMARK  3 active torsions:
REMARK  status: ('A' for Active; 'I' for Inactive)
REMARK    1  A    between atoms: C_1  and  C_2
REMARK    2  A    between atoms: C_2  and  C_3
REMARK    3  A    between atoms: C_2  and  N_11
REMARK                            x       y       z     vdW  Elec       q    Type
REMARK                         _______ _______ _______ _____ _____    ______ ____
ROOT
ATOM      1  N   UNL     1       3.050   5.417  19.132  0.00  0.00    +0.000 N 
ATOM      2  C   UNL     1       3.054   6.486  18.268  0.00  0.00    +0.000 C 
ATOM      3  O   UNL     1       3.615   6.614  17.198  0.00  0.00    +0.000 OA
ATOM      4  C   UNL     1       2.266   7.545  18.892  0.00  0.00    +0.000 A 
ATOM      5  C   UNL     1       1.953   8.816  18.456  0.00  0.00    +0.000 A 
ATOM      6  C   UNL     1       1.183   9.614  19.310  0.00  0.00    +0.000 A 
ATOM      7  C   UNL     1       0.758   9.132  20.565  0.00  0.00    +0.000 A 
ATOM      8  C   UNL     1       1.104   7.847  20.992  0.00  0.00    +0.000 A 
ATOM      9  C   UNL     1       1.859   7.079  20.126  0.00  0.00    +0.000 A 
ATOM     10  C   UNL     1       2.397   5.734  20.295  0.00  0.00    +0.000 C 
ATOM     11  O   UNL     1       2.277   5.102  21.326  0.00  0.00    +0.000 OA
ENDROOT
BRANCH   1  13
ATOM     12  C   UNL     1       3.235   3.179  17.953  0.00  0.00    +0.000 C 
ATOM     13  C   UNL     1       3.858   4.223  18.878  0.00  0.00    +0.000 C 
BRANCH  13  14
ATOM     14  C   UNL     1       5.333   4.530  18.510  0.00  0.00    +0.000 C 
ATOM     15  O   UNL     1       6.070   4.957  19.410  0.00  0.00    +0.000 OA
ATOM     16  N   UNL     1       5.853   4.296  17.242  0.00  0.00    +0.000 N 
ATOM     17  C   UNL     1       7.298   4.453  17.045  0.00  0.00    +0.000 C 
ATOM     18  C   UNL     1       7.597   5.341  15.843  0.00  0.00    +0.000 C 
ATOM     19  C   UNL     1       6.910   4.809  14.589  0.00  0.00    +0.000 C 
ATOM     20  C   UNL     1       5.415   4.613  14.833  0.00  0.00    +0.000 C 
ATOM     21  C   UNL     1       5.146   3.766  16.079  0.00  0.00    +0.000 C 
ENDBRANCH  13  14
ENDBRANCH   1  13
TORSDOF 2
ENDMDL
MODEL 9
REMARK VINA RESULT:      -6.8      6.280      8.716
REMARK  Name = 
REMARK  3 active torsions:
REMARK  status: ('A' for Active; 'I' for Inactive)
REMARK    1  A    between atoms: C_1  and  C_2
REMARK    2  A    between atoms: C_2  and  C_3
REMARK    3  A    between atoms: C_2  and  N_11
REMARK                            x       y       z     vdW  Elec       q    Type
REMARK                         _______ _______ _______ _____ _____    ______ ____
ROOT
ATOM      1  N   UNL     1       1.178   9.638  19.509  0.00  0.00    +0.000 N 
ATOM      2  C   UNL     1       1.851   9.137  18.421  0.00  0.00    +0.000 C 
ATOM      3  O   UNL     1       2.057   9.647  17.337  0.00  0.00    +0.000 OA
ATOM      4  C   UNL     1       2.273   7.782  18.763  0.00  0.00    +0.000 A 
ATOM      5  C   UNL     1       2.975   6.843  18.036  0.00  0.00    +0.000 A 
ATOM      6  C   UNL     1       3.207   5.604  18.646  0.00  0.00    +0.000 A 
ATOM      7  C   UNL     1       2.728   5.335  19.945  0.00  0.00    +0.000 A 
ATOM      8  C   UNL     1       2.003   6.297  20.653  0.00  0.00    +0.000 A 
ATOM      9  C   UNL     1       1.795   7.512  20.030  0.00  0.00    +0.000 A 
ATOM     10  C   UNL     1       1.060   8.686  20.488  0.00  0.00    +0.000 C 
ATOM     11  O   UNL     1       0.449   8.710  21.538  0.00  0.00    +0.000 OA
ENDROOT
BRANCH   1  13
ATOM     12  C   UNL     1      -1.019  10.902  19.610  0.00  0.00    +0.000 C 
ATOM     13  C   UNL     1       0.502  10.935  19.463  0.00  0.00    +0.000 C 
BRANCH  13  14
ATOM     14  C   UNL     1       1.156  12.016  20.362  0.00  0.00    +0.000 C 
ATOM     15  O   UNL     1       0.828  12.040  21.557  0.00  0.00    +0.000 OA
ATOM     16  N   UNL     1       2.117  12.902  19.890  0.00  0.00    +0.000 N 
ATOM     17  C   UNL     1       2.801  13.766  20.860  0.00  0.00    +0.000 C 
ATOM     18  C   UNL     1       2.768  15.225  20.417  0.00  0.00    +0.000 C 
ATOM     19  C   UNL     1       3.348  15.380  19.014  0.00  0.00    +0.000 C 
ATOM     20  C   UNL     1       2.650  14.440  18.033  0.00  0.00    +0.000 C 
ATOM     21  C   UNL     1       2.648  12.993  18.532  0.00  0.00    +0.000 C 
ENDBRANCH  13  14
ENDBRANCH   1  13
TORSDOF 2
ENDMDL
