MODEL 1
REMARK VINA RESULT:      -8.6      0.000      0.000
REMARK  Name = 
REMARK  7 active torsions:
REMARK  status: ('A' for Active; 'I' for Inactive)
REMARK    1  A    between atoms: C_1  and  C_2
REMARK    2  A    between atoms: C_4  and  C_5
REMARK    3  A    between atoms: C_7  and  N_8
REMARK    4  A    between atoms: N_8  and  S_9
REMARK    5  A    between atoms: S_9  and  C_12
REMARK    6  A    between atoms: C_15  and  C_16
REMARK    7  A    between atoms: C_19  and  C_20
REMARK                            x       y       z     vdW  Elec       q    Type
REMARK                         _______ _______ _______ _____ _____    ______ ____
ROOT
ATOM      1  C   UNL     1       2.401   4.753  18.994  0.00  0.00    +0.000 A 
ATOM      2  C   UNL     1       1.963   4.782  20.321  0.00  0.00    +0.000 A 
ATOM      3  C   UNL     1       1.648   6.010  20.918  0.00  0.00    +0.000 A 
ATOM      4  C   UNL     1       1.781   7.211  20.203  0.00  0.00    +0.000 A 
ATOM      5  C   UNL     1       2.270   7.158  18.887  0.00  0.00    +0.000 A 
ATOM      6  C   UNL     1       2.591   5.940  18.286  0.00  0.00    +0.000 A 
ENDROOT
BRANCH   4   7
ATOM      7  C   UNL     1       1.401   8.482  20.799  0.00  0.00    +0.000 A 
ATOM      8  C   UNL     1       1.346   9.013  22.069  0.00  0.00    +0.000 A 
ATOM      9  N   UNL     1       0.872  10.301  22.027  0.00  0.00    +0.000 NA
ATOM     10  C   UNL     1       0.633  10.510  20.747  0.00  0.00    +0.000 A 
ATOM     11  O   UNL     1       0.937   9.446  19.944  0.00  0.00    +0.000 OA
BRANCH  10  12
ATOM     12  C   UNL     1       0.052  11.813  20.218  0.00  0.00    +0.000 C 
ATOM     13  C   UNL     1       0.926  12.697  19.346  0.00  0.00    +0.000 C 
ATOM     14  C   UNL     1      -0.198  11.940  18.727  0.00  0.00    +0.000 C 
ENDBRANCH  10  12
ENDBRANCH   4   7
BRANCH   1  15
ATOM     15  S   UNL     1       2.769   3.200  18.203  0.00  0.00    +0.000 S 
ATOM     16  O   UNL     1       2.331   3.291  16.826  0.00  0.00    +0.000 OA
ATOM     17  O   UNL     1       2.281   2.153  19.074  0.00  0.00    +0.000 OA
BRANCH  15  18
ATOM     18  N   UNL     1       4.450   3.091  18.243  0.00  0.00    +0.000 N 
ATOM     19  H   UNL     1       4.824   2.801  19.144  0.00  0.00    +0.000 HD
BRANCH  18  26
ATOM     20  C   UNL     1       6.359   4.143  13.789  0.00  0.00    +0.000 C 
ATOM     21  C   UNL     1       6.214   4.445  15.252  0.00  0.00    +0.000 A 
ATOM     22  C   UNL     1       6.917   5.506  15.835  0.00  0.00    +0.000 A 
ATOM     23  C   UNL     1       6.802   5.776  17.203  0.00  0.00    +0.000 A 
ATOM     24  C   UNL     1       7.562   6.908  17.832  0.00  0.00    +0.000 C 
ATOM     25  C   UNL     1       5.970   4.972  17.991  0.00  0.00    +0.000 A 
ATOM     26  C   UNL     1       5.258   3.919  17.420  0.00  0.00    +0.000 A 
ATOM     27  C   UNL     1       5.376   3.653  16.054  0.00  0.00    +0.000 A 
ENDBRANCH  18  26
ENDBRANCH  15  18
ENDBRANCH   1  15
TORSDOF 5
ENDMDL
MODEL 2
REMARK VINA RESULT:      -8.5      0.458      1.188
REMARK  Name = 
REMARK  7 active torsions:
REMARK  status: ('A' for Active; 'I' for Inactive)
REMARK    1  A    between atoms: C_1  and  C_2
REMARK    2  A    between atoms: C_4  and  C_5
REMARK    3  A    between atoms: C_7  and  N_8
REMARK    4  A    between atoms: N_8  and  S_9
REMARK    5  A    between atoms: S_9  and  C_12
REMARK    6  A    between atoms: C_15  and  C_16
REMARK    7  A    between atoms: C_19  and  C_20
REMARK                            x       y       z     vdW  Elec       q    Type
REMARK                         _______ _______ _______ _____ _____    ______ ____
ROOT
ATOM      1  C   UNL     1       2.438   4.775  19.016  0.00  0.00    +0.000 A 
ATOM      2  C   UNL     1       2.609   5.963  18.301  0.00  0.00    +0.000 A 
ATOM      3  C   UNL     1       2.255   7.183  18.892  0.00  0.00    +0.000 A 
ATOM      4  C   UNL     1       1.718   7.223  20.189  0.00  0.00    +0.000 A 
ATOM      5  C   UNL     1       1.510   6.011  20.867  0.00  0.00    +0.000 A 
ATOM      6  C   UNL     1       1.856   4.790  20.284  0.00  0.00    +0.000 A 
ENDROOT
BRANCH   4   7
ATOM      7  C   UNL     1       1.402   8.491  20.828  0.00  0.00    +0.000 A 
ATOM      8  C   UNL     1       1.395   8.986  22.113  0.00  0.00    +0.000 A 
ATOM      9  N   UNL     1       0.973  10.294  22.118  0.00  0.00    +0.000 NA
ATOM     10  C   UNL     1       0.715  10.548  20.851  0.00  0.00    +0.000 A 
ATOM     11  O   UNL     1       0.959   9.497  20.012  0.00  0.00    +0.000 OA
BRANCH  10  12
ATOM     12  C   UNL     1       0.176  11.888  20.371  0.00  0.00    +0.000 C 
ATOM     13  C   UNL     1      -1.264  11.964  19.898  0.00  0.00    +0.000 C 
ATOM     14  C   UNL     1      -0.889  12.579  21.202  0.00  0.00    +0.000 C 
ENDBRANCH  10  12
ENDBRANCH   4   7
BRANCH   1  15
ATOM     15  S   UNL     1       2.918   3.217  18.300  0.00  0.00    +0.000 S 
ATOM     16  O   UNL     1       2.469   3.206  16.923  0.00  0.00    +0.000 OA
ATOM     17  O   UNL     1       2.515   2.180  19.225  0.00  0.00    +0.000 OA
BRANCH  15  18
ATOM     18  N   UNL     1       4.602   3.237  18.332  0.00  0.00    +0.000 N 
ATOM     19  H   UNL     1       5.001   3.067  19.253  0.00  0.00    +0.000 HD
BRANCH  18  26
ATOM     20  C   UNL     1       6.320   4.026  13.747  0.00  0.00    +0.000 C 
ATOM     21  C   UNL     1       6.205   4.433  15.186  0.00  0.00    +0.000 A 
ATOM     22  C   UNL     1       6.875   5.567  15.663  0.00  0.00    +0.000 A 
ATOM     23  C   UNL     1       6.789   5.937  17.010  0.00  0.00    +0.000 A 
ATOM     24  C   UNL     1       7.513   7.148  17.524  0.00  0.00    +0.000 C 
ATOM     25  C   UNL     1       6.022   5.159  17.885  0.00  0.00    +0.000 A 
ATOM     26  C   UNL     1       5.344   4.034  17.420  0.00  0.00    +0.000 A 
ATOM     27  C   UNL     1       5.431   3.669  16.076  0.00  0.00    +0.000 A 
ENDBRANCH  18  26
ENDBRANCH  15  18
ENDBRANCH   1  15
TORSDOF 5
ENDMDL
MODEL 3
REMARK VINA RESULT:      -8.5      0.283      1.720
REMARK  Name = 
REMARK  7 active torsions:
REMARK  status: ('A' for Active; 'I' for Inactive)
REMARK    1  A    between atoms: C_1  and  C_2
REMARK    2  A    between atoms: C_4  and  C_5
REMARK    3  A    between atoms: C_7  and  N_8
REMARK    4  A    between atoms: N_8  and  S_9
REMARK    5  A    between atoms: S_9  and  C_12
REMARK    6  A    between atoms: C_15  and  C_16
REMARK    7  A    between atoms: C_19  and  C_20
REMARK                            x       y       z     vdW  Elec       q    Type
REMARK                         _______ _______ _______ _____ _____    ______ ____
ROOT
ATOM      1  C   UNL     1       2.409   4.726  18.917  0.00  0.00    +0.000 A 
ATOM      2  C   UNL     1       2.011   4.751  20.257  0.00  0.00    +0.000 A 
ATOM      3  C   UNL     1       1.702   5.975  20.863  0.00  0.00    +0.000 A 
ATOM      4  C   UNL     1       1.801   7.178  20.145  0.00  0.00    +0.000 A 
ATOM      5  C   UNL     1       2.250   7.130  18.816  0.00  0.00    +0.000 A 
ATOM      6  C   UNL     1       2.565   5.915  18.204  0.00  0.00    +0.000 A 
ENDROOT
BRANCH   4   7
ATOM      7  C   UNL     1       1.427   8.445  20.753  0.00  0.00    +0.000 A 
ATOM      8  C   UNL     1       1.258   8.927  22.032  0.00  0.00    +0.000 A 
ATOM      9  N   UNL     1       0.863  10.243  21.998  0.00  0.00    +0.000 NA
ATOM     10  C   UNL     1       0.781  10.516  20.710  0.00  0.00    +0.000 A 
ATOM     11  O   UNL     1       1.115   9.468  19.898  0.00  0.00    +0.000 OA
BRANCH  10  12
ATOM     12  C   UNL     1       0.336  11.870  20.181  0.00  0.00    +0.000 C 
ATOM     13  C   UNL     1       1.360  12.987  20.088  0.00  0.00    +0.000 C 
ATOM     14  C   UNL     1       0.875  12.335  18.840  0.00  0.00    +0.000 C 
ENDBRANCH  10  12
ENDBRANCH   4   7
BRANCH   1  15
ATOM     15  S   UNL     1       2.768   3.177  18.114  0.00  0.00    +0.000 S 
ATOM     16  O   UNL     1       2.361   3.293  16.729  0.00  0.00    +0.000 OA
ATOM     17  O   UNL     1       2.245   2.128  18.961  0.00  0.00    +0.000 OA
BRANCH  15  18
ATOM     18  N   UNL     1       4.446   3.040  18.188  0.00  0.00    +0.000 N 
ATOM     19  H   UNL     1       4.797   2.753  19.100  0.00  0.00    +0.000 HD
BRANCH  18  26
ATOM     20  C   UNL     1       7.450   6.952  17.680  0.00  0.00    +0.000 C 
ATOM     21  C   UNL     1       6.748   5.762  17.098  0.00  0.00    +0.000 A 
ATOM     22  C   UNL     1       6.860   5.462  15.734  0.00  0.00    +0.000 A 
ATOM     23  C   UNL     1       6.188   4.365  15.183  0.00  0.00    +0.000 A 
ATOM     24  C   UNL     1       6.301   4.048  13.720  0.00  0.00    +0.000 C 
ATOM     25  C   UNL     1       5.396   3.562  16.012  0.00  0.00    +0.000 A 
ATOM     26  C   UNL     1       5.284   3.845  17.372  0.00  0.00    +0.000 A 
ATOM     27  C   UNL     1       5.957   4.939  17.918  0.00  0.00    +0.000 A 
ENDBRANCH  18  26
ENDBRANCH  15  18
ENDBRANCH   1  15
TORSDOF 5
ENDMDL
MODEL 4
REMARK VINA RESULT:      -8.5      1.390      2.585
REMARK  Name = 
REMARK  7 active torsions:
REMARK  status: ('A' for Active; 'I' for Inactive)
REMARK    1  A    between atoms: C_1  and  C_2
REMARK    2  A    between atoms: C_4  and  C_5
REMARK    3  A    between atoms: C_7  and  N_8
REMARK    4  A    between atoms: N_8  and  S_9
REMARK    5  A    between atoms: S_9  and  C_12
REMARK    6  A    between atoms: C_15  and  C_16
REMARK    7  A    between atoms: C_19  and  C_20
REMARK                            x       y       z     vdW  Elec       q    Type
REMARK                         _______ _______ _______ _____ _____    ______ ____
ROOT
ATOM      1  C   UNL     1       3.126   4.983  19.076  0.00  0.00    +0.000 A 
ATOM      2  C   UNL     1       3.075   5.703  17.879  0.00  0.00    +0.000 A 
ATOM      3  C   UNL     1       2.563   7.007  17.879  0.00  0.00    +0.000 A 
ATOM      4  C   UNL     1       2.089   7.593  19.064  0.00  0.00    +0.000 A 
ATOM      5  C   UNL     1       2.107   6.831  20.243  0.00  0.00    +0.000 A 
ATOM      6  C   UNL     1       2.611   5.529  20.253  0.00  0.00    +0.000 A 
ENDROOT
BRANCH   4   7
ATOM      7  C   UNL     1       1.610   8.966  19.080  0.00  0.00    +0.000 A 
ATOM      8  C   UNL     1       1.548  10.012  18.186  0.00  0.00    +0.000 A 
ATOM      9  N   UNL     1       0.992  11.118  18.782  0.00  0.00    +0.000 NA
ATOM     10  C   UNL     1       0.753  10.724  20.018  0.00  0.00    +0.000 A 
ATOM     11  O   UNL     1       1.102   9.425  20.265  0.00  0.00    +0.000 OA
BRANCH  10  12
ATOM     12  C   UNL     1       0.162  11.643  21.077  0.00  0.00    +0.000 C 
ATOM     13  C   UNL     1      -1.345  11.668  21.258  0.00  0.00    +0.000 C 
ATOM     14  C   UNL     1      -0.495  11.016  22.293  0.00  0.00    +0.000 C 
ENDBRANCH  10  12
ENDBRANCH   4   7
BRANCH   1  15
ATOM     15  S   UNL     1       3.809   3.338  19.108  0.00  0.00    +0.000 S 
ATOM     16  O   UNL     1       3.391   2.663  17.897  0.00  0.00    +0.000 OA
ATOM     17  O   UNL     1       3.520   2.782  20.411  0.00  0.00    +0.000 OA
BRANCH  15  18
ATOM     18  N   UNL     1       5.477   3.571  19.063  0.00  0.00    +0.000 N 
ATOM     19  H   UNL     1       5.931   3.488  19.971  0.00  0.00    +0.000 HD
BRANCH  18  26
ATOM     20  C   UNL     1       7.877   7.762  17.937  0.00  0.00    +0.000 C 
ATOM     21  C   UNL     1       7.237   6.471  17.519  0.00  0.00    +0.000 A 
ATOM     22  C   UNL     1       7.166   6.115  16.166  0.00  0.00    +0.000 A 
ATOM     23  C   UNL     1       6.550   4.923  15.770  0.00  0.00    +0.000 A 
ATOM     24  C   UNL     1       6.466   4.544  14.320  0.00  0.00    +0.000 C 
ATOM     25  C   UNL     1       6.001   4.081  16.744  0.00  0.00    +0.000 A 
ATOM     26  C   UNL     1       6.074   4.420  18.094  0.00  0.00    +0.000 A 
ATOM     27  C   UNL     1       6.690   5.610  18.485  0.00  0.00    +0.000 A 
ENDBRANCH  18  26
ENDBRANCH  15  18
ENDBRANCH   1  15
TORSDOF 5
ENDMDL
MODEL 5
REMARK VINA RESULT:      -8.5      2.503      7.765
REMARK  Name = 
REMARK  7 active torsions:
REMARK  status: ('A' for Active; 'I' for Inactive)
REMARK    1  A    between atoms: C_1  and  C_2
REMARK    2  A    between atoms: C_4  and  C_5
REMARK    3  A    between atoms: C_7  and  N_8
REMARK    4  A    between atoms: N_8  and  S_9
REMARK    5  A    between atoms: S_9  and  C_12
REMARK    6  A    between atoms: C_15  and  C_16
REMARK    7  A    between atoms: C_19  and  C_20
REMARK                            x       y       z     vdW  Elec       q    Type
REMARK                         _______ _______ _______ _____ _____    ______ ____
ROOT
ATOM      1  C   UNL     1       3.119   4.166  19.086  0.00  0.00    +0.000 A 
ATOM      2  C   UNL     1       2.580   4.000  17.807  0.00  0.00    +0.000 A 
ATOM      3  C   UNL     1       3.423   4.053  16.690  0.00  0.00    +0.000 A 
ATOM      4  C   UNL     1       4.800   4.286  16.840  0.00  0.00    +0.000 A 
ATOM      5  C   UNL     1       5.308   4.498  18.131  0.00  0.00    +0.000 A 
ATOM      6  C   UNL     1       4.475   4.451  19.251  0.00  0.00    +0.000 A 
ENDROOT
BRANCH   4   7
ATOM      7  C   UNL     1       5.688   4.285  15.688  0.00  0.00    +0.000 A 
ATOM      8  C   UNL     1       6.989   4.654  15.430  0.00  0.00    +0.000 A 
ATOM      9  N   UNL     1       7.294   4.438  14.108  0.00  0.00    +0.000 NA
ATOM     10  C   UNL     1       6.173   3.969  13.597  0.00  0.00    +0.000 A 
ATOM     11  O   UNL     1       5.157   3.846  14.504  0.00  0.00    +0.000 OA
BRANCH  10  12
ATOM     12  C   UNL     1       6.021   3.615  12.125  0.00  0.00    +0.000 C 
ATOM     13  C   UNL     1       5.696   2.180  11.753  0.00  0.00    +0.000 C 
ATOM     14  C   UNL     1       4.647   3.227  11.612  0.00  0.00    +0.000 C 
ENDBRANCH  10  12
ENDBRANCH   4   7
BRANCH   1  15
ATOM     15  S   UNL     1       2.072   4.063  20.523  0.00  0.00    +0.000 S 
ATOM     16  O   UNL     1       2.567   2.985  21.354  0.00  0.00    +0.000 OA
ATOM     17  O   UNL     1       0.703   4.076  20.055  0.00  0.00    +0.000 OA
BRANCH  15  18
ATOM     18  N   UNL     1       2.303   5.528  21.323  0.00  0.00    +0.000 N 
ATOM     19  H   UNL     1       2.323   5.446  22.338  0.00  0.00    +0.000 HD
BRANCH  18  26
ATOM     20  C   UNL     1       2.364   8.814  17.610  0.00  0.00    +0.000 C 
ATOM     21  C   UNL     1       1.875   8.378  18.959  0.00  0.00    +0.000 A 
ATOM     22  C   UNL     1       1.017   9.195  19.706  0.00  0.00    +0.000 A 
ATOM     23  C   UNL     1       0.577   8.802  20.975  0.00  0.00    +0.000 A 
ATOM     24  C   UNL     1      -0.337   9.680  21.780  0.00  0.00    +0.000 C 
ATOM     25  C   UNL     1       1.004   7.575  21.497  0.00  0.00    +0.000 A 
ATOM     26  C   UNL     1       1.851   6.750  20.759  0.00  0.00    +0.000 A 
ATOM     27  C   UNL     1       2.287   7.145  19.494  0.00  0.00    +0.000 A 
ENDBRANCH  18  26
ENDBRANCH  15  18
ENDBRANCH   1  15
TORSDOF 5
ENDMDL
MODEL 6
REMARK VINA RESULT:      -8.4      1.315      1.920
REMARK  Name = 
REMARK  7 active torsions:
REMARK  status: ('A' for Active; 'I' for Inactive)
REMARK    1  A    between atoms: C_1  and  C_2
REMARK    2  A    between atoms: C_4  and  C_5
REMARK    3  A    between atoms: C_7  and  N_8
REMARK    4  A    between atoms: N_8  and  S_9
REMARK    5  A    between atoms: S_9  and  C_12
REMARK    6  A    between atoms: C_15  and  C_16
REMARK    7  A    between atoms: C_19  and  C_20
REMARK                            x       y       z     vdW  Elec       q    Type
REMARK                         _______ _______ _______ _____ _____    ______ ____
ROOT
ATOM      1  C   UNL     1       2.950   4.979  19.280  0.00  0.00    +0.000 A 
ATOM      2  C   UNL     1       2.980   5.805  18.152  0.00  0.00    +0.000 A 
ATOM      3  C   UNL     1       2.459   7.102  18.233  0.00  0.00    +0.000 A 
ATOM      4  C   UNL     1       1.896   7.578  19.428  0.00  0.00    +0.000 A 
ATOM      5  C   UNL     1       1.835   6.712  20.531  0.00  0.00    +0.000 A 
ATOM      6  C   UNL     1       2.347   5.415  20.460  0.00  0.00    +0.000 A 
ENDROOT
BRANCH   4   7
ATOM      7  C   UNL     1       1.406   8.943  19.533  0.00  0.00    +0.000 A 
ATOM      8  C   UNL     1       1.297  10.032  18.696  0.00  0.00    +0.000 A 
ATOM      9  N   UNL     1       0.757  11.100  19.370  0.00  0.00    +0.000 NA
ATOM     10  C   UNL     1       0.573  10.643  20.593  0.00  0.00    +0.000 A 
ATOM     11  O   UNL     1       0.943   9.337  20.760  0.00  0.00    +0.000 OA
BRANCH  10  12
ATOM     12  C   UNL     1       0.018  11.501  21.720  0.00  0.00    +0.000 C 
ATOM     13  C   UNL     1      -1.484  11.696  21.813  0.00  0.00    +0.000 C 
ATOM     14  C   UNL     1      -0.797  10.827  22.808  0.00  0.00    +0.000 C 
ENDBRANCH  10  12
ENDBRANCH   4   7
BRANCH   1  15
ATOM     15  S   UNL     1       3.643   3.339  19.212  0.00  0.00    +0.000 S 
ATOM     16  O   UNL     1       3.185   2.717  17.988  0.00  0.00    +0.000 OA
ATOM     17  O   UNL     1       3.402   2.723  20.499  0.00  0.00    +0.000 OA
BRANCH  15  18
ATOM     18  N   UNL     1       5.307   3.585  19.120  0.00  0.00    +0.000 N 
ATOM     19  H   UNL     1       5.781   3.549  20.020  0.00  0.00    +0.000 HD
BRANCH  18  26
ATOM     20  C   UNL     1       6.378   4.312  14.333  0.00  0.00    +0.000 C 
ATOM     21  C   UNL     1       6.418   4.764  15.763  0.00  0.00    +0.000 A 
ATOM     22  C   UNL     1       7.065   5.954  16.117  0.00  0.00    +0.000 A 
ATOM     23  C   UNL     1       7.125   6.367  17.453  0.00  0.00    +0.000 A 
ATOM     24  C   UNL     1       7.826   7.639  17.836  0.00  0.00    +0.000 C 
ATOM     25  C   UNL     1       6.528   5.575  18.441  0.00  0.00    +0.000 A 
ATOM     26  C   UNL     1       5.873   4.393  18.099  0.00  0.00    +0.000 A 
ATOM     27  C   UNL     1       5.815   3.986  16.765  0.00  0.00    +0.000 A 
ENDBRANCH  18  26
ENDBRANCH  15  18
ENDBRANCH   1  15
TORSDOF 5
ENDMDL
MODEL 7
REMARK VINA RESULT:      -8.4      2.451      7.837
REMARK  Name = 
REMARK  7 active torsions:
REMARK  status: ('A' for Active; 'I' for Inactive)
REMARK    1  A    between atoms: C_1  and  C_2
REMARK    2  A    between atoms: C_4  and  C_5
REMARK    3  A    between atoms: C_7  and  N_8
REMARK    4  A    between atoms: N_8  and  S_9
REMARK    5  A    between atoms: S_9  and  C_12
REMARK    6  A    between atoms: C_15  and  C_16
REMARK    7  A    between atoms: C_19  and  C_20
REMARK                            x       y       z     vdW  Elec       q    Type
REMARK                         _______ _______ _______ _____ _____    ______ ____
ROOT
ATOM      1  C   UNL     1       3.208   4.165  19.103  0.00  0.00    +0.000 A 
ATOM      2  C   UNL     1       4.580   4.314  19.329  0.00  0.00    +0.000 A 
ATOM      3  C   UNL     1       5.453   4.407  18.238  0.00  0.00    +0.000 A 
ATOM      4  C   UNL     1       4.969   4.339  16.921  0.00  0.00    +0.000 A 
ATOM      5  C   UNL     1       3.593   4.141  16.723  0.00  0.00    +0.000 A 
ATOM      6  C   UNL     1       2.715   4.042  17.803  0.00  0.00    +0.000 A 
ENDROOT
BRANCH   4   7
ATOM      7  C   UNL     1       5.864   4.493  15.786  0.00  0.00    +0.000 A 
ATOM      8  C   UNL     1       7.096   5.066  15.556  0.00  0.00    +0.000 A 
ATOM      9  N   UNL     1       7.452   4.917  14.238  0.00  0.00    +0.000 NA
ATOM     10  C   UNL     1       6.428   4.283  13.702  0.00  0.00    +0.000 A 
ATOM     11  O   UNL     1       5.430   3.990  14.589  0.00  0.00    +0.000 OA
BRANCH  10  12
ATOM     12  C   UNL     1       6.359   3.927  12.224  0.00  0.00    +0.000 C 
ATOM     13  C   UNL     1       6.714   2.514  11.799  0.00  0.00    +0.000 C 
ATOM     14  C   UNL     1       5.291   2.952  11.764  0.00  0.00    +0.000 C 
ENDBRANCH  10  12
ENDBRANCH   4   7
BRANCH   1  15
ATOM     15  S   UNL     1       2.075   4.085  20.474  0.00  0.00    +0.000 S 
ATOM     16  O   UNL     1       2.479   2.979  21.317  0.00  0.00    +0.000 OA
ATOM     17  O   UNL     1       0.738   4.156  19.926  0.00  0.00    +0.000 OA
BRANCH  15  18
ATOM     18  N   UNL     1       2.312   5.530  21.306  0.00  0.00    +0.000 N 
ATOM     19  H   UNL     1       2.288   5.433  22.320  0.00  0.00    +0.000 HD
BRANCH  18  26
ATOM     20  C   UNL     1      -0.322   9.720  21.606  0.00  0.00    +0.000 C 
ATOM     21  C   UNL     1       0.627   8.825  20.865  0.00  0.00    +0.000 A 
ATOM     22  C   UNL     1       1.088   9.173  19.589  0.00  0.00    +0.000 A 
ATOM     23  C   UNL     1       1.955   8.329  18.885  0.00  0.00    +0.000 A 
ATOM     24  C   UNL     1       2.443   8.696  17.514  0.00  0.00    +0.000 C 
ATOM     25  C   UNL     1       2.362   7.125  19.472  0.00  0.00    +0.000 A 
ATOM     26  C   UNL     1       1.918   6.773  20.745  0.00  0.00    +0.000 A 
ATOM     27  C   UNL     1       1.053   7.618  21.444  0.00  0.00    +0.000 A 
ENDBRANCH  18  26
ENDBRANCH  15  18
ENDBRANCH   1  15
TORSDOF 5
ENDMDL
MODEL 8
REMARK VINA RESULT:      -8.2      1.370      1.649
REMARK  Name = 
REMARK  7 active torsions:
REMARK  status: ('A' for Active; 'I' for Inactive)
REMARK    1  A    between atoms: C_1  and  C_2
REMARK    2  A    between atoms: C_4  and  C_5
REMARK    3  A    between atoms: C_7  and  N_8
REMARK    4  A    between atoms: N_8  and  S_9
REMARK    5  A    between atoms: S_9  and  C_12
REMARK    6  A    between atoms: C_15  and  C_16
REMARK    7  A    between atoms: C_19  and  C_20
REMARK                            x       y       z     vdW  Elec       q    Type
REMARK                         _______ _______ _______ _____ _____    ______ ____
ROOT
ATOM      1  C   UNL     1       2.951   5.005  19.138  0.00  0.00    +0.000 A 
ATOM      2  C   UNL     1       2.611   5.635  20.338  0.00  0.00    +0.000 A 
ATOM      3  C   UNL     1       2.145   6.955  20.317  0.00  0.00    +0.000 A 
ATOM      4  C   UNL     1       2.029   7.657  19.106  0.00  0.00    +0.000 A 
ATOM      5  C   UNL     1       2.424   7.018  17.920  0.00  0.00    +0.000 A 
ATOM      6  C   UNL     1       2.894   5.703  17.931  0.00  0.00    +0.000 A 
ENDROOT
BRANCH   4   7
ATOM      7  C   UNL     1       1.492   9.009  19.073  0.00  0.00    +0.000 A 
ATOM      8  C   UNL     1       1.691  10.144  18.320  0.00  0.00    +0.000 A 
ATOM      9  N   UNL     1       0.889  11.164  18.772  0.00  0.00    +0.000 NA
ATOM     10  C   UNL     1       0.246  10.632  19.793  0.00  0.00    +0.000 A 
ATOM     11  O   UNL     1       0.562   9.323  20.028  0.00  0.00    +0.000 OA
BRANCH  10  12
ATOM     12  C   UNL     1      -0.743  11.415  20.643  0.00  0.00    +0.000 C 
ATOM     13  C   UNL     1      -0.496  11.518  22.137  0.00  0.00    +0.000 C 
ATOM     14  C   UNL     1      -0.284  12.714  21.277  0.00  0.00    +0.000 C 
ENDBRANCH  10  12
ENDBRANCH   4   7
BRANCH   1  15
ATOM     15  S   UNL     1       3.508   3.313  19.137  0.00  0.00    +0.000 S 
ATOM     16  O   UNL     1       3.036   2.693  17.916  0.00  0.00    +0.000 OA
ATOM     17  O   UNL     1       3.180   2.757  20.432  0.00  0.00    +0.000 OA
BRANCH  15  18
ATOM     18  N   UNL     1       5.188   3.419  19.090  0.00  0.00    +0.000 N 
ATOM     19  H   UNL     1       5.640   3.228  19.982  0.00  0.00    +0.000 HD
BRANCH  18  26
ATOM     20  C   UNL     1       6.457   4.617  14.449  0.00  0.00    +0.000 C 
ATOM     21  C   UNL     1       6.486   4.894  15.922  0.00  0.00    +0.000 A 
ATOM     22  C   UNL     1       7.205   5.983  16.430  0.00  0.00    +0.000 A 
ATOM     23  C   UNL     1       7.253   6.232  17.806  0.00  0.00    +0.000 A 
ATOM     24  C   UNL     1       8.031   7.394  18.353  0.00  0.00    +0.000 C 
ATOM     25  C   UNL     1       6.570   5.378  18.680  0.00  0.00    +0.000 A 
ATOM     26  C   UNL     1       5.843   4.296  18.185  0.00  0.00    +0.000 A 
ATOM     27  C   UNL     1       5.797   4.052  16.812  0.00  0.00    +0.000 A 
ENDBRANCH  18  26
ENDBRANCH  15  18
ENDBRANCH   1  15
TORSDOF 5
ENDMDL
MODEL 9
REMARK VINA RESULT:      -8.2      1.041      1.515
REMARK  Name = 
REMARK  7 active torsions:
REMARK  status: ('A' for Active; 'I' for Inactive)
REMARK    1  A    between atoms: C_1  and  C_2
REMARK    2  A    between atoms: C_4  and  C_5
REMARK    3  A    between atoms: C_7  and  N_8
REMARK    4  A    between atoms: N_8  and  S_9
REMARK    5  A    between atoms: S_9  and  C_12
REMARK    6  A    between atoms: C_15  and  C_16
REMARK    7  A    between atoms: C_19  and  C_20
REMARK                            x       y       z     vdW  Elec       q    Type
REMARK                         _______ _______ _______ _____ _____    ______ ____
ROOT
ATOM      1  C   UNL     1       2.937   4.897  19.270  0.00  0.00    +0.000 A 
ATOM      2  C   UNL     1       2.968   5.842  18.241  0.00  0.00    +0.000 A 
ATOM      3  C   UNL     1       2.419   7.113  18.454  0.00  0.00    +0.000 A 
ATOM      4  C   UNL     1       1.827   7.443  19.684  0.00  0.00    +0.000 A 
ATOM      5  C   UNL     1       1.766   6.459  20.685  0.00  0.00    +0.000 A 
ATOM      6  C   UNL     1       2.306   5.188  20.480  0.00  0.00    +0.000 A 
ENDROOT
BRANCH   4   7
ATOM      7  C   UNL     1       1.307   8.779  19.930  0.00  0.00    +0.000 A 
ATOM      8  C   UNL     1       0.460   9.369  20.841  0.00  0.00    +0.000 A 
ATOM      9  N   UNL     1       0.315  10.706  20.562  0.00  0.00    +0.000 NA
ATOM     10  C   UNL     1       1.054  10.887  19.485  0.00  0.00    +0.000 A 
ATOM     11  O   UNL     1       1.689   9.757  19.050  0.00  0.00    +0.000 OA
BRANCH  10  12
ATOM     12  C   UNL     1       1.171  12.230  18.781  0.00  0.00    +0.000 C 
ATOM     13  C   UNL     1       2.094  13.281  19.370  0.00  0.00    +0.000 C 
ATOM     14  C   UNL     1       2.487  12.585  18.114  0.00  0.00    +0.000 C 
ENDBRANCH  10  12
ENDBRANCH   4   7
BRANCH   1  15
ATOM     15  S   UNL     1       3.665   3.288  19.035  0.00  0.00    +0.000 S 
ATOM     16  O   UNL     1       3.235   2.793  17.744  0.00  0.00    +0.000 OA
ATOM     17  O   UNL     1       3.422   2.530  20.244  0.00  0.00    +0.000 OA
BRANCH  15  18
ATOM     18  N   UNL     1       5.324   3.575  18.994  0.00  0.00    +0.000 N 
ATOM     19  H   UNL     1       5.774   3.534  19.906  0.00  0.00    +0.000 HD
BRANCH  18  26
ATOM     20  C   UNL     1       6.468   4.434  14.246  0.00  0.00    +0.000 C 
ATOM     21  C   UNL     1       6.480   4.850  15.687  0.00  0.00    +0.000 A 
ATOM     22  C   UNL     1       7.108   6.037  16.082  0.00  0.00    +0.000 A 
ATOM     23  C   UNL     1       7.141   6.417  17.429  0.00  0.00    +0.000 A 
ATOM     24  C   UNL     1       7.821   7.685  17.856  0.00  0.00    +0.000 C 
ATOM     25  C   UNL     1       6.536   5.594  18.386  0.00  0.00    +0.000 A 
ATOM     26  C   UNL     1       5.899   4.414  18.003  0.00  0.00    +0.000 A 
ATOM     27  C   UNL     1       5.868   4.040  16.659  0.00  0.00    +0.000 A 
ENDBRANCH  18  26
ENDBRANCH  15  18
ENDBRANCH   1  15
TORSDOF 5
ENDMDL
