MODEL 1
REMARK VINA RESULT:      -8.1      0.000      0.000
REMARK  Name = 
REMARK  5 active torsions:
REMARK  status: ('A' for Active; 'I' for Inactive)
REMARK    1  A    between atoms: C_1  and  N_2
REMARK    2  A    between atoms: N_2  and  C_3
REMARK    3  A    between atoms: N_2  and  C_4
REMARK    4  A    between atoms: C_7  and  C_8
REMARK    5  A    between atoms: C_14  and  N_15
REMARK                            x       y       z     vdW  Elec       q    Type
REMARK                         _______ _______ _______ _____ _____    ______ ____
ROOT
ATOM      1  C   UNL     1       2.871   7.920  17.877  0.00  0.00    +0.000 C 
ATOM      2  C   UNL     1       3.401   6.715  17.596  0.00  0.00    +0.000 C 
ATOM      3  C   UNL     1       4.760   6.766  17.060  0.00  0.00    +0.000 C 
ATOM      4  C   UNL     1       5.159   5.561  16.653  0.00  0.00    +0.000 C 
ATOM      5  C   UNL     1       4.207   4.619  17.215  0.00  0.00    +0.000 A 
ATOM      6  C   UNL     1       4.417   3.258  17.358  0.00  0.00    +0.000 A 
ATOM      7  C   UNL     1       3.398   2.478  17.890  0.00  0.00    +0.000 A 
ATOM      8  C   UNL     1       2.211   3.112  18.316  0.00  0.00    +0.000 A 
ATOM      9  C   UNL     1       2.037   4.516  18.242  0.00  0.00    +0.000 A 
ATOM     10  C   UNL     1       3.080   5.279  17.748  0.00  0.00    +0.000 A 
ENDROOT
BRANCH   1  14
ATOM     11  C   UNL     1       0.322   9.707  20.800  0.00  0.00    +0.000 A 
ATOM     12  C   UNL     1       1.088   8.541  21.069  0.00  0.00    +0.000 A 
ATOM     13  C   UNL     1       1.833   7.893  20.091  0.00  0.00    +0.000 A 
ATOM     14  C   UNL     1       1.838   8.374  18.788  0.00  0.00    +0.000 A 
ATOM     15  C   UNL     1       1.119   9.547  18.499  0.00  0.00    +0.000 A 
ATOM     16  C   UNL     1       0.391  10.205  19.494  0.00  0.00    +0.000 A 
BRANCH  11  18
ATOM     17  C   UNL     1      -0.432  11.817  21.802  0.00  0.00    +0.000 C 
ATOM     18  N   UNL     1      -0.447  10.361  21.771  0.00  0.00    +0.000 N 
ATOM     19  C   UNL     1      -0.416   9.693  23.074  0.00  0.00    +0.000 C 
ENDBRANCH  11  18
ENDBRANCH   1  14
BRANCH   7  20
ATOM     20  N   UNL     1       3.657   1.137  18.201  0.00  0.00    +0.000 N 
ATOM     21  H   UNL     1       4.381   0.707  17.633  0.00  0.00    +0.000 HD
ATOM     22  H   UNL     1       2.830   0.558  18.282  0.00  0.00    +0.000 HD
ENDBRANCH   7  20
TORSDOF 3
ENDMDL
MODEL 2
REMARK VINA RESULT:      -7.7      1.918      3.171
REMARK  Name = 
REMARK  5 active torsions:
REMARK  status: ('A' for Active; 'I' for Inactive)
REMARK    1  A    between atoms: C_1  and  N_2
REMARK    2  A    between atoms: N_2  and  C_3
REMARK    3  A    between atoms: N_2  and  C_4
REMARK    4  A    between atoms: C_7  and  C_8
REMARK    5  A    between atoms: C_14  and  N_15
REMARK                            x       y       z     vdW  Elec       q    Type
REMARK                         _______ _______ _______ _____ _____    ______ ____
ROOT
ATOM      1  C   UNL     1       2.439   5.989  19.089  0.00  0.00    +0.000 C 
ATOM      2  C   UNL     1       3.309   5.319  18.311  0.00  0.00    +0.000 C 
ATOM      3  C   UNL     1       2.888   3.962  17.968  0.00  0.00    +0.000 C 
ATOM      4  C   UNL     1       3.862   3.303  17.341  0.00  0.00    +0.000 C 
ATOM      5  C   UNL     1       4.832   4.311  16.951  0.00  0.00    +0.000 A 
ATOM      6  C   UNL     1       5.808   4.150  15.982  0.00  0.00    +0.000 A 
ATOM      7  C   UNL     1       6.686   5.199  15.738  0.00  0.00    +0.000 A 
ATOM      8  C   UNL     1       6.511   6.407  16.446  0.00  0.00    +0.000 A 
ATOM      9  C   UNL     1       5.458   6.591  17.375  0.00  0.00    +0.000 A 
ATOM     10  C   UNL     1       4.571   5.549  17.573  0.00  0.00    +0.000 A 
ENDROOT
BRANCH   1  14
ATOM     11  C   UNL     1       0.960   9.966  19.563  0.00  0.00    +0.000 A 
ATOM     12  C   UNL     1       1.498   9.496  18.336  0.00  0.00    +0.000 A 
ATOM     13  C   UNL     1       2.080   8.242  18.205  0.00  0.00    +0.000 A 
ATOM     14  C   UNL     1       2.165   7.396  19.305  0.00  0.00    +0.000 A 
ATOM     15  C   UNL     1       1.608   7.819  20.525  0.00  0.00    +0.000 A 
ATOM     16  C   UNL     1       1.004   9.074  20.641  0.00  0.00    +0.000 A 
BRANCH  11  18
ATOM     17  C   UNL     1       0.857  12.086  20.799  0.00  0.00    +0.000 C 
ATOM     18  N   UNL     1       0.386  11.236  19.713  0.00  0.00    +0.000 N 
ATOM     19  C   UNL     1      -1.059  11.246  19.473  0.00  0.00    +0.000 C 
ENDBRANCH  11  18
ENDBRANCH   1  14
BRANCH   7  20
ATOM     20  N   UNL     1       7.562   5.116  14.648  0.00  0.00    +0.000 N 
ATOM     21  H   UNL     1       7.136   5.335  13.751  0.00  0.00    +0.000 HD
ATOM     22  H   UNL     1       8.119   4.271  14.620  0.00  0.00    +0.000 HD
ENDBRANCH   7  20
TORSDOF 3
ENDMDL
MODEL 3
REMARK VINA RESULT:      -7.5      0.865      1.016
REMARK  Name = 
REMARK  5 active torsions:
REMARK  status: ('A' for Active; 'I' for Inactive)
REMARK    1  A    between atoms: C_1  and  N_2
REMARK    2  A    between atoms: N_2  and  C_3
REMARK    3  A    between atoms: N_2  and  C_4
REMARK    4  A    between atoms: C_7  and  C_8
REMARK    5  A    between atoms: C_14  and  N_15
REMARK                            x       y       z     vdW  Elec       q    Type
REMARK                         _______ _______ _______ _____ _____    ______ ____
ROOT
ATOM      1  C   UNL     1       3.163   8.007  17.734  0.00  0.00    +0.000 C 
ATOM      2  C   UNL     1       3.572   6.729  17.616  0.00  0.00    +0.000 C 
ATOM      3  C   UNL     1       5.009   6.575  17.399  0.00  0.00    +0.000 C 
ATOM      4  C   UNL     1       5.318   5.308  17.128  0.00  0.00    +0.000 C 
ATOM      5  C   UNL     1       4.146   4.529  17.490  0.00  0.00    +0.000 A 
ATOM      6  C   UNL     1       4.131   3.164  17.718  0.00  0.00    +0.000 A 
ATOM      7  C   UNL     1       2.923   2.553  18.029  0.00  0.00    +0.000 A 
ATOM      8  C   UNL     1       1.771   3.356  18.158  0.00  0.00    +0.000 A 
ATOM      9  C   UNL     1       1.811   4.764  18.005  0.00  0.00    +0.000 A 
ATOM     10  C   UNL     1       3.031   5.357  17.735  0.00  0.00    +0.000 A 
ENDROOT
BRANCH   1  14
ATOM     11  C   UNL     1       0.304  10.297  19.927  0.00  0.00    +0.000 A 
ATOM     12  C   UNL     1       0.862   9.093  20.432  0.00  0.00    +0.000 A 
ATOM     13  C   UNL     1       1.707   8.287  19.680  0.00  0.00    +0.000 A 
ATOM     14  C   UNL     1       2.028   8.641  18.375  0.00  0.00    +0.000 A 
ATOM     15  C   UNL     1       1.521   9.848  17.861  0.00  0.00    +0.000 A 
ATOM     16  C   UNL     1       0.689  10.663  18.632  0.00  0.00    +0.000 A 
BRANCH  11  18
ATOM     17  C   UNL     1      -1.693  11.725  19.983  0.00  0.00    +0.000 C 
ATOM     18  N   UNL     1      -0.563  11.110  20.668  0.00  0.00    +0.000 N 
ATOM     19  C   UNL     1       0.131  11.957  21.641  0.00  0.00    +0.000 C 
ENDBRANCH  11  18
ENDBRANCH   1  14
BRANCH   7  20
ATOM     20  N   UNL     1       2.921   1.211  18.431  0.00  0.00    +0.000 N 
ATOM     21  H   UNL     1       3.825   0.751  18.361  0.00  0.00    +0.000 HD
ATOM     22  H   UNL     1       2.170   0.656  18.039  0.00  0.00    +0.000 HD
ENDBRANCH   7  20
TORSDOF 3
ENDMDL
MODEL 4
REMARK VINA RESULT:      -7.4      1.258      7.204
REMARK  Name = 
REMARK  5 active torsions:
REMARK  status: ('A' for Active; 'I' for Inactive)
REMARK    1  A    between atoms: C_1  and  N_2
REMARK    2  A    between atoms: N_2  and  C_3
REMARK    3  A    between atoms: N_2  and  C_4
REMARK    4  A    between atoms: C_7  and  C_8
REMARK    5  A    between atoms: C_14  and  N_15
REMARK                            x       y       z     vdW  Elec       q    Type
REMARK                         _______ _______ _______ _____ _____    ______ ____
ROOT
ATOM      1  C   UNL     1       2.322   8.058  18.166  0.00  0.00    +0.000 C 
ATOM      2  C   UNL     1       1.512   8.906  18.828  0.00  0.00    +0.000 C 
ATOM      3  C   UNL     1       0.694   9.755  17.963  0.00  0.00    +0.000 C 
ATOM      4  C   UNL     1       0.045  10.676  18.674  0.00  0.00    +0.000 C 
ATOM      5  C   UNL     1       0.148  10.250  20.059  0.00  0.00    +0.000 A 
ATOM      6  C   UNL     1      -0.662  10.688  21.094  0.00  0.00    +0.000 A 
ATOM      7  C   UNL     1      -0.423  10.210  22.376  0.00  0.00    +0.000 A 
ATOM      8  C   UNL     1       0.598   9.254  22.564  0.00  0.00    +0.000 A 
ATOM      9  C   UNL     1       1.367   8.750  21.486  0.00  0.00    +0.000 A 
ATOM     10  C   UNL     1       1.086   9.208  20.212  0.00  0.00    +0.000 A 
ENDROOT
BRANCH   1  14
ATOM     11  C   UNL     1       3.651   4.035  18.692  0.00  0.00    +0.000 A 
ATOM     12  C   UNL     1       2.660   4.623  19.522  0.00  0.00    +0.000 A 
ATOM     13  C   UNL     1       2.303   5.962  19.427  0.00  0.00    +0.000 A 
ATOM     14  C   UNL     1       2.931   6.786  18.500  0.00  0.00    +0.000 A 
ATOM     15  C   UNL     1       3.890   6.223  17.640  0.00  0.00    +0.000 A 
ATOM     16  C   UNL     1       4.226   4.870  17.727  0.00  0.00    +0.000 A 
BRANCH  11  18
ATOM     17  C   UNL     1       3.272   1.698  18.042  0.00  0.00    +0.000 C 
ATOM     18  N   UNL     1       4.034   2.691  18.788  0.00  0.00    +0.000 N 
ATOM     19  C   UNL     1       4.436   2.303  20.142  0.00  0.00    +0.000 C 
ENDBRANCH  11  18
ENDBRANCH   1  14
BRANCH   7  20
ATOM     20  N   UNL     1      -1.337  10.506  23.396  0.00  0.00    +0.000 N 
ATOM     21  H   UNL     1      -1.351   9.830  24.155  0.00  0.00    +0.000 HD
ATOM     22  H   UNL     1      -2.266  10.746  23.070  0.00  0.00    +0.000 HD
ENDBRANCH   7  20
TORSDOF 3
ENDMDL
MODEL 5
REMARK VINA RESULT:      -7.4      1.935      3.214
REMARK  Name = 
REMARK  5 active torsions:
REMARK  status: ('A' for Active; 'I' for Inactive)
REMARK    1  A    between atoms: C_1  and  N_2
REMARK    2  A    between atoms: N_2  and  C_3
REMARK    3  A    between atoms: N_2  and  C_4
REMARK    4  A    between atoms: C_7  and  C_8
REMARK    5  A    between atoms: C_14  and  N_15
REMARK                            x       y       z     vdW  Elec       q    Type
REMARK                         _______ _______ _______ _____ _____    ______ ____
ROOT
ATOM      1  C   UNL     1       2.523   6.215  19.435  0.00  0.00    +0.000 C 
ATOM      2  C   UNL     1       3.235   5.402  18.632  0.00  0.00    +0.000 C 
ATOM      3  C   UNL     1       2.899   3.985  18.760  0.00  0.00    +0.000 C 
ATOM      4  C   UNL     1       3.747   3.228  18.064  0.00  0.00    +0.000 C 
ATOM      5  C   UNL     1       4.460   4.139  17.186  0.00  0.00    +0.000 A 
ATOM      6  C   UNL     1       5.165   3.771  16.052  0.00  0.00    +0.000 A 
ATOM      7  C   UNL     1       5.822   4.756  15.326  0.00  0.00    +0.000 A 
ATOM      8  C   UNL     1       5.697   6.099  15.740  0.00  0.00    +0.000 A 
ATOM      9  C   UNL     1       4.906   6.476  16.853  0.00  0.00    +0.000 A 
ATOM     10  C   UNL     1       4.227   5.485  17.538  0.00  0.00    +0.000 A 
ENDROOT
BRANCH   1  14
ATOM     11  C   UNL     1       0.779  10.099  19.116  0.00  0.00    +0.000 A 
ATOM     12  C   UNL     1       1.371   9.438  18.007  0.00  0.00    +0.000 A 
ATOM     13  C   UNL     1       2.036   8.224  18.127  0.00  0.00    +0.000 A 
ATOM     14  C   UNL     1       2.153   7.615  19.371  0.00  0.00    +0.000 A 
ATOM     15  C   UNL     1       1.546   8.228  20.481  0.00  0.00    +0.000 A 
ATOM     16  C   UNL     1       0.859   9.437  20.347  0.00  0.00    +0.000 A 
BRANCH  11  18
ATOM     17  C   UNL     1      -1.157  11.378  18.313  0.00  0.00    +0.000 C 
ATOM     18  N   UNL     1       0.120  11.331  19.012  0.00  0.00    +0.000 N 
ATOM     19  C   UNL     1       1.030  12.450  18.756  0.00  0.00    +0.000 C 
ENDBRANCH  11  18
ENDBRANCH   1  14
BRANCH   7  20
ATOM     20  N   UNL     1       6.390   4.427  14.089  0.00  0.00    +0.000 N 
ATOM     21  H   UNL     1       7.406   4.448  14.075  0.00  0.00    +0.000 HD
ATOM     22  H   UNL     1       5.978   4.907  13.297  0.00  0.00    +0.000 HD
ENDBRANCH   7  20
TORSDOF 3
ENDMDL
MODEL 6
REMARK VINA RESULT:      -7.4      1.335      6.992
REMARK  Name = 
REMARK  5 active torsions:
REMARK  status: ('A' for Active; 'I' for Inactive)
REMARK    1  A    between atoms: C_1  and  N_2
REMARK    2  A    between atoms: N_2  and  C_3
REMARK    3  A    between atoms: N_2  and  C_4
REMARK    4  A    between atoms: C_7  and  C_8
REMARK    5  A    between atoms: C_14  and  N_15
REMARK                            x       y       z     vdW  Elec       q    Type
REMARK                         _______ _______ _______ _____ _____    ______ ____
ROOT
ATOM      1  C   UNL     1       2.533   7.778  17.900  0.00  0.00    +0.000 C 
ATOM      2  C   UNL     1       1.829   8.656  18.639  0.00  0.00    +0.000 C 
ATOM      3  C   UNL     1       1.235   9.749  17.871  0.00  0.00    +0.000 C 
ATOM      4  C   UNL     1       0.697  10.663  18.677  0.00  0.00    +0.000 C 
ATOM      5  C   UNL     1       0.620  10.038  19.986  0.00  0.00    +0.000 A 
ATOM      6  C   UNL     1      -0.182  10.465  21.031  0.00  0.00    +0.000 A 
ATOM      7  C   UNL     1      -0.126   9.780  22.238  0.00  0.00    +0.000 A 
ATOM      8  C   UNL     1       0.702   8.641  22.333  0.00  0.00    +0.000 A 
ATOM      9  C   UNL     1       1.456   8.163  21.233  0.00  0.00    +0.000 A 
ATOM     10  C   UNL     1       1.355   8.835  20.029  0.00  0.00    +0.000 A 
ENDROOT
BRANCH   1  14
ATOM     11  C   UNL     1       3.289   3.735  19.045  0.00  0.00    +0.000 A 
ATOM     12  C   UNL     1       4.233   4.774  19.258  0.00  0.00    +0.000 A 
ATOM     13  C   UNL     1       4.040   6.068  18.790  0.00  0.00    +0.000 A 
ATOM     14  C   UNL     1       2.892   6.384  18.072  0.00  0.00    +0.000 A 
ATOM     15  C   UNL     1       1.923   5.385  17.878  0.00  0.00    +0.000 A 
ATOM     16  C   UNL     1       2.116   4.092  18.371  0.00  0.00    +0.000 A 
BRANCH  11  18
ATOM     17  C   UNL     1       4.458   2.186  20.550  0.00  0.00    +0.000 C 
ATOM     18  N   UNL     1       3.479   2.422  19.496  0.00  0.00    +0.000 N 
ATOM     19  C   UNL     1       3.451   1.433  18.417  0.00  0.00    +0.000 C 
ENDBRANCH  11  18
ENDBRANCH   1  14
BRANCH   7  20
ATOM     20  N   UNL     1      -1.052  10.089  23.242  0.00  0.00    +0.000 N 
ATOM     21  H   UNL     1      -1.854  10.625  22.922  0.00  0.00    +0.000 HD
ATOM     22  H   UNL     1      -0.644  10.467  24.089  0.00  0.00    +0.000 HD
ENDBRANCH   7  20
TORSDOF 3
ENDMDL
MODEL 7
REMARK VINA RESULT:      -7.2      0.848      1.394
REMARK  Name = 
REMARK  5 active torsions:
REMARK  status: ('A' for Active; 'I' for Inactive)
REMARK    1  A    between atoms: C_1  and  N_2
REMARK    2  A    between atoms: N_2  and  C_3
REMARK    3  A    between atoms: N_2  and  C_4
REMARK    4  A    between atoms: C_7  and  C_8
REMARK    5  A    between atoms: C_14  and  N_15
REMARK                            x       y       z     vdW  Elec       q    Type
REMARK                         _______ _______ _______ _____ _____    ______ ____
ROOT
ATOM      1  C   UNL     1       3.292   7.732  17.501  0.00  0.00    +0.000 C 
ATOM      2  C   UNL     1       3.507   6.408  17.389  0.00  0.00    +0.000 C 
ATOM      3  C   UNL     1       4.780   6.055  16.764  0.00  0.00    +0.000 C 
ATOM      4  C   UNL     1       4.854   4.745  16.536  0.00  0.00    +0.000 C 
ATOM      5  C   UNL     1       3.778   4.148  17.307  0.00  0.00    +0.000 A 
ATOM      6  C   UNL     1       3.690   2.812  17.660  0.00  0.00    +0.000 A 
ATOM      7  C   UNL     1       2.582   2.383  18.378  0.00  0.00    +0.000 A 
ATOM      8  C   UNL     1       1.618   3.335  18.771  0.00  0.00    +0.000 A 
ATOM      9  C   UNL     1       1.758   4.714  18.478  0.00  0.00    +0.000 A 
ATOM     10  C   UNL     1       2.888   5.127  17.797  0.00  0.00    +0.000 A 
ENDROOT
BRANCH   1  14
ATOM     11  C   UNL     1       0.379   9.723  19.905  0.00  0.00    +0.000 A 
ATOM     12  C   UNL     1       0.719  10.167  18.600  0.00  0.00    +0.000 A 
ATOM     13  C   UNL     1       1.742   9.591  17.857  0.00  0.00    +0.000 A 
ATOM     14  C   UNL     1       2.487   8.546  18.390  0.00  0.00    +0.000 A 
ATOM     15  C   UNL     1       2.149   8.060  19.666  0.00  0.00    +0.000 A 
ATOM     16  C   UNL     1       1.104   8.631  20.397  0.00  0.00    +0.000 A 
BRANCH  11  18
ATOM     17  C   UNL     1      -1.232  11.551  20.205  0.00  0.00    +0.000 C 
ATOM     18  N   UNL     1      -0.638  10.305  20.673  0.00  0.00    +0.000 N 
ATOM     19  C   UNL     1      -0.396  10.214  22.114  0.00  0.00    +0.000 C 
ENDBRANCH  11  18
ENDBRANCH   1  14
BRANCH   7  20
ATOM     20  N   UNL     1       2.564   1.078  18.889  0.00  0.00    +0.000 N 
ATOM     21  H   UNL     1       1.633   0.688  19.009  0.00  0.00    +0.000 HD
ATOM     22  H   UNL     1       3.153   0.937  19.701  0.00  0.00    +0.000 HD
ENDBRANCH   7  20
TORSDOF 3
ENDMDL
MODEL 8
REMARK VINA RESULT:      -7.2      1.004      1.468
REMARK  Name = 
REMARK  5 active torsions:
REMARK  status: ('A' for Active; 'I' for Inactive)
REMARK    1  A    between atoms: C_1  and  N_2
REMARK    2  A    between atoms: N_2  and  C_3
REMARK    3  A    between atoms: N_2  and  C_4
REMARK    4  A    between atoms: C_7  and  C_8
REMARK    5  A    between atoms: C_14  and  N_15
REMARK                            x       y       z     vdW  Elec       q    Type
REMARK                         _______ _______ _______ _____ _____    ______ ____
ROOT
ATOM      1  C   UNL     1       2.698   8.031  17.883  0.00  0.00    +0.000 C 
ATOM      2  C   UNL     1       3.312   6.836  17.802  0.00  0.00    +0.000 C 
ATOM      3  C   UNL     1       4.317   6.746  16.744  0.00  0.00    +0.000 C 
ATOM      4  C   UNL     1       4.763   5.497  16.614  0.00  0.00    +0.000 C 
ATOM      5  C   UNL     1       4.316   4.792  17.802  0.00  0.00    +0.000 A 
ATOM      6  C   UNL     1       4.838   3.597  18.268  0.00  0.00    +0.000 A 
ATOM      7  C   UNL     1       4.286   3.027  19.408  0.00  0.00    +0.000 A 
ATOM      8  C   UNL     1       3.255   3.717  20.079  0.00  0.00    +0.000 A 
ATOM      9  C   UNL     1       2.784   4.980  19.643  0.00  0.00    +0.000 A 
ATOM     10  C   UNL     1       3.374   5.549  18.530  0.00  0.00    +0.000 A 
ENDROOT
BRANCH   1  14
ATOM     11  C   UNL     1       0.148   9.780  20.828  0.00  0.00    +0.000 A 
ATOM     12  C   UNL     1       0.377  10.386  19.564  0.00  0.00    +0.000 A 
ATOM     13  C   UNL     1       1.289   9.880  18.646  0.00  0.00    +0.000 A 
ATOM     14  C   UNL     1       2.029   8.745  18.953  0.00  0.00    +0.000 A 
ATOM     15  C   UNL     1       1.797   8.102  20.182  0.00  0.00    +0.000 A 
ATOM     16  C   UNL     1       0.862   8.605  21.090  0.00  0.00    +0.000 A 
BRANCH  11  18
ATOM     17  C   UNL     1      -1.172  11.681  21.649  0.00  0.00    +0.000 C 
ATOM     18  N   UNL     1      -0.755  10.290  21.770  0.00  0.00    +0.000 N 
ATOM     19  C   UNL     1      -0.496   9.816  23.131  0.00  0.00    +0.000 C 
ENDBRANCH  11  18
ENDBRANCH   1  14
BRANCH   7  20
ATOM     20  N   UNL     1       4.913   1.916  19.987  0.00  0.00    +0.000 N 
ATOM     21  H   UNL     1       4.402   1.504  20.764  0.00  0.00    +0.000 HD
ATOM     22  H   UNL     1       5.896   2.047  20.192  0.00  0.00    +0.000 HD
ENDBRANCH   7  20
TORSDOF 3
ENDMDL
MODEL 9
REMARK VINA RESULT:      -7.1      1.472      7.324
REMARK  Name = 
REMARK  5 active torsions:
REMARK  status: ('A' for Active; 'I' for Inactive)
REMARK    1  A    between atoms: C_1  and  N_2
REMARK    2  A    between atoms: N_2  and  C_3
REMARK    3  A    between atoms: N_2  and  C_4
REMARK    4  A    between atoms: C_7  and  C_8
REMARK    5  A    between atoms: C_14  and  N_15
REMARK                            x       y       z     vdW  Elec       q    Type
REMARK                         _______ _______ _______ _____ _____    ______ ____
ROOT
ATOM      1  C   UNL     1       2.237   7.841  18.509  0.00  0.00    +0.000 C 
ATOM      2  C   UNL     1       1.627   8.883  19.105  0.00  0.00    +0.000 C 
ATOM      3  C   UNL     1       1.387  10.024  18.224  0.00  0.00    +0.000 C 
ATOM      4  C   UNL     1       0.934  11.072  18.911  0.00  0.00    +0.000 C 
ATOM      5  C   UNL     1       0.542  10.552  20.209  0.00  0.00    +0.000 A 
ATOM      6  C   UNL     1      -0.300  11.189  21.106  0.00  0.00    +0.000 A 
ATOM      7  C   UNL     1      -0.562  10.578  22.325  0.00  0.00    +0.000 A 
ATOM      8  C   UNL     1      -0.006   9.306  22.579  0.00  0.00    +0.000 A 
ATOM      9  C   UNL     1       0.787   8.625  21.623  0.00  0.00    +0.000 A 
ATOM     10  C   UNL     1       1.001   9.232  20.399  0.00  0.00    +0.000 A 
ENDROOT
BRANCH   1  14
ATOM     11  C   UNL     1       3.053   3.710  19.214  0.00  0.00    +0.000 A 
ATOM     12  C   UNL     1       2.754   4.216  17.921  0.00  0.00    +0.000 A 
ATOM     13  C   UNL     1       2.380   5.536  17.702  0.00  0.00    +0.000 A 
ATOM     14  C   UNL     1       2.276   6.416  18.773  0.00  0.00    +0.000 A 
ATOM     15  C   UNL     1       2.601   5.953  20.060  0.00  0.00    +0.000 A 
ATOM     16  C   UNL     1       2.998   4.630  20.267  0.00  0.00    +0.000 A 
BRANCH  11  18
ATOM     17  C   UNL     1       4.480   2.107  20.407  0.00  0.00    +0.000 C 
ATOM     18  N   UNL     1       3.414   2.377  19.451  0.00  0.00    +0.000 N 
ATOM     19  C   UNL     1       3.421   1.558  18.237  0.00  0.00    +0.000 C 
ENDBRANCH  11  18
ENDBRANCH   1  14
BRANCH   7  20
ATOM     20  N   UNL     1      -1.542  11.123  23.165  0.00  0.00    +0.000 N 
ATOM     21  H   UNL     1      -1.329  12.055  23.508  0.00  0.00    +0.000 HD
ATOM     22  H   UNL     1      -1.860  10.500  23.898  0.00  0.00    +0.000 HD
ENDBRANCH   7  20
TORSDOF 3
ENDMDL
