MODEL 1
REMARK VINA RESULT:      -8.5      0.000      0.000
REMARK  Name = 
REMARK  5 active torsions:
REMARK  status: ('A' for Active; 'I' for Inactive)
REMARK    1  A    between atoms: C_1  and  C_2
REMARK    2  A    between atoms: C_5  and  S_6
REMARK    3  A    between atoms: S_6  and  N_9
REMARK    4  A    between atoms: C_14  and  C_15
REMARK    5  A    between atoms: C_23  and  C_25
REMARK                            x       y       z     vdW  Elec       q    Type
REMARK                         _______ _______ _______ _____ _____    ______ ____
ROOT
ATOM      1  N   UNL     1       0.972  10.160  20.161  0.00  0.00    +0.000 NA
ATOM      2  C   UNL     1       1.535  11.453  20.633  0.00  0.00    +0.000 C 
ATOM      3  C   UNL     1       0.526  12.121  21.569  0.00  0.00    +0.000 C 
ATOM      4  C   UNL     1      -0.817  12.059  20.910  0.00  0.00    +0.000 A 
ATOM      5  C   UNL     1      -1.127  11.314  19.791  0.00  0.00    +0.000 A 
ATOM      6  C   UNL     1      -2.386  11.830  19.369  0.00  0.00    +0.000 A 
ATOM      7  N   UNL     1      -2.895  12.653  20.327  0.00  0.00    +0.000 NA
ATOM      8  N   UNL     1      -1.977  12.651  21.347  0.00  0.00    +0.000 N 
ATOM      9  C   UNL     1      -2.167  13.168  22.657  0.00  0.00    +0.000 C 
ATOM     10  O   UNL     1      -1.234  13.032  23.452  0.00  0.00    +0.000 OA
ATOM     11  C   UNL     1      -0.156  10.342  19.203  0.00  0.00    +0.000 C 
ENDROOT
BRANCH   6  12
ATOM     12  C   UNL     1      -3.027  11.642  18.040  0.00  0.00    +0.000 A 
ATOM     13  C   UNL     1      -4.420  11.686  17.858  0.00  0.00    +0.000 A 
ATOM     14  C   UNL     1      -5.021  11.328  16.644  0.00  0.00    +0.000 A 
ATOM     15  C   UNL     1      -4.229  10.951  15.559  0.00  0.00    +0.000 A 
ATOM     16  C   UNL     1      -2.849  10.948  15.699  0.00  0.00    +0.000 A 
ATOM     17  C   UNL     1      -2.250  11.290  16.926  0.00  0.00    +0.000 A 
ENDBRANCH   6  12
BRANCH   9  18
ATOM     18  C   UNL     1      -3.399  13.992  23.007  0.00  0.00    +0.000 C 
ATOM     19  C   UNL     1      -4.683  13.787  22.201  0.00  0.00    +0.000 C 
ATOM     20  C   UNL     1      -5.738  12.804  22.721  0.00  0.00    +0.000 C 
ATOM     21  C   UNL     1      -5.737  12.437  24.200  0.00  0.00    +0.000 C 
ATOM     22  C   UNL     1      -4.389  12.549  24.880  0.00  0.00    +0.000 C 
ATOM     23  C   UNL     1      -3.689  13.856  24.524  0.00  0.00    +0.000 C 
ENDBRANCH   9  18
BRANCH   1  24
ATOM     24  S   UNL     1       0.980   8.838  21.220  0.00  0.00    +0.000 S 
ATOM     25  O   UNL     1      -0.411   8.505  21.462  0.00  0.00    +0.000 OA
ATOM     26  O   UNL     1       1.845   9.184  22.321  0.00  0.00    +0.000 OA
BRANCH  24  31
ATOM     27  C   UNL     1       2.338   3.911  17.938  0.00  0.00    +0.000 C 
ATOM     28  C   UNL     1       2.265   5.092  18.871  0.00  0.00    +0.000 A 
ATOM     29  C   UNL     1       1.749   4.958  20.168  0.00  0.00    +0.000 A 
ATOM     30  C   UNL     1       1.461   6.092  20.950  0.00  0.00    +0.000 A 
ATOM     31  C   UNL     1       1.721   7.375  20.454  0.00  0.00    +0.000 A 
ATOM     32  C   UNL     1       2.318   7.504  19.189  0.00  0.00    +0.000 A 
ATOM     33  C   UNL     1       2.583   6.370  18.403  0.00  0.00    +0.000 A 
ENDBRANCH  24  31
ENDBRANCH   1  24
TORSDOF 4
ENDMDL
MODEL 2
REMARK VINA RESULT:      -8.5      0.903      1.489
REMARK  Name = 
REMARK  5 active torsions:
REMARK  status: ('A' for Active; 'I' for Inactive)
REMARK    1  A    between atoms: C_1  and  C_2
REMARK    2  A    between atoms: C_5  and  S_6
REMARK    3  A    between atoms: S_6  and  N_9
REMARK    4  A    between atoms: C_14  and  C_15
REMARK    5  A    between atoms: C_23  and  C_25
REMARK                            x       y       z     vdW  Elec       q    Type
REMARK                         _______ _______ _______ _____ _____    ______ ____
ROOT
ATOM      1  N   UNL     1       1.004  10.109  20.040  0.00  0.00    +0.000 NA
ATOM      2  C   UNL     1       1.367  11.468  20.521  0.00  0.00    +0.000 C 
ATOM      3  C   UNL     1       0.188  12.047  21.305  0.00  0.00    +0.000 C 
ATOM      4  C   UNL     1      -1.051  11.821  20.497  0.00  0.00    +0.000 A 
ATOM      5  C   UNL     1      -1.144  11.016  19.380  0.00  0.00    +0.000 A 
ATOM      6  C   UNL     1      -2.391  11.380  18.794  0.00  0.00    +0.000 A 
ATOM      7  N   UNL     1      -3.095  12.168  19.651  0.00  0.00    +0.000 NA
ATOM      8  N   UNL     1      -2.311  12.295  20.770  0.00  0.00    +0.000 N 
ATOM      9  C   UNL     1      -2.711  12.825  22.028  0.00  0.00    +0.000 C 
ATOM     10  O   UNL     1      -1.872  12.813  22.931  0.00  0.00    +0.000 OA
ATOM     11  C   UNL     1      -0.013  10.139  18.950  0.00  0.00    +0.000 C 
ENDROOT
BRANCH   6  12
ATOM     12  C   UNL     1      -2.844  11.085  17.407  0.00  0.00    +0.000 A 
ATOM     13  C   UNL     1      -4.023  11.625  16.865  0.00  0.00    +0.000 A 
ATOM     14  C   UNL     1      -4.534  11.200  15.631  0.00  0.00    +0.000 A 
ATOM     15  C   UNL     1      -3.846  10.243  14.886  0.00  0.00    +0.000 A 
ATOM     16  C   UNL     1      -2.654   9.732  15.376  0.00  0.00    +0.000 A 
ATOM     17  C   UNL     1      -2.153  10.148  16.624  0.00  0.00    +0.000 A 
ENDBRANCH   6  12
BRANCH   9  18
ATOM     18  C   UNL     1      -4.056  13.519  22.197  0.00  0.00    +0.000 C 
ATOM     19  C   UNL     1      -4.625  13.704  23.606  0.00  0.00    +0.000 C 
ATOM     20  C   UNL     1      -4.353  15.015  24.351  0.00  0.00    +0.000 C 
ATOM     21  C   UNL     1      -3.973  16.253  23.549  0.00  0.00    +0.000 C 
ATOM     22  C   UNL     1      -3.298  15.968  22.223  0.00  0.00    +0.000 C 
ATOM     23  C   UNL     1      -4.026  14.876  21.447  0.00  0.00    +0.000 C 
ENDBRANCH   9  18
BRANCH   1  24
ATOM     24  S   UNL     1       1.023   8.826  21.145  0.00  0.00    +0.000 S 
ATOM     25  O   UNL     1      -0.365   8.488  21.398  0.00  0.00    +0.000 OA
ATOM     26  O   UNL     1       1.884   9.218  22.234  0.00  0.00    +0.000 OA
BRANCH  24  31
ATOM     27  C   UNL     1       2.449   3.823  18.010  0.00  0.00    +0.000 C 
ATOM     28  C   UNL     1       2.355   5.023  18.915  0.00  0.00    +0.000 A 
ATOM     29  C   UNL     1       1.802   4.920  20.199  0.00  0.00    +0.000 A 
ATOM     30  C   UNL     1       1.498   6.072  20.948  0.00  0.00    +0.000 A 
ATOM     31  C   UNL     1       1.778   7.342  20.433  0.00  0.00    +0.000 A 
ATOM     32  C   UNL     1       2.411   7.442  19.182  0.00  0.00    +0.000 A 
ATOM     33  C   UNL     1       2.694   6.290  18.429  0.00  0.00    +0.000 A 
ENDBRANCH  24  31
ENDBRANCH   1  24
TORSDOF 4
ENDMDL
MODEL 3
REMARK VINA RESULT:      -8.1      8.315      9.951
REMARK  Name = 
REMARK  5 active torsions:
REMARK  status: ('A' for Active; 'I' for Inactive)
REMARK    1  A    between atoms: C_1  and  C_2
REMARK    2  A    between atoms: C_5  and  S_6
REMARK    3  A    between atoms: S_6  and  N_9
REMARK    4  A    between atoms: C_14  and  C_15
REMARK    5  A    between atoms: C_23  and  C_25
REMARK                            x       y       z     vdW  Elec       q    Type
REMARK                         _______ _______ _______ _____ _____    ______ ____
ROOT
ATOM      1  N   UNL     1       9.765  15.349  19.427  0.00  0.00    +0.000 NA
ATOM      2  C   UNL     1      10.062  15.894  20.778  0.00  0.00    +0.000 C 
ATOM      3  C   UNL     1       9.432  14.978  21.831  0.00  0.00    +0.000 C 
ATOM      4  C   UNL     1       8.025  14.696  21.404  0.00  0.00    +0.000 A 
ATOM      5  C   UNL     1       7.486  14.995  20.169  0.00  0.00    +0.000 A 
ATOM      6  C   UNL     1       6.082  14.846  20.359  0.00  0.00    +0.000 A 
ATOM      7  N   UNL     1       5.836  14.254  21.560  0.00  0.00    +0.000 NA
ATOM      8  N   UNL     1       7.067  14.022  22.121  0.00  0.00    +0.000 N 
ATOM      9  C   UNL     1       7.339  13.215  23.259  0.00  0.00    +0.000 C 
ATOM     10  O   UNL     1       8.522  13.090  23.585  0.00  0.00    +0.000 OA
ATOM     11  C   UNL     1       8.332  15.505  19.048  0.00  0.00    +0.000 C 
ENDROOT
BRANCH   6  12
ATOM     12  C   UNL     1       5.003  15.364  19.476  0.00  0.00    +0.000 A 
ATOM     13  C   UNL     1       4.833  14.927  18.151  0.00  0.00    +0.000 A 
ATOM     14  C   UNL     1       3.935  15.550  17.274  0.00  0.00    +0.000 A 
ATOM     15  C   UNL     1       3.148  16.610  17.721  0.00  0.00    +0.000 A 
ATOM     16  C   UNL     1       3.260  17.027  19.039  0.00  0.00    +0.000 A 
ATOM     17  C   UNL     1       4.177  16.412  19.912  0.00  0.00    +0.000 A 
ENDBRANCH   6  12
BRANCH   9  18
ATOM     18  C   UNL     1       6.211  12.667  24.124  0.00  0.00    +0.000 C 
ATOM     19  C   UNL     1       6.447  11.389  24.932  0.00  0.00    +0.000 C 
ATOM     20  C   UNL     1       6.912  11.506  26.388  0.00  0.00    +0.000 C 
ATOM     21  C   UNL     1       6.666  12.809  27.138  0.00  0.00    +0.000 C 
ATOM     22  C   UNL     1       6.575  14.039  26.259  0.00  0.00    +0.000 C 
ATOM     23  C   UNL     1       5.683  13.796  25.046  0.00  0.00    +0.000 C 
ENDBRANCH   9  18
BRANCH   1  24
ATOM     24  S   UNL     1      10.645  14.009  18.883  0.00  0.00    +0.000 S 
ATOM     25  O   UNL     1      11.677  13.771  19.874  0.00  0.00    +0.000 OA
ATOM     26  O   UNL     1      11.005  14.268  17.510  0.00  0.00    +0.000 OA
BRANCH  24  31
ATOM     27  C   UNL     1       8.248   8.489  18.061  0.00  0.00    +0.000 C 
ATOM     28  C   UNL     1       8.599   9.910  18.417  0.00  0.00    +0.000 A 
ATOM     29  C   UNL     1       8.215  10.977  17.594  0.00  0.00    +0.000 A 
ATOM     30  C   UNL     1       8.739  12.268  17.794  0.00  0.00    +0.000 A 
ATOM     31  C   UNL     1       9.627  12.512  18.848  0.00  0.00    +0.000 A 
ATOM     32  C   UNL     1       9.943  11.460  19.725  0.00  0.00    +0.000 A 
ATOM     33  C   UNL     1       9.435  10.169  19.508  0.00  0.00    +0.000 A 
ENDBRANCH  24  31
ENDBRANCH   1  24
TORSDOF 4
ENDMDL
MODEL 4
REMARK VINA RESULT:      -8.1      1.756      2.645
REMARK  Name = 
REMARK  5 active torsions:
REMARK  status: ('A' for Active; 'I' for Inactive)
REMARK    1  A    between atoms: C_1  and  C_2
REMARK    2  A    between atoms: C_5  and  S_6
REMARK    3  A    between atoms: S_6  and  N_9
REMARK    4  A    between atoms: C_14  and  C_15
REMARK    5  A    between atoms: C_23  and  C_25
REMARK                            x       y       z     vdW  Elec       q    Type
REMARK                         _______ _______ _______ _____ _____    ______ ____
ROOT
ATOM      1  N   UNL     1       0.309  10.494  19.747  0.00  0.00    +0.000 NA
ATOM      2  C   UNL     1       1.097  11.753  19.699  0.00  0.00    +0.000 C 
ATOM      3  C   UNL     1       0.658  12.657  20.853  0.00  0.00    +0.000 C 
ATOM      4  C   UNL     1      -0.839  12.683  20.867  0.00  0.00    +0.000 A 
ATOM      5  C   UNL     1      -1.662  11.848  20.139  0.00  0.00    +0.000 A 
ATOM      6  C   UNL     1      -2.944  12.462  20.228  0.00  0.00    +0.000 A 
ATOM      7  N   UNL     1      -2.920  13.457  21.157  0.00  0.00    +0.000 NA
ATOM      8  N   UNL     1      -1.642  13.468  21.658  0.00  0.00    +0.000 N 
ATOM      9  C   UNL     1      -1.191  14.166  22.811  0.00  0.00    +0.000 C 
ATOM     10  O   UNL     1      -0.011  14.013  23.131  0.00  0.00    +0.000 OA
ATOM     11  C   UNL     1      -1.117  10.694  19.361  0.00  0.00    +0.000 C 
ENDROOT
BRANCH   6  12
ATOM     12  C   UNL     1      -4.125  12.190  19.364  0.00  0.00    +0.000 A 
ATOM     13  C   UNL     1      -4.008  11.705  18.051  0.00  0.00    +0.000 A 
ATOM     14  C   UNL     1      -5.109  11.626  17.188  0.00  0.00    +0.000 A 
ATOM     15  C   UNL     1      -6.375  11.999  17.639  0.00  0.00    +0.000 A 
ATOM     16  C   UNL     1      -6.525  12.434  18.947  0.00  0.00    +0.000 A 
ATOM     17  C   UNL     1      -5.413  12.529  19.805  0.00  0.00    +0.000 A 
ENDBRANCH   6  12
BRANCH   9  18
ATOM     18  C   UNL     1      -2.085  15.177  23.518  0.00  0.00    +0.000 C 
ATOM     19  C   UNL     1      -2.384  14.991  25.007  0.00  0.00    +0.000 C 
ATOM     20  C   UNL     1      -1.505  15.711  26.037  0.00  0.00    +0.000 C 
ATOM     21  C   UNL     1      -0.708  16.933  25.599  0.00  0.00    +0.000 C 
ATOM     22  C   UNL     1      -0.349  16.962  24.127  0.00  0.00    +0.000 C 
ATOM     23  C   UNL     1      -1.545  16.606  23.252  0.00  0.00    +0.000 C 
ENDBRANCH   9  18
BRANCH   1  24
ATOM     24  S   UNL     1       0.717   9.325  20.903  0.00  0.00    +0.000 S 
ATOM     25  O   UNL     1      -0.534   8.747  21.354  0.00  0.00    +0.000 OA
ATOM     26  O   UNL     1       1.606   9.958  21.847  0.00  0.00    +0.000 OA
BRANCH  24  31
ATOM     27  C   UNL     1       2.751   4.509  17.811  0.00  0.00    +0.000 C 
ATOM     28  C   UNL     1       2.519   5.716  18.682  0.00  0.00    +0.000 A 
ATOM     29  C   UNL     1       2.102   5.578  20.013  0.00  0.00    +0.000 A 
ATOM     30  C   UNL     1       1.659   6.691  20.751  0.00  0.00    +0.000 A 
ATOM     31  C   UNL     1       1.664   7.966  20.172  0.00  0.00    +0.000 A 
ATOM     32  C   UNL     1       2.164   8.117  18.868  0.00  0.00    +0.000 A 
ATOM     33  C   UNL     1       2.584   6.998  18.128  0.00  0.00    +0.000 A 
ENDBRANCH  24  31
ENDBRANCH   1  24
TORSDOF 4
ENDMDL
MODEL 5
REMARK VINA RESULT:      -8.0      7.821     12.271
REMARK  Name = 
REMARK  5 active torsions:
REMARK  status: ('A' for Active; 'I' for Inactive)
REMARK    1  A    between atoms: C_1  and  C_2
REMARK    2  A    between atoms: C_5  and  S_6
REMARK    3  A    between atoms: S_6  and  N_9
REMARK    4  A    between atoms: C_14  and  C_15
REMARK    5  A    between atoms: C_23  and  C_25
REMARK                            x       y       z     vdW  Elec       q    Type
REMARK                         _______ _______ _______ _____ _____    ______ ____
ROOT
ATOM      1  N   UNL     1       4.668  15.731  21.196  0.00  0.00    +0.000 NA
ATOM      2  C   UNL     1       5.669  16.722  20.719  0.00  0.00    +0.000 C 
ATOM      3  C   UNL     1       6.745  15.991  19.913  0.00  0.00    +0.000 C 
ATOM      4  C   UNL     1       7.164  14.788  20.700  0.00  0.00    +0.000 A 
ATOM      5  C   UNL     1       6.519  14.296  21.817  0.00  0.00    +0.000 A 
ATOM      6  C   UNL     1       7.454  13.381  22.381  0.00  0.00    +0.000 A 
ATOM      7  N   UNL     1       8.478  13.166  21.510  0.00  0.00    +0.000 NA
ATOM      8  N   UNL     1       8.193  13.928  20.404  0.00  0.00    +0.000 N 
ATOM      9  C   UNL     1       8.838  13.857  19.139  0.00  0.00    +0.000 C 
ATOM     10  O   UNL     1       8.407  14.595  18.250  0.00  0.00    +0.000 OA
ATOM     11  C   UNL     1       5.205  14.845  22.268  0.00  0.00    +0.000 C 
ENDROOT
BRANCH   6  12
ATOM     12  C   UNL     1       7.434  12.822  23.759  0.00  0.00    +0.000 A 
ATOM     13  C   UNL     1       6.598  11.755  24.132  0.00  0.00    +0.000 A 
ATOM     14  C   UNL     1       6.453  11.359  25.468  0.00  0.00    +0.000 A 
ATOM     15  C   UNL     1       7.182  12.003  26.468  0.00  0.00    +0.000 A 
ATOM     16  C   UNL     1       8.052  13.025  26.120  0.00  0.00    +0.000 A 
ATOM     17  C   UNL     1       8.180  13.433  24.778  0.00  0.00    +0.000 A 
ENDBRANCH   6  12
BRANCH   9  18
ATOM     18  C   UNL     1      10.101  13.029  18.945  0.00  0.00    +0.000 C 
ATOM     19  C   UNL     1      10.454  12.529  17.542  0.00  0.00    +0.000 C 
ATOM     20  C   UNL     1      11.398  13.364  16.671  0.00  0.00    +0.000 C 
ATOM     21  C   UNL     1      12.328  14.367  17.343  0.00  0.00    +0.000 C 
ATOM     22  C   UNL     1      11.829  14.903  18.670  0.00  0.00    +0.000 C 
ATOM     23  C   UNL     1      11.305  13.785  19.564  0.00  0.00    +0.000 C 
ENDBRANCH   9  18
BRANCH   1  24
ATOM     24  S   UNL     1       3.530  15.133  20.093  0.00  0.00    +0.000 S 
ATOM     25  O   UNL     1       2.403  14.675  20.883  0.00  0.00    +0.000 OA
ATOM     26  O   UNL     1       4.225  14.218  19.222  0.00  0.00    +0.000 OA
BRANCH  24  31
ATOM     27  C   UNL     1       0.436  18.629  16.207  0.00  0.00    +0.000 C 
ATOM     28  C   UNL     1       1.376  17.996  17.199  0.00  0.00    +0.000 A 
ATOM     29  C   UNL     1       2.518  17.303  16.773  0.00  0.00    +0.000 A 
ATOM     30  C   UNL     1       3.262  16.516  17.671  0.00  0.00    +0.000 A 
ATOM     31  C   UNL     1       2.890  16.443  19.019  0.00  0.00    +0.000 A 
ATOM     32  C   UNL     1       1.797  17.206  19.462  0.00  0.00    +0.000 A 
ATOM     33  C   UNL     1       1.044  17.973  18.557  0.00  0.00    +0.000 A 
ENDBRANCH  24  31
ENDBRANCH   1  24
TORSDOF 4
ENDMDL
MODEL 6
REMARK VINA RESULT:      -8.0      2.075      3.078
REMARK  Name = 
REMARK  5 active torsions:
REMARK  status: ('A' for Active; 'I' for Inactive)
REMARK    1  A    between atoms: C_1  and  C_2
REMARK    2  A    between atoms: C_5  and  S_6
REMARK    3  A    between atoms: S_6  and  N_9
REMARK    4  A    between atoms: C_14  and  C_15
REMARK    5  A    between atoms: C_23  and  C_25
REMARK                            x       y       z     vdW  Elec       q    Type
REMARK                         _______ _______ _______ _____ _____    ______ ____
ROOT
ATOM      1  N   UNL     1      -0.132  11.354  19.628  0.00  0.00    +0.000 NA
ATOM      2  C   UNL     1       0.465  12.715  19.676  0.00  0.00    +0.000 C 
ATOM      3  C   UNL     1       0.031  13.401  20.974  0.00  0.00    +0.000 C 
ATOM      4  C   UNL     1      -1.446  13.200  21.122  0.00  0.00    +0.000 A 
ATOM      5  C   UNL     1      -2.218  12.342  20.366  0.00  0.00    +0.000 A 
ATOM      6  C   UNL     1      -3.556  12.742  20.648  0.00  0.00    +0.000 A 
ATOM      7  N   UNL     1      -3.571  13.613  21.694  0.00  0.00    +0.000 NA
ATOM      8  N   UNL     1      -2.261  13.757  22.077  0.00  0.00    +0.000 N 
ATOM      9  C   UNL     1      -1.790  14.375  23.268  0.00  0.00    +0.000 C 
ATOM     10  O   UNL     1      -0.573  14.366  23.459  0.00  0.00    +0.000 OA
ATOM     11  C   UNL     1      -1.605  11.382  19.399  0.00  0.00    +0.000 C 
ENDROOT
BRANCH   6  12
ATOM     12  C   UNL     1      -4.773  12.399  19.864  0.00  0.00    +0.000 A 
ATOM     13  C   UNL     1      -6.044  12.277  20.452  0.00  0.00    +0.000 A 
ATOM     14  C   UNL     1      -7.145  11.778  19.744  0.00  0.00    +0.000 A 
ATOM     15  C   UNL     1      -7.005  11.421  18.403  0.00  0.00    +0.000 A 
ATOM     16  C   UNL     1      -5.774  11.579  17.785  0.00  0.00    +0.000 A 
ATOM     17  C   UNL     1      -4.666  12.064  18.506  0.00  0.00    +0.000 A 
ENDBRANCH   6  12
BRANCH   9  18
ATOM     18  C   UNL     1      -2.735  15.151  24.177  0.00  0.00    +0.000 C 
ATOM     19  C   UNL     1      -2.376  15.314  25.656  0.00  0.00    +0.000 C 
ATOM     20  C   UNL     1      -1.622  16.571  26.103  0.00  0.00    +0.000 C 
ATOM     21  C   UNL     1      -1.674  17.814  25.223  0.00  0.00    +0.000 C 
ATOM     22  C   UNL     1      -1.907  17.540  23.752  0.00  0.00    +0.000 C 
ATOM     23  C   UNL     1      -3.033  16.533  23.541  0.00  0.00    +0.000 C 
ENDBRANCH   9  18
BRANCH   1  24
ATOM     24  S   UNL     1       0.554  10.134  20.580  0.00  0.00    +0.000 S 
ATOM     25  O   UNL     1      -0.545   9.508  21.290  0.00  0.00    +0.000 OA
ATOM     26  O   UNL     1       1.644  10.731  21.312  0.00  0.00    +0.000 OA
BRANCH  24  31
ATOM     27  C   UNL     1       4.206   6.293  17.612  0.00  0.00    +0.000 C 
ATOM     28  C   UNL     1       3.085   7.090  18.227  0.00  0.00    +0.000 A 
ATOM     29  C   UNL     1       2.541   8.201  17.568  0.00  0.00    +0.000 A 
ATOM     30  C   UNL     1       1.668   9.080  18.236  0.00  0.00    +0.000 A 
ATOM     31  C   UNL     1       1.300   8.834  19.564  0.00  0.00    +0.000 A 
ATOM     32  C   UNL     1       1.778   7.674  20.196  0.00  0.00    +0.000 A 
ATOM     33  C   UNL     1       2.666   6.811  19.532  0.00  0.00    +0.000 A 
ENDBRANCH  24  31
ENDBRANCH   1  24
TORSDOF 4
ENDMDL
MODEL 7
REMARK VINA RESULT:      -7.9      2.622      6.413
REMARK  Name = 
REMARK  5 active torsions:
REMARK  status: ('A' for Active; 'I' for Inactive)
REMARK    1  A    between atoms: C_1  and  C_2
REMARK    2  A    between atoms: C_5  and  S_6
REMARK    3  A    between atoms: S_6  and  N_9
REMARK    4  A    between atoms: C_14  and  C_15
REMARK    5  A    between atoms: C_23  and  C_25
REMARK                            x       y       z     vdW  Elec       q    Type
REMARK                         _______ _______ _______ _____ _____    ______ ____
ROOT
ATOM      1  N   UNL     1       1.260  14.341  20.007  0.00  0.00    +0.000 NA
ATOM      2  C   UNL     1       0.413  14.939  18.942  0.00  0.00    +0.000 C 
ATOM      3  C   UNL     1      -1.031  14.470  19.136  0.00  0.00    +0.000 C 
ATOM      4  C   UNL     1      -1.003  12.991  19.360  0.00  0.00    +0.000 A 
ATOM      5  C   UNL     1       0.128  12.238  19.601  0.00  0.00    +0.000 A 
ATOM      6  C   UNL     1      -0.306  10.893  19.418  0.00  0.00    +0.000 A 
ATOM      7  N   UNL     1      -1.663  10.851  19.322  0.00  0.00    +0.000 NA
ATOM      8  N   UNL     1      -2.086  12.150  19.452  0.00  0.00    +0.000 N 
ATOM      9  C   UNL     1      -3.423  12.589  19.654  0.00  0.00    +0.000 C 
ATOM     10  O   UNL     1      -3.599  13.801  19.795  0.00  0.00    +0.000 OA
ATOM     11  C   UNL     1       1.461  12.875  19.825  0.00  0.00    +0.000 C 
ENDROOT
BRANCH   6  12
ATOM     12  C   UNL     1       0.557   9.697  19.218  0.00  0.00    +0.000 A 
ATOM     13  C   UNL     1       0.942   8.855  20.275  0.00  0.00    +0.000 A 
ATOM     14  C   UNL     1       1.897   7.843  20.107  0.00  0.00    +0.000 A 
ATOM     15  C   UNL     1       2.466   7.624  18.853  0.00  0.00    +0.000 A 
ATOM     16  C   UNL     1       2.065   8.410  17.782  0.00  0.00    +0.000 A 
ATOM     17  C   UNL     1       1.119   9.437  17.959  0.00  0.00    +0.000 A 
ENDBRANCH   6  12
BRANCH   9  18
ATOM     18  C   UNL     1      -4.594  11.621  19.540  0.00  0.00    +0.000 C 
ATOM     19  C   UNL     1      -5.950  12.024  20.123  0.00  0.00    +0.000 C 
ATOM     20  C   UNL     1      -6.984  12.690  19.208  0.00  0.00    +0.000 C 
ATOM     21  C   UNL     1      -6.864  12.503  17.701  0.00  0.00    +0.000 C 
ATOM     22  C   UNL     1      -5.458  12.235  17.205  0.00  0.00    +0.000 C 
ATOM     23  C   UNL     1      -4.753  11.187  18.059  0.00  0.00    +0.000 C 
ENDBRANCH   9  18
BRANCH   1  24
ATOM     24  S   UNL     1       1.186  14.999  21.566  0.00  0.00    +0.000 S 
ATOM     25  O   UNL     1       1.045  16.433  21.394  0.00  0.00    +0.000 OA
ATOM     26  O   UNL     1       2.304  14.464  22.305  0.00  0.00    +0.000 OA
BRANCH  24  31
ATOM     27  C   UNL     1      -4.203  12.816  23.320  0.00  0.00    +0.000 C 
ATOM     28  C   UNL     1      -2.825  13.405  23.171  0.00  0.00    +0.000 A 
ATOM     29  C   UNL     1      -2.643  14.784  22.997  0.00  0.00    +0.000 A 
ATOM     30  C   UNL     1      -1.391  15.305  22.622  0.00  0.00    +0.000 A 
ATOM     31  C   UNL     1      -0.295  14.451  22.453  0.00  0.00    +0.000 A 
ATOM     32  C   UNL     1      -0.457  13.080  22.711  0.00  0.00    +0.000 A 
ATOM     33  C   UNL     1      -1.715  12.562  23.064  0.00  0.00    +0.000 A 
ENDBRANCH  24  31
ENDBRANCH   1  24
TORSDOF 4
ENDMDL
MODEL 8
REMARK VINA RESULT:      -7.9      7.553     11.722
REMARK  Name = 
REMARK  5 active torsions:
REMARK  status: ('A' for Active; 'I' for Inactive)
REMARK    1  A    between atoms: C_1  and  C_2
REMARK    2  A    between atoms: C_5  and  S_6
REMARK    3  A    between atoms: S_6  and  N_9
REMARK    4  A    between atoms: C_14  and  C_15
REMARK    5  A    between atoms: C_23  and  C_25
REMARK                            x       y       z     vdW  Elec       q    Type
REMARK                         _______ _______ _______ _____ _____    ______ ____
ROOT
ATOM      1  N   UNL     1       5.078  16.300  19.780  0.00  0.00    +0.000 NA
ATOM      2  C   UNL     1       6.053  17.419  19.700  0.00  0.00    +0.000 C 
ATOM      3  C   UNL     1       7.332  16.915  19.027  0.00  0.00    +0.000 C 
ATOM      4  C   UNL     1       7.701  15.614  19.670  0.00  0.00    +0.000 A 
ATOM      5  C   UNL     1       6.900  14.886  20.525  0.00  0.00    +0.000 A 
ATOM      6  C   UNL     1       7.788  13.939  21.110  0.00  0.00    +0.000 A 
ATOM      7  N   UNL     1       8.980  13.951  20.452  0.00  0.00    +0.000 NA
ATOM      8  N   UNL     1       8.846  14.886  19.456  0.00  0.00    +0.000 N 
ATOM      9  C   UNL     1       9.732  15.090  18.363  0.00  0.00    +0.000 C 
ATOM     10  O   UNL     1       9.416  15.954  17.541  0.00  0.00    +0.000 OA
ATOM     11  C   UNL     1       5.476  15.263  20.775  0.00  0.00    +0.000 C 
ENDROOT
BRANCH   6  12
ATOM     12  C   UNL     1       7.551  13.133  22.338  0.00  0.00    +0.000 A 
ATOM     13  C   UNL     1       6.291  13.047  22.956  0.00  0.00    +0.000 A 
ATOM     14  C   UNL     1       6.118  12.439  24.206  0.00  0.00    +0.000 A 
ATOM     15  C   UNL     1       7.209  11.861  24.856  0.00  0.00    +0.000 A 
ATOM     16  C   UNL     1       8.453  11.889  24.244  0.00  0.00    +0.000 A 
ATOM     17  C   UNL     1       8.626  12.517  22.996  0.00  0.00    +0.000 A 
ENDBRANCH   6  12
BRANCH   9  18
ATOM     18  C   UNL     1      11.082  14.388  18.302  0.00  0.00    +0.000 C 
ATOM     19  C   UNL     1      11.715  13.882  19.600  0.00  0.00    +0.000 C 
ATOM     20  C   UNL     1      11.476  12.429  20.026  0.00  0.00    +0.000 C 
ATOM     21  C   UNL     1      11.058  11.412  18.972  0.00  0.00    +0.000 C 
ATOM     22  C   UNL     1      10.322  11.995  17.783  0.00  0.00    +0.000 C 
ATOM     23  C   UNL     1      11.016  13.246  17.255  0.00  0.00    +0.000 C 
ENDBRANCH   9  18
BRANCH   1  24
ATOM     24  S   UNL     1       4.242  15.852  18.377  0.00  0.00    +0.000 S 
ATOM     25  O   UNL     1       5.122  14.956  17.650  0.00  0.00    +0.000 OA
ATOM     26  O   UNL     1       3.772  17.067  17.758  0.00  0.00    +0.000 OA
BRANCH  24  31
ATOM     27  C   UNL     1      -0.901  12.621  18.348  0.00  0.00    +0.000 C 
ATOM     28  C   UNL     1       0.362  13.386  18.644  0.00  0.00    +0.000 A 
ATOM     29  C   UNL     1       0.330  14.765  18.894  0.00  0.00    +0.000 A 
ATOM     30  C   UNL     1       1.517  15.519  18.936  0.00  0.00    +0.000 A 
ATOM     31  C   UNL     1       2.757  14.891  18.763  0.00  0.00    +0.000 A 
ATOM     32  C   UNL     1       2.793  13.497  18.599  0.00  0.00    +0.000 A 
ATOM     33  C   UNL     1       1.603  12.751  18.537  0.00  0.00    +0.000 A 
ENDBRANCH  24  31
ENDBRANCH   1  24
TORSDOF 4
ENDMDL
MODEL 9
REMARK VINA RESULT:      -7.8      2.085      2.911
REMARK  Name = 
REMARK  5 active torsions:
REMARK  status: ('A' for Active; 'I' for Inactive)
REMARK    1  A    between atoms: C_1  and  C_2
REMARK    2  A    between atoms: C_5  and  S_6
REMARK    3  A    between atoms: S_6  and  N_9
REMARK    4  A    between atoms: C_14  and  C_15
REMARK    5  A    between atoms: C_23  and  C_25
REMARK                            x       y       z     vdW  Elec       q    Type
REMARK                         _______ _______ _______ _____ _____    ______ ____
ROOT
ATOM      1  N   UNL     1       0.288  10.287  19.598  0.00  0.00    +0.000 NA
ATOM      2  C   UNL     1       1.133  11.487  19.361  0.00  0.00    +0.000 C 
ATOM      3  C   UNL     1       0.851  12.516  20.459  0.00  0.00    +0.000 C 
ATOM      4  C   UNL     1      -0.634  12.635  20.600  0.00  0.00    +0.000 A 
ATOM      5  C   UNL     1      -1.564  11.789  20.030  0.00  0.00    +0.000 A 
ATOM      6  C   UNL     1      -2.799  12.487  20.171  0.00  0.00    +0.000 A 
ATOM      7  N   UNL     1      -2.636  13.558  20.995  0.00  0.00    +0.000 NA
ATOM      8  N   UNL     1      -1.318  13.536  21.380  0.00  0.00    +0.000 N 
ATOM      9  C   UNL     1      -0.726  14.306  22.417  0.00  0.00    +0.000 C 
ATOM     10  O   UNL     1       0.469  14.112  22.645  0.00  0.00    +0.000 OA
ATOM     11  C   UNL     1      -1.155  10.539  19.321  0.00  0.00    +0.000 C 
ENDROOT
BRANCH   6  12
ATOM     12  C   UNL     1      -4.067  12.211  19.444  0.00  0.00    +0.000 A 
ATOM     13  C   UNL     1      -5.330  12.335  20.050  0.00  0.00    +0.000 A 
ATOM     14  C   UNL     1      -6.502  11.900  19.417  0.00  0.00    +0.000 A 
ATOM     15  C   UNL     1      -6.440  11.359  18.133  0.00  0.00    +0.000 A 
ATOM     16  C   UNL     1      -5.212  11.272  17.494  0.00  0.00    +0.000 A 
ATOM     17  C   UNL     1      -4.034  11.693  18.141  0.00  0.00    +0.000 A 
ENDBRANCH   6  12
BRANCH   9  18
ATOM     18  C   UNL     1      -1.496  15.430  23.099  0.00  0.00    +0.000 C 
ATOM     19  C   UNL     1      -1.113  15.834  24.525  0.00  0.00    +0.000 C 
ATOM     20  C   UNL     1      -0.122  16.985  24.731  0.00  0.00    +0.000 C 
ATOM     21  C   UNL     1       0.079  17.994  23.607  0.00  0.00    +0.000 C 
ATOM     22  C   UNL     1      -0.202  17.460  22.218  0.00  0.00    +0.000 C 
ATOM     23  C   UNL     1      -1.508  16.674  22.173  0.00  0.00    +0.000 C 
ENDBRANCH   9  18
BRANCH   1  24
ATOM     24  S   UNL     1       0.739   9.206  20.821  0.00  0.00    +0.000 S 
ATOM     25  O   UNL     1      -0.492   8.634  21.331  0.00  0.00    +0.000 OA
ATOM     26  O   UNL     1       1.631   9.915  21.705  0.00  0.00    +0.000 OA
BRANCH  24  31
ATOM     27  C   UNL     1       2.850   4.299  17.929  0.00  0.00    +0.000 C 
ATOM     28  C   UNL     1       2.594   5.527  18.762  0.00  0.00    +0.000 A 
ATOM     29  C   UNL     1       2.115   5.423  20.076  0.00  0.00    +0.000 A 
ATOM     30  C   UNL     1       1.654   6.558  20.768  0.00  0.00    +0.000 A 
ATOM     31  C   UNL     1       1.701   7.820  20.163  0.00  0.00    +0.000 A 
ATOM     32  C   UNL     1       2.261   7.936  18.880  0.00  0.00    +0.000 A 
ATOM     33  C   UNL     1       2.701   6.796  18.185  0.00  0.00    +0.000 A 
ENDBRANCH  24  31
ENDBRANCH   1  24
TORSDOF 4
ENDMDL
