MODEL 1
REMARK VINA RESULT:      -7.4      0.000      0.000
REMARK  Name = 
REMARK  4 active torsions:
REMARK  status: ('A' for Active; 'I' for Inactive)
REMARK    1  A    between atoms: N_1  and  C_2
REMARK    2  A    between atoms: C_2  and  C_3
REMARK    3  A    between atoms: C_6  and  C_7
REMARK    4  A    between atoms: C_10  and  C_11
REMARK                            x       y       z     vdW  Elec       q    Type
REMARK                         _______ _______ _______ _____ _____    ______ ____
ROOT
ATOM      1  C   UNL     1       2.893   6.101  18.886  0.00  0.00    +0.000 A 
ATOM      2  N   UNL     1       2.421   5.316  19.833  0.00  0.00    +0.000 NA
ATOM      3  N   UNL     1       1.702   6.118  20.686  0.00  0.00    +0.000 NA
ATOM      4  C   UNL     1       1.771   7.339  20.201  0.00  0.00    +0.000 A 
ATOM      5  O   UNL     1       2.519   7.414  19.050  0.00  0.00    +0.000 OA
ENDROOT
BRANCH   4   6
ATOM      6  C   UNL     1       1.135   8.553  20.698  0.00  0.00    +0.000 A 
ATOM      7  C   UNL     1       0.886   8.666  22.078  0.00  0.00    +0.000 A 
ATOM      8  C   UNL     1       0.202   9.766  22.600  0.00  0.00    +0.000 A 
ATOM      9  C   UNL     1      -0.239  10.770  21.744  0.00  0.00    +0.000 A 
ATOM     10 CL   UNL     1      -1.129  12.099  22.374  0.00  0.00    +0.000 Cl
ATOM     11  C   UNL     1       0.025  10.693  20.378  0.00  0.00    +0.000 A 
ATOM     12  C   UNL     1       0.714   9.591  19.856  0.00  0.00    +0.000 A 
ENDBRANCH   4   6
BRANCH   1  16
ATOM     13  C   UNL     1       5.472   4.971  15.658  0.00  0.00    +0.000 A 
ATOM     14  C   UNL     1       4.717   4.020  16.355  0.00  0.00    +0.000 A 
ATOM     15  C   UNL     1       3.864   4.409  17.387  0.00  0.00    +0.000 A 
ATOM     16  C   UNL     1       3.747   5.758  17.759  0.00  0.00    +0.000 A 
ATOM     17  C   UNL     1       4.484   6.711  17.045  0.00  0.00    +0.000 A 
ATOM     18  C   UNL     1       5.341   6.322  16.008  0.00  0.00    +0.000 A 
BRANCH  13  19
ATOM     19  C   UNL     1       6.410   4.535  14.561  0.00  0.00    +0.000 C 
BRANCH  19  20
ATOM     20  N   UNL     1       7.557   5.430  14.461  0.00  0.00    +0.000 NA
ATOM     21  H   UNL     1       8.364   4.989  14.897  0.00  0.00    +0.000 HD
ATOM     22  H   UNL     1       7.363   6.275  14.997  0.00  0.00    +0.000 HD
ENDBRANCH  19  20
ENDBRANCH  13  19
ENDBRANCH   1  16
TORSDOF 4
ENDMDL
MODEL 2
REMARK VINA RESULT:      -7.3      0.124      1.084
REMARK  Name = 
REMARK  4 active torsions:
REMARK  status: ('A' for Active; 'I' for Inactive)
REMARK    1  A    between atoms: N_1  and  C_2
REMARK    2  A    between atoms: C_2  and  C_3
REMARK    3  A    between atoms: C_6  and  C_7
REMARK    4  A    between atoms: C_10  and  C_11
REMARK                            x       y       z     vdW  Elec       q    Type
REMARK                         _______ _______ _______ _____ _____    ______ ____
ROOT
ATOM      1  C   UNL     1       2.918   6.054  18.959  0.00  0.00    +0.000 A 
ATOM      2  N   UNL     1       2.403   5.299  19.908  0.00  0.00    +0.000 NA
ATOM      3  N   UNL     1       1.681   6.134  20.726  0.00  0.00    +0.000 NA
ATOM      4  C   UNL     1       1.791   7.343  20.219  0.00  0.00    +0.000 A 
ATOM      5  O   UNL     1       2.570   7.379  19.087  0.00  0.00    +0.000 OA
ENDROOT
BRANCH   4   6
ATOM      6  C   UNL     1       1.170   8.582  20.676  0.00  0.00    +0.000 A 
ATOM      7  C   UNL     1       0.838   8.706  22.037  0.00  0.00    +0.000 A 
ATOM      8  C   UNL     1       0.164   9.831  22.515  0.00  0.00    +0.000 A 
ATOM      9  C   UNL     1      -0.184  10.850  21.633  0.00  0.00    +0.000 A 
ATOM     10 CL   UNL     1      -1.061  12.213  22.206  0.00  0.00    +0.000 Cl
ATOM     11  C   UNL     1       0.165  10.761  20.287  0.00  0.00    +0.000 A 
ATOM     12  C   UNL     1       0.843   9.633  19.809  0.00  0.00    +0.000 A 
ENDBRANCH   4   6
BRANCH   1  16
ATOM     13  C   UNL     1       5.427   5.043  15.638  0.00  0.00    +0.000 A 
ATOM     14  C   UNL     1       5.296   6.366  16.076  0.00  0.00    +0.000 A 
ATOM     15  C   UNL     1       4.494   6.674  17.174  0.00  0.00    +0.000 A 
ATOM     16  C   UNL     1       3.793   5.669  17.861  0.00  0.00    +0.000 A 
ATOM     17  C   UNL     1       3.944   4.343  17.437  0.00  0.00    +0.000 A 
ATOM     18  C   UNL     1       4.749   4.033  16.334  0.00  0.00    +0.000 A 
BRANCH  13  19
ATOM     19  C   UNL     1       6.276   4.727  14.433  0.00  0.00    +0.000 C 
BRANCH  19  20
ATOM     20  N   UNL     1       7.567   5.399  14.504  0.00  0.00    +0.000 NA
ATOM     21  H   UNL     1       8.211   4.958  13.851  0.00  0.00    +0.000 HD
ATOM     22  H   UNL     1       7.959   5.263  15.435  0.00  0.00    +0.000 HD
ENDBRANCH  19  20
ENDBRANCH  13  19
ENDBRANCH   1  16
TORSDOF 4
ENDMDL
MODEL 3
REMARK VINA RESULT:      -7.3      0.226      1.092
REMARK  Name = 
REMARK  4 active torsions:
REMARK  status: ('A' for Active; 'I' for Inactive)
REMARK    1  A    between atoms: N_1  and  C_2
REMARK    2  A    between atoms: C_2  and  C_3
REMARK    3  A    between atoms: C_6  and  C_7
REMARK    4  A    between atoms: C_10  and  C_11
REMARK                            x       y       z     vdW  Elec       q    Type
REMARK                         _______ _______ _______ _____ _____    ______ ____
ROOT
ATOM      1  C   UNL     1       2.905   6.091  18.942  0.00  0.00    +0.000 A 
ATOM      2  N   UNL     1       2.461   5.314  19.909  0.00  0.00    +0.000 NA
ATOM      3  N   UNL     1       1.732   6.116  20.754  0.00  0.00    +0.000 NA
ATOM      4  C   UNL     1       1.768   7.328  20.244  0.00  0.00    +0.000 A 
ATOM      5  O   UNL     1       2.502   7.399  19.085  0.00  0.00    +0.000 OA
ENDROOT
BRANCH   4   6
ATOM      6  C   UNL     1       1.108   8.537  20.725  0.00  0.00    +0.000 A 
ATOM      7  C   UNL     1       0.964   9.622  19.842  0.00  0.00    +0.000 A 
ATOM      8  C   UNL     1       0.420  10.835  20.271  0.00  0.00    +0.000 A 
ATOM      9  C   UNL     1       0.010  10.973  21.593  0.00  0.00    +0.000 A 
ATOM     10 CL   UNL     1      -0.611  12.481  22.142  0.00  0.00    +0.000 Cl
ATOM     11  C   UNL     1       0.113   9.901  22.476  0.00  0.00    +0.000 A 
ATOM     12  C   UNL     1       0.657   8.684  22.043  0.00  0.00    +0.000 A 
ENDBRANCH   4   6
BRANCH   1  16
ATOM     13  C   UNL     1       5.462   4.947  15.702  0.00  0.00    +0.000 A 
ATOM     14  C   UNL     1       4.637   4.016  16.344  0.00  0.00    +0.000 A 
ATOM     15  C   UNL     1       3.794   4.411  17.381  0.00  0.00    +0.000 A 
ATOM     16  C   UNL     1       3.755   5.746  17.812  0.00  0.00    +0.000 A 
ATOM     17  C   UNL     1       4.562   6.682  17.154  0.00  0.00    +0.000 A 
ATOM     18  C   UNL     1       5.411   6.287  16.112  0.00  0.00    +0.000 A 
BRANCH  13  19
ATOM     19  C   UNL     1       6.391   4.503  14.600  0.00  0.00    +0.000 C 
BRANCH  19  20
ATOM     20  N   UNL     1       7.487   5.446  14.422  0.00  0.00    +0.000 NA
ATOM     21  H   UNL     1       8.080   5.431  15.249  0.00  0.00    +0.000 HD
ATOM     22  H   UNL     1       7.105   6.388  14.356  0.00  0.00    +0.000 HD
ENDBRANCH  19  20
ENDBRANCH  13  19
ENDBRANCH   1  16
TORSDOF 4
ENDMDL
MODEL 4
REMARK VINA RESULT:      -7.3      0.284      1.543
REMARK  Name = 
REMARK  4 active torsions:
REMARK  status: ('A' for Active; 'I' for Inactive)
REMARK    1  A    between atoms: N_1  and  C_2
REMARK    2  A    between atoms: C_2  and  C_3
REMARK    3  A    between atoms: C_6  and  C_7
REMARK    4  A    between atoms: C_10  and  C_11
REMARK                            x       y       z     vdW  Elec       q    Type
REMARK                         _______ _______ _______ _____ _____    ______ ____
ROOT
ATOM      1  C   UNL     1       2.919   6.041  18.966  0.00  0.00    +0.000 A 
ATOM      2  N   UNL     1       2.432   5.287  19.930  0.00  0.00    +0.000 NA
ATOM      3  N   UNL     1       1.695   6.115  20.742  0.00  0.00    +0.000 NA
ATOM      4  C   UNL     1       1.770   7.319  20.217  0.00  0.00    +0.000 A 
ATOM      5  O   UNL     1       2.538   7.358  19.078  0.00  0.00    +0.000 OA
ENDROOT
BRANCH   4   6
ATOM      6  C   UNL     1       1.121   8.547  20.661  0.00  0.00    +0.000 A 
ATOM      7  C   UNL     1       0.975   9.602  19.742  0.00  0.00    +0.000 A 
ATOM      8  C   UNL     1       0.441  10.832  20.134  0.00  0.00    +0.000 A 
ATOM      9  C   UNL     1       0.042  11.018  21.454  0.00  0.00    +0.000 A 
ATOM     10 CL   UNL     1      -0.566  12.547  21.955  0.00  0.00    +0.000 Cl
ATOM     11  C   UNL     1       0.147   9.976  22.372  0.00  0.00    +0.000 A 
ATOM     12  C   UNL     1       0.681   8.742  21.977  0.00  0.00    +0.000 A 
ENDBRANCH   4   6
BRANCH   1  16
ATOM     13  C   UNL     1       5.425   5.046  15.638  0.00  0.00    +0.000 A 
ATOM     14  C   UNL     1       5.251   6.373  16.048  0.00  0.00    +0.000 A 
ATOM     15  C   UNL     1       4.450   6.676  17.148  0.00  0.00    +0.000 A 
ATOM     16  C   UNL     1       3.795   5.663  17.866  0.00  0.00    +0.000 A 
ATOM     17  C   UNL     1       3.989   4.334  17.471  0.00  0.00    +0.000 A 
ATOM     18  C   UNL     1       4.792   4.028  16.365  0.00  0.00    +0.000 A 
BRANCH  13  19
ATOM     19  C   UNL     1       6.270   4.732  14.429  0.00  0.00    +0.000 C 
BRANCH  19  20
ATOM     20  N   UNL     1       7.569   5.389  14.509  0.00  0.00    +0.000 NA
ATOM     21  H   UNL     1       7.690   5.992  13.698  0.00  0.00    +0.000 HD
ATOM     22  H   UNL     1       8.300   4.681  14.455  0.00  0.00    +0.000 HD
ENDBRANCH  19  20
ENDBRANCH  13  19
ENDBRANCH   1  16
TORSDOF 4
ENDMDL
MODEL 5
REMARK VINA RESULT:      -6.9      3.440      8.054
REMARK  Name = 
REMARK  4 active torsions:
REMARK  status: ('A' for Active; 'I' for Inactive)
REMARK    1  A    between atoms: N_1  and  C_2
REMARK    2  A    between atoms: C_2  and  C_3
REMARK    3  A    between atoms: C_6  and  C_7
REMARK    4  A    between atoms: C_10  and  C_11
REMARK                            x       y       z     vdW  Elec       q    Type
REMARK                         _______ _______ _______ _____ _____    ______ ____
ROOT
ATOM      1  C   UNL     1       1.805   7.376  20.194  0.00  0.00    +0.000 A 
ATOM      2  N   UNL     1       1.793   6.162  20.704  0.00  0.00    +0.000 NA
ATOM      3  N   UNL     1       2.509   5.366  19.843  0.00  0.00    +0.000 NA
ATOM      4  C   UNL     1       2.921   6.146  18.867  0.00  0.00    +0.000 A 
ATOM      5  O   UNL     1       2.511   7.449  19.015  0.00  0.00    +0.000 OA
ENDROOT
BRANCH   4   6
ATOM      6  C   UNL     1       3.765   5.807  17.726  0.00  0.00    +0.000 A 
ATOM      7  C   UNL     1       3.919   4.453  17.381  0.00  0.00    +0.000 A 
ATOM      8  C   UNL     1       4.781   4.063  16.355  0.00  0.00    +0.000 A 
ATOM      9  C   UNL     1       5.499   5.029  15.657  0.00  0.00    +0.000 A 
ATOM     10 CL   UNL     1       6.603   4.552  14.428  0.00  0.00    +0.000 Cl
ATOM     11  C   UNL     1       5.336   6.379  15.960  0.00  0.00    +0.000 A 
ATOM     12  C   UNL     1       4.469   6.769  16.989  0.00  0.00    +0.000 A 
ENDBRANCH   4   6
BRANCH   1  16
ATOM     13  C   UNL     1      -0.184  10.834  21.754  0.00  0.00    +0.000 A 
ATOM     14  C   UNL     1       0.206   9.779  22.588  0.00  0.00    +0.000 A 
ATOM     15  C   UNL     1       0.874   8.672  22.066  0.00  0.00    +0.000 A 
ATOM     16  C   UNL     1       1.165   8.583  20.695  0.00  0.00    +0.000 A 
ATOM     17  C   UNL     1       0.796   9.649  19.866  0.00  0.00    +0.000 A 
ATOM     18  C   UNL     1       0.124  10.762  20.388  0.00  0.00    +0.000 A 
BRANCH  13  19
ATOM     19  C   UNL     1      -0.930  12.013  22.325  0.00  0.00    +0.000 C 
BRANCH  19  20
ATOM     20  N   UNL     1      -2.029  11.580  23.179  0.00  0.00    +0.000 NA
ATOM     21  H   UNL     1      -2.192  12.282  23.897  0.00  0.00    +0.000 HD
ATOM     22  H   UNL     1      -1.752  10.728  23.666  0.00  0.00    +0.000 HD
ENDBRANCH  19  20
ENDBRANCH  13  19
ENDBRANCH   1  16
TORSDOF 4
ENDMDL
MODEL 6
REMARK VINA RESULT:      -6.9      0.956      1.578
REMARK  Name = 
REMARK  4 active torsions:
REMARK  status: ('A' for Active; 'I' for Inactive)
REMARK    1  A    between atoms: N_1  and  C_2
REMARK    2  A    between atoms: C_2  and  C_3
REMARK    3  A    between atoms: C_6  and  C_7
REMARK    4  A    between atoms: C_10  and  C_11
REMARK                            x       y       z     vdW  Elec       q    Type
REMARK                         _______ _______ _______ _____ _____    ______ ____
ROOT
ATOM      1  C   UNL     1       2.871   6.657  18.791  0.00  0.00    +0.000 A 
ATOM      2  N   UNL     1       2.500   6.192  19.966  0.00  0.00    +0.000 NA
ATOM      3  N   UNL     1       1.703   7.156  20.536  0.00  0.00    +0.000 NA
ATOM      4  C   UNL     1       1.630   8.143  19.669  0.00  0.00    +0.000 A 
ATOM      5  O   UNL     1       2.353   7.903  18.526  0.00  0.00    +0.000 OA
ENDROOT
BRANCH   4   6
ATOM      6  C   UNL     1       0.867   9.382  19.763  0.00  0.00    +0.000 A 
ATOM      7  C   UNL     1       0.496   9.849  21.037  0.00  0.00    +0.000 A 
ATOM      8  C   UNL     1      -0.309  10.981  21.185  0.00  0.00    +0.000 A 
ATOM      9  C   UNL     1      -0.750  11.662  20.055  0.00  0.00    +0.000 A 
ATOM     10 CL   UNL     1      -1.785  13.024  20.228  0.00  0.00    +0.000 Cl
ATOM     11  C   UNL     1      -0.367  11.235  18.785  0.00  0.00    +0.000 A 
ATOM     12  C   UNL     1       0.443  10.101  18.638  0.00  0.00    +0.000 A 
ENDBRANCH   4   6
BRANCH   1  16
ATOM     13  C   UNL     1       5.396   4.965  15.773  0.00  0.00    +0.000 A 
ATOM     14  C   UNL     1       5.362   6.345  16.005  0.00  0.00    +0.000 A 
ATOM     15  C   UNL     1       4.552   6.876  17.008  0.00  0.00    +0.000 A 
ATOM     16  C   UNL     1       3.747   6.044  17.803  0.00  0.00    +0.000 A 
ATOM     17  C   UNL     1       3.800   4.662  17.586  0.00  0.00    +0.000 A 
ATOM     18  C   UNL     1       4.612   4.127  16.579  0.00  0.00    +0.000 A 
BRANCH  13  19
ATOM     19  C   UNL     1       6.255   4.405  14.667  0.00  0.00    +0.000 C 
BRANCH  19  20
ATOM     20  N   UNL     1       7.441   5.225  14.453  0.00  0.00    +0.000 NA
ATOM     21  H   UNL     1       8.224   4.819  14.961  0.00  0.00    +0.000 HD
ATOM     22  H   UNL     1       7.281   6.147  14.855  0.00  0.00    +0.000 HD
ENDBRANCH  19  20
ENDBRANCH  13  19
ENDBRANCH   1  16
TORSDOF 4
ENDMDL
MODEL 7
REMARK VINA RESULT:      -6.8      3.448      8.017
REMARK  Name = 
REMARK  4 active torsions:
REMARK  status: ('A' for Active; 'I' for Inactive)
REMARK    1  A    between atoms: N_1  and  C_2
REMARK    2  A    between atoms: C_2  and  C_3
REMARK    3  A    between atoms: C_6  and  C_7
REMARK    4  A    between atoms: C_10  and  C_11
REMARK                            x       y       z     vdW  Elec       q    Type
REMARK                         _______ _______ _______ _____ _____    ______ ____
ROOT
ATOM      1  C   UNL     1       1.823   7.323  20.144  0.00  0.00    +0.000 A 
ATOM      2  N   UNL     1       1.840   6.152  20.746  0.00  0.00    +0.000 NA
ATOM      3  N   UNL     1       2.595   5.317  19.958  0.00  0.00    +0.000 NA
ATOM      4  C   UNL     1       3.000   6.033  18.932  0.00  0.00    +0.000 A 
ATOM      5  O   UNL     1       2.546   7.330  18.974  0.00  0.00    +0.000 OA
ENDROOT
BRANCH   4   6
ATOM      6  C   UNL     1       3.873   5.637  17.833  0.00  0.00    +0.000 A 
ATOM      7  C   UNL     1       4.472   6.641  17.052  0.00  0.00    +0.000 A 
ATOM      8  C   UNL     1       5.246   6.322  15.935  0.00  0.00    +0.000 A 
ATOM      9  C   UNL     1       5.433   4.988  15.588  0.00  0.00    +0.000 A 
ATOM     10 CL   UNL     1       6.341   4.590  14.183  0.00  0.00    +0.000 Cl
ATOM     11  C   UNL     1       4.876   3.976  16.367  0.00  0.00    +0.000 A 
ATOM     12  C   UNL     1       4.102   4.298  17.489  0.00  0.00    +0.000 A 
ENDBRANCH   4   6
BRANCH   1  16
ATOM     13  C   UNL     1      -0.079  11.001  21.241  0.00  0.00    +0.000 A 
ATOM     14  C   UNL     1       0.353  10.767  19.930  0.00  0.00    +0.000 A 
ATOM     15  C   UNL     1       0.948   9.554  19.586  0.00  0.00    +0.000 A 
ATOM     16  C   UNL     1       1.137   8.544  20.542  0.00  0.00    +0.000 A 
ATOM     17  C   UNL     1       0.682   8.770  21.848  0.00  0.00    +0.000 A 
ATOM     18  C   UNL     1       0.085   9.988  22.195  0.00  0.00    +0.000 A 
BRANCH  13  19
ATOM     19  C   UNL     1      -0.696  12.327  21.608  0.00  0.00    +0.000 C 
BRANCH  19  20
ATOM     20  N   UNL     1      -0.655  12.549  23.047  0.00  0.00    +0.000 NA
ATOM     21  H   UNL     1      -1.209  13.371  23.275  0.00  0.00    +0.000 HD
ATOM     22  H   UNL     1       0.303  12.760  23.321  0.00  0.00    +0.000 HD
ENDBRANCH  19  20
ENDBRANCH  13  19
ENDBRANCH   1  16
TORSDOF 4
ENDMDL
MODEL 8
REMARK VINA RESULT:      -6.8      3.439      8.044
REMARK  Name = 
REMARK  4 active torsions:
REMARK  status: ('A' for Active; 'I' for Inactive)
REMARK    1  A    between atoms: N_1  and  C_2
REMARK    2  A    between atoms: C_2  and  C_3
REMARK    3  A    between atoms: C_6  and  C_7
REMARK    4  A    between atoms: C_10  and  C_11
REMARK                            x       y       z     vdW  Elec       q    Type
REMARK                         _______ _______ _______ _____ _____    ______ ____
ROOT
ATOM      1  C   UNL     1       1.821   7.337  20.162  0.00  0.00    +0.000 A 
ATOM      2  N   UNL     1       1.774   6.143  20.715  0.00  0.00    +0.000 NA
ATOM      3  N   UNL     1       2.519   5.310  19.916  0.00  0.00    +0.000 NA
ATOM      4  C   UNL     1       2.983   6.050  18.932  0.00  0.00    +0.000 A 
ATOM      5  O   UNL     1       2.579   7.360  19.014  0.00  0.00    +0.000 OA
ENDROOT
BRANCH   4   6
ATOM      6  C   UNL     1       3.872   5.662  17.843  0.00  0.00    +0.000 A 
ATOM      7  C   UNL     1       4.507   6.673  17.100  0.00  0.00    +0.000 A 
ATOM      8  C   UNL     1       5.300   6.364  15.993  0.00  0.00    +0.000 A 
ATOM      9  C   UNL     1       5.469   5.035  15.618  0.00  0.00    +0.000 A 
ATOM     10 CL   UNL     1       6.400   4.653  14.224  0.00  0.00    +0.000 Cl
ATOM     11  C   UNL     1       4.876   4.016  16.360  0.00  0.00    +0.000 A 
ATOM     12  C   UNL     1       4.083   4.327  17.472  0.00  0.00    +0.000 A 
ENDBRANCH   4   6
BRANCH   1  16
ATOM     13  C   UNL     1      -0.208  10.867  21.491  0.00  0.00    +0.000 A 
ATOM     14  C   UNL     1       0.031   9.794  22.358  0.00  0.00    +0.000 A 
ATOM     15  C   UNL     1       0.714   8.663  21.914  0.00  0.00    +0.000 A 
ATOM     16  C   UNL     1       1.172   8.568  20.590  0.00  0.00    +0.000 A 
ATOM     17  C   UNL     1       0.954   9.652  19.731  0.00  0.00    +0.000 A 
ATOM     18  C   UNL     1       0.267  10.789  20.174  0.00  0.00    +0.000 A 
BRANCH  13  19
ATOM     19  C   UNL     1      -0.972  12.074  21.974  0.00  0.00    +0.000 C 
BRANCH  19  20
ATOM     20  N   UNL     1      -1.766  11.758  23.155  0.00  0.00    +0.000 NA
ATOM     21  H   UNL     1      -1.143  11.526  23.925  0.00  0.00    +0.000 HD
ATOM     22  H   UNL     1      -2.319  10.923  22.967  0.00  0.00    +0.000 HD
ENDBRANCH  19  20
ENDBRANCH  13  19
ENDBRANCH   1  16
TORSDOF 4
ENDMDL
MODEL 9
REMARK VINA RESULT:      -6.8      2.812      3.047
REMARK  Name = 
REMARK  4 active torsions:
REMARK  status: ('A' for Active; 'I' for Inactive)
REMARK    1  A    between atoms: N_1  and  C_2
REMARK    2  A    between atoms: C_2  and  C_3
REMARK    3  A    between atoms: C_6  and  C_7
REMARK    4  A    between atoms: C_10  and  C_11
REMARK                            x       y       z     vdW  Elec       q    Type
REMARK                         _______ _______ _______ _____ _____    ______ ____
ROOT
ATOM      1  C   UNL     1       2.328   7.521  18.648  0.00  0.00    +0.000 A 
ATOM      2  N   UNL     1       2.478   8.448  17.724  0.00  0.00    +0.000 NA
ATOM      3  N   UNL     1       1.824   9.567  18.180  0.00  0.00    +0.000 NA
ATOM      4  C   UNL     1       1.326   9.257  19.358  0.00  0.00    +0.000 A 
ATOM      5  O   UNL     1       1.602   7.963  19.730  0.00  0.00    +0.000 OA
ENDROOT
BRANCH   4   6
ATOM      6  C   UNL     1       0.590  10.106  20.287  0.00  0.00    +0.000 A 
ATOM      7  C   UNL     1       0.417   9.665  21.611  0.00  0.00    +0.000 A 
ATOM      8  C   UNL     1      -0.352  10.394  22.520  0.00  0.00    +0.000 A 
ATOM      9  C   UNL     1      -0.955  11.579  22.114  0.00  0.00    +0.000 A 
ATOM     10 CL   UNL     1      -1.948  12.454  23.213  0.00  0.00    +0.000 Cl
ATOM     11  C   UNL     1      -0.770  12.052  20.816  0.00  0.00    +0.000 A 
ATOM     12  C   UNL     1       0.003  11.321  19.906  0.00  0.00    +0.000 A 
ENDBRANCH   4   6
BRANCH   1  16
ATOM     13  C   UNL     1       3.555   3.418  18.677  0.00  0.00    +0.000 A 
ATOM     14  C   UNL     1       2.379   3.822  18.035  0.00  0.00    +0.000 A 
ATOM     15  C   UNL     1       2.008   5.166  18.015  0.00  0.00    +0.000 A 
ATOM     16  C   UNL     1       2.797   6.143  18.643  0.00  0.00    +0.000 A 
ATOM     17  C   UNL     1       3.986   5.741  19.264  0.00  0.00    +0.000 A 
ATOM     18  C   UNL     1       4.360   4.392  19.285  0.00  0.00    +0.000 A 
BRANCH  13  19
ATOM     19  C   UNL     1       3.933   1.958  18.716  0.00  0.00    +0.000 C 
BRANCH  19  20
ATOM     20  N   UNL     1       4.898   1.690  19.774  0.00  0.00    +0.000 NA
ATOM     21  H   UNL     1       5.840   1.774  19.398  0.00  0.00    +0.000 HD
ATOM     22  H   UNL     1       4.793   0.723  20.079  0.00  0.00    +0.000 HD
ENDBRANCH  19  20
ENDBRANCH  13  19
ENDBRANCH   1  16
TORSDOF 4
ENDMDL
