MODEL 1
REMARK VINA RESULT:      -8.2      0.000      0.000
REMARK  Name = 
REMARK  2 active torsions:
REMARK  status: ('A' for Active; 'I' for Inactive)
REMARK    1  A    between atoms: C_1  and  C_2
REMARK    2  A    between atoms: C_15  and  C_16
REMARK                            x       y       z     vdW  Elec       q    Type
REMARK                         _______ _______ _______ _____ _____    ______ ____
ROOT
ATOM      1  C   UNL     1       6.554   4.345  14.604  0.00  0.00    +0.000 C 
ATOM      2  C   UNL     1       5.590   5.165  15.414  0.00  0.00    +0.000 C 
ATOM      3  O   UNL     1       5.329   6.319  15.093  0.00  0.00    +0.000 OA
ATOM      4  N   UNL     1       5.052   4.463  16.484  0.00  0.00    +0.000 N 
ATOM      5  C   UNL     1       4.207   4.987  17.438  0.00  0.00    +0.000 A 
ATOM      6  N   UNL     1       3.808   6.215  17.412  0.00  0.00    +0.000 NA
ATOM      7  C   UNL     1       2.978   6.694  18.435  0.00  0.00    +0.000 A 
ATOM      8  C   UNL     1       2.585   8.029  18.336  0.00  0.00    +0.000 A 
ATOM      9  C   UNL     1       1.793   8.609  19.321  0.00  0.00    +0.000 A 
ATOM     10  C   UNL     1       1.389   7.841  20.410  0.00  0.00    +0.000 A 
ATOM     11 CL   UNL     1       0.428   8.564  21.641  0.00  0.00    +0.000 Cl
ATOM     12  C   UNL     1       1.759   6.494  20.523  0.00  0.00    +0.000 A 
ATOM     13  C   UNL     1       2.558   5.913  19.538  0.00  0.00    +0.000 A 
ATOM     14  N   UNL     1       3.001   4.566  19.532  0.00  0.00    +0.000 N 
ATOM     15  C   UNL     1       2.860   3.459  20.354  0.00  0.00    +0.000 A 
ATOM     16  C   UNL     1       2.172   3.329  21.659  0.00  0.00    +0.000 C 
ATOM     17  N   UNL     1       3.493   2.436  19.796  0.00  0.00    +0.000 NA
ATOM     18  N   UNL     1       4.085   2.849  18.634  0.00  0.00    +0.000 NA
ATOM     19  C   UNL     1       3.791   4.118  18.497  0.00  0.00    +0.000 A 
ATOM     20  H   UNL     1       5.329   3.499  16.622  0.00  0.00    +0.000 HD
ENDROOT
TORSDOF 0
ENDMDL
MODEL 2
REMARK VINA RESULT:      -7.9      3.119      5.145
REMARK  Name = 
REMARK  2 active torsions:
REMARK  status: ('A' for Active; 'I' for Inactive)
REMARK    1  A    between atoms: C_1  and  C_2
REMARK    2  A    between atoms: C_15  and  C_16
REMARK                            x       y       z     vdW  Elec       q    Type
REMARK                         _______ _______ _______ _____ _____    ______ ____
ROOT
ATOM      1  C   UNL     1       0.492   8.464  21.661  0.00  0.00    +0.000 C 
ATOM      2  C   UNL     1       1.459   8.088  20.572  0.00  0.00    +0.000 C 
ATOM      3  O   UNL     1       1.936   8.947  19.838  0.00  0.00    +0.000 OA
ATOM      4  N   UNL     1       1.737   6.729  20.543  0.00  0.00    +0.000 N 
ATOM      5  C   UNL     1       2.521   6.095  19.605  0.00  0.00    +0.000 A 
ATOM      6  N   UNL     1       3.107   6.731  18.646  0.00  0.00    +0.000 NA
ATOM      7  C   UNL     1       3.862   6.019  17.703  0.00  0.00    +0.000 A 
ATOM      8  C   UNL     1       4.468   6.776  16.699  0.00  0.00    +0.000 A 
ATOM      9  C   UNL     1       5.205   6.158  15.695  0.00  0.00    +0.000 A 
ATOM     10  C   UNL     1       5.339   4.773  15.702  0.00  0.00    +0.000 A 
ATOM     11 CL   UNL     1       6.232   4.006  14.447  0.00  0.00    +0.000 Cl
ATOM     12  C   UNL     1       4.752   3.994  16.708  0.00  0.00    +0.000 A 
ATOM     13  C   UNL     1       4.007   4.612  17.712  0.00  0.00    +0.000 A 
ATOM     14  N   UNL     1       3.364   3.942  18.784  0.00  0.00    +0.000 N 
ATOM     15  C   UNL     1       3.223   2.630  19.208  0.00  0.00    +0.000 A 
ATOM     16  C   UNL     1       3.706   1.375  18.586  0.00  0.00    +0.000 C 
ATOM     17  N   UNL     1       2.516   2.623  20.330  0.00  0.00    +0.000 NA
ATOM     18  N   UNL     1       2.152   3.904  20.644  0.00  0.00    +0.000 NA
ATOM     19  C   UNL     1       2.655   4.674  19.712  0.00  0.00    +0.000 A 
ATOM     20  H   UNL     1       1.297   6.128  21.229  0.00  0.00    +0.000 HD
ENDROOT
TORSDOF 0
ENDMDL
MODEL 3
REMARK VINA RESULT:      -6.9      2.776      3.901
REMARK  Name = 
REMARK  2 active torsions:
REMARK  status: ('A' for Active; 'I' for Inactive)
REMARK    1  A    between atoms: C_1  and  C_2
REMARK    2  A    between atoms: C_15  and  C_16
REMARK                            x       y       z     vdW  Elec       q    Type
REMARK                         _______ _______ _______ _____ _____    ______ ____
ROOT
ATOM      1  C   UNL     1       6.703   3.515  11.858  0.00  0.00    +0.000 C 
ATOM      2  C   UNL     1       5.769   3.542  13.035  0.00  0.00    +0.000 C 
ATOM      3  O   UNL     1       4.579   3.284  12.894  0.00  0.00    +0.000 OA
ATOM      4  N   UNL     1       6.412   3.848  14.226  0.00  0.00    +0.000 N 
ATOM      5  C   UNL     1       5.794   4.021  15.446  0.00  0.00    +0.000 A 
ATOM      6  N   UNL     1       4.519   3.889  15.602  0.00  0.00    +0.000 NA
ATOM      7  C   UNL     1       3.950   4.116  16.863  0.00  0.00    +0.000 A 
ATOM      8  C   UNL     1       2.567   3.950  16.954  0.00  0.00    +0.000 A 
ATOM      9  C   UNL     1       1.904   4.189  18.153  0.00  0.00    +0.000 A 
ATOM     10  C   UNL     1       2.634   4.592  19.267  0.00  0.00    +0.000 A 
ATOM     11 CL   UNL     1       1.811   4.910  20.745  0.00  0.00    +0.000 Cl
ATOM     12  C   UNL     1       4.025   4.750  19.203  0.00  0.00    +0.000 A 
ATOM     13  C   UNL     1       4.691   4.516  18.000  0.00  0.00    +0.000 A 
ATOM     14  N   UNL     1       6.089   4.640  17.801  0.00  0.00    +0.000 N 
ATOM     15  C   UNL     1       7.187   4.987  18.573  0.00  0.00    +0.000 A 
ATOM     16  C   UNL     1       7.250   5.434  19.984  0.00  0.00    +0.000 C 
ATOM     17  N   UNL     1       8.277   4.888  17.825  0.00  0.00    +0.000 NA
ATOM     18  N   UNL     1       7.924   4.514  16.557  0.00  0.00    +0.000 NA
ATOM     19  C   UNL     1       6.621   4.380  16.557  0.00  0.00    +0.000 A 
ATOM     20  H   UNL     1       7.411   4.011  14.212  0.00  0.00    +0.000 HD
ENDROOT
TORSDOF 0
ENDMDL
MODEL 4
REMARK VINA RESULT:      -6.7      1.993      3.860
REMARK  Name = 
REMARK  2 active torsions:
REMARK  status: ('A' for Active; 'I' for Inactive)
REMARK    1  A    between atoms: C_1  and  C_2
REMARK    2  A    between atoms: C_15  and  C_16
REMARK                            x       y       z     vdW  Elec       q    Type
REMARK                         _______ _______ _______ _____ _____    ______ ____
ROOT
ATOM      1  C   UNL     1       6.860   5.032  13.749  0.00  0.00    +0.000 C 
ATOM      2  C   UNL     1       6.214   4.443  14.972  0.00  0.00    +0.000 C 
ATOM      3  O   UNL     1       6.359   3.256  15.244  0.00  0.00    +0.000 OA
ATOM      4  N   UNL     1       5.508   5.379  15.714  0.00  0.00    +0.000 N 
ATOM      5  C   UNL     1       4.753   5.106  16.834  0.00  0.00    +0.000 A 
ATOM      6  N   UNL     1       4.647   3.917  17.325  0.00  0.00    +0.000 NA
ATOM      7  C   UNL     1       3.833   3.703  18.446  0.00  0.00    +0.000 A 
ATOM      8  C   UNL     1       3.772   2.392  18.922  0.00  0.00    +0.000 A 
ATOM      9  C   UNL     1       2.962   2.070  20.006  0.00  0.00    +0.000 A 
ATOM     10  C   UNL     1       2.212   3.071  20.617  0.00  0.00    +0.000 A 
ATOM     11 CL   UNL     1       1.192   2.669  21.943  0.00  0.00    +0.000 Cl
ATOM     12  C   UNL     1       2.269   4.396  20.166  0.00  0.00    +0.000 A 
ATOM     13  C   UNL     1       3.077   4.719  19.076  0.00  0.00    +0.000 A 
ATOM     14  N   UNL     1       3.224   6.017  18.522  0.00  0.00    +0.000 N 
ATOM     15  C   UNL     1       2.716   7.281  18.777  0.00  0.00    +0.000 A 
ATOM     16  C   UNL     1       1.718   7.717  19.781  0.00  0.00    +0.000 C 
ATOM     17  N   UNL     1       3.261   8.135  17.921  0.00  0.00    +0.000 NA
ATOM     18  N   UNL     1       4.096   7.457  17.075  0.00  0.00    +0.000 NA
ATOM     19  C   UNL     1       4.056   6.200  17.439  0.00  0.00    +0.000 A 
ATOM     20  H   UNL     1       5.491   6.340  15.394  0.00  0.00    +0.000 HD
ENDROOT
TORSDOF 0
ENDMDL
MODEL 5
REMARK VINA RESULT:      -6.5      4.093      6.085
REMARK  Name = 
REMARK  2 active torsions:
REMARK  status: ('A' for Active; 'I' for Inactive)
REMARK    1  A    between atoms: C_1  and  C_2
REMARK    2  A    between atoms: C_15  and  C_16
REMARK                            x       y       z     vdW  Elec       q    Type
REMARK                         _______ _______ _______ _____ _____    ______ ____
ROOT
ATOM      1  C   UNL     1       1.340   2.086  19.765  0.00  0.00    +0.000 C 
ATOM      2  C   UNL     1       2.135   2.521  18.565  0.00  0.00    +0.000 C 
ATOM      3  O   UNL     1       1.821   2.148  17.440  0.00  0.00    +0.000 OA
ATOM      4  N   UNL     1       3.180   3.373  18.891  0.00  0.00    +0.000 N 
ATOM      5  C   UNL     1       4.118   3.861  18.007  0.00  0.00    +0.000 A 
ATOM      6  N   UNL     1       4.096   3.577  16.747  0.00  0.00    +0.000 NA
ATOM      7  C   UNL     1       5.102   4.078  15.909  0.00  0.00    +0.000 A 
ATOM      8  C   UNL     1       5.008   3.733  14.560  0.00  0.00    +0.000 A 
ATOM      9  C   UNL     1       5.979   4.148  13.654  0.00  0.00    +0.000 A 
ATOM     10  C   UNL     1       7.047   4.918  14.106  0.00  0.00    +0.000 A 
ATOM     11 CL   UNL     1       8.260   5.413  12.990  0.00  0.00    +0.000 Cl
ATOM     12  C   UNL     1       7.153   5.290  15.452  0.00  0.00    +0.000 A 
ATOM     13  C   UNL     1       6.183   4.869  16.363  0.00  0.00    +0.000 A 
ATOM     14  N   UNL     1       6.173   5.174  17.747  0.00  0.00    +0.000 N 
ATOM     15  C   UNL     1       6.978   5.884  18.625  0.00  0.00    +0.000 A 
ATOM     16  C   UNL     1       8.262   6.580  18.382  0.00  0.00    +0.000 C 
ATOM     17  N   UNL     1       6.425   5.844  19.830  0.00  0.00    +0.000 NA
ATOM     18  N   UNL     1       5.284   5.090  19.780  0.00  0.00    +0.000 NA
ATOM     19  C   UNL     1       5.154   4.692  18.539  0.00  0.00    +0.000 A 
ATOM     20  H   UNL     1       3.315   3.629  19.862  0.00  0.00    +0.000 HD
ENDROOT
TORSDOF 0
ENDMDL
MODEL 6
REMARK VINA RESULT:      -6.5      3.016      5.357
REMARK  Name = 
REMARK  2 active torsions:
REMARK  status: ('A' for Active; 'I' for Inactive)
REMARK    1  A    between atoms: C_1  and  C_2
REMARK    2  A    between atoms: C_15  and  C_16
REMARK                            x       y       z     vdW  Elec       q    Type
REMARK                         _______ _______ _______ _____ _____    ______ ____
ROOT
ATOM      1  C   UNL     1       1.414  10.591  18.213  0.00  0.00    +0.000 C 
ATOM      2  C   UNL     1       1.646   9.179  18.674  0.00  0.00    +0.000 C 
ATOM      3  O   UNL     1       1.008   8.717  19.614  0.00  0.00    +0.000 OA
ATOM      4  N   UNL     1       2.595   8.512  17.913  0.00  0.00    +0.000 N 
ATOM      5  C   UNL     1       3.063   7.239  18.157  0.00  0.00    +0.000 A 
ATOM      6  N   UNL     1       2.632   6.518  19.138  0.00  0.00    +0.000 NA
ATOM      7  C   UNL     1       3.178   5.245  19.352  0.00  0.00    +0.000 A 
ATOM      8  C   UNL     1       2.658   4.524  20.427  0.00  0.00    +0.000 A 
ATOM      9  C   UNL     1       3.161   3.266  20.746  0.00  0.00    +0.000 A 
ATOM     10  C   UNL     1       4.189   2.729  19.975  0.00  0.00    +0.000 A 
ATOM     11 CL   UNL     1       4.826   1.183  20.382  0.00  0.00    +0.000 Cl
ATOM     12  C   UNL     1       4.715   3.428  18.881  0.00  0.00    +0.000 A 
ATOM     13  C   UNL     1       4.216   4.691  18.565  0.00  0.00    +0.000 A 
ATOM     14  N   UNL     1       4.660   5.500  17.489  0.00  0.00    +0.000 N 
ATOM     15  C   UNL     1       5.608   5.402  16.482  0.00  0.00    +0.000 A 
ATOM     16  C   UNL     1       6.595   4.332  16.211  0.00  0.00    +0.000 C 
ATOM     17  N   UNL     1       5.540   6.493  15.730  0.00  0.00    +0.000 NA
ATOM     18  N   UNL     1       4.588   7.334  16.238  0.00  0.00    +0.000 NA
ATOM     19  C   UNL     1       4.081   6.735  17.287  0.00  0.00    +0.000 A 
ATOM     20  H   UNL     1       3.029   9.000  17.140  0.00  0.00    +0.000 HD
ENDROOT
TORSDOF 0
ENDMDL
MODEL 7
REMARK VINA RESULT:      -6.3      2.352      4.287
REMARK  Name = 
REMARK  2 active torsions:
REMARK  status: ('A' for Active; 'I' for Inactive)
REMARK    1  A    between atoms: C_1  and  C_2
REMARK    2  A    between atoms: C_15  and  C_16
REMARK                            x       y       z     vdW  Elec       q    Type
REMARK                         _______ _______ _______ _____ _____    ______ ____
ROOT
ATOM      1  C   UNL     1       5.110   0.601  20.525  0.00  0.00    +0.000 C 
ATOM      2  C   UNL     1       4.521   1.982  20.470  0.00  0.00    +0.000 C 
ATOM      3  O   UNL     1       3.793   2.386  21.370  0.00  0.00    +0.000 OA
ATOM      4  N   UNL     1       4.920   2.694  19.348  0.00  0.00    +0.000 N 
ATOM      5  C   UNL     1       4.472   3.950  18.999  0.00  0.00    +0.000 A 
ATOM      6  N   UNL     1       3.628   4.611  19.720  0.00  0.00    +0.000 NA
ATOM      7  C   UNL     1       3.186   5.869  19.288  0.00  0.00    +0.000 A 
ATOM      8  C   UNL     1       2.279   6.524  20.121  0.00  0.00    +0.000 A 
ATOM      9  C   UNL     1       1.752   7.759  19.762  0.00  0.00    +0.000 A 
ATOM     10  C   UNL     1       2.143   8.343  18.560  0.00  0.00    +0.000 A 
ATOM     11 CL   UNL     1       1.474   9.862  18.104  0.00  0.00    +0.000 Cl
ATOM     12  C   UNL     1       3.064   7.712  17.715  0.00  0.00    +0.000 A 
ATOM     13  C   UNL     1       3.589   6.470  18.071  0.00  0.00    +0.000 A 
ATOM     14  N   UNL     1       4.526   5.727  17.308  0.00  0.00    +0.000 N 
ATOM     15  C   UNL     1       5.191   5.886  16.103  0.00  0.00    +0.000 A 
ATOM     16  C   UNL     1       5.089   6.972  15.100  0.00  0.00    +0.000 C 
ATOM     17  N   UNL     1       5.990   4.843  15.920  0.00  0.00    +0.000 NA
ATOM     18  N   UNL     1       5.843   3.973  16.965  0.00  0.00    +0.000 NA
ATOM     19  C   UNL     1       4.964   4.507  17.776  0.00  0.00    +0.000 A 
ATOM     20  H   UNL     1       5.552   2.254  18.692  0.00  0.00    +0.000 HD
ENDROOT
TORSDOF 0
ENDMDL
MODEL 8
REMARK VINA RESULT:      -6.3      3.273      5.363
REMARK  Name = 
REMARK  2 active torsions:
REMARK  status: ('A' for Active; 'I' for Inactive)
REMARK    1  A    between atoms: C_1  and  C_2
REMARK    2  A    between atoms: C_15  and  C_16
REMARK                            x       y       z     vdW  Elec       q    Type
REMARK                         _______ _______ _______ _____ _____    ______ ____
ROOT
ATOM      1  C   UNL     1       2.019  10.904  17.958  0.00  0.00    +0.000 C 
ATOM      2  C   UNL     1       1.947   9.404  18.024  0.00  0.00    +0.000 C 
ATOM      3  O   UNL     1       0.908   8.843  18.353  0.00  0.00    +0.000 OA
ATOM      4  N   UNL     1       3.135   8.791  17.651  0.00  0.00    +0.000 N 
ATOM      5  C   UNL     1       3.381   7.436  17.694  0.00  0.00    +0.000 A 
ATOM      6  N   UNL     1       2.492   6.582  18.078  0.00  0.00    +0.000 NA
ATOM      7  C   UNL     1       2.820   5.220  18.133  0.00  0.00    +0.000 A 
ATOM      8  C   UNL     1       1.806   4.357  18.553  0.00  0.00    +0.000 A 
ATOM      9  C   UNL     1       2.044   2.993  18.677  0.00  0.00    +0.000 A 
ATOM     10  C   UNL     1       3.307   2.491  18.374  0.00  0.00    +0.000 A 
ATOM     11 CL   UNL     1       3.609   0.806  18.550  0.00  0.00    +0.000 Cl
ATOM     12  C   UNL     1       4.335   3.335  17.936  0.00  0.00    +0.000 A 
ATOM     13  C   UNL     1       4.100   4.705  17.816  0.00  0.00    +0.000 A 
ATOM     14  N   UNL     1       5.050   5.665  17.386  0.00  0.00    +0.000 N 
ATOM     15  C   UNL     1       6.376   5.654  16.982  0.00  0.00    +0.000 A 
ATOM     16  C   UNL     1       7.336   4.529  16.911  0.00  0.00    +0.000 C 
ATOM     17  N   UNL     1       6.729   6.891  16.658  0.00  0.00    +0.000 NA
ATOM     18  N   UNL     1       5.673   7.734  16.873  0.00  0.00    +0.000 NA
ATOM     19  C   UNL     1       4.687   6.992  17.314  0.00  0.00    +0.000 A 
ATOM     20  H   UNL     1       3.915   9.371  17.369  0.00  0.00    +0.000 HD
ENDROOT
TORSDOF 0
ENDMDL
MODEL 9
REMARK VINA RESULT:      -6.3      3.196      5.721
REMARK  Name = 
REMARK  2 active torsions:
REMARK  status: ('A' for Active; 'I' for Inactive)
REMARK    1  A    between atoms: C_1  and  C_2
REMARK    2  A    between atoms: C_15  and  C_16
REMARK                            x       y       z     vdW  Elec       q    Type
REMARK                         _______ _______ _______ _____ _____    ______ ____
ROOT
ATOM      1  C   UNL     1       0.593  10.217  20.239  0.00  0.00    +0.000 C 
ATOM      2  C   UNL     1       0.966   8.769  20.390  0.00  0.00    +0.000 C 
ATOM      3  O   UNL     1       0.487   8.092  21.294  0.00  0.00    +0.000 OA
ATOM      4  N   UNL     1       1.842   8.332  19.407  0.00  0.00    +0.000 N 
ATOM      5  C   UNL     1       2.412   7.080  19.345  0.00  0.00    +0.000 A 
ATOM      6  N   UNL     1       2.159   6.159  20.214  0.00  0.00    +0.000 NA
ATOM      7  C   UNL     1       2.802   4.917  20.113  0.00  0.00    +0.000 A 
ATOM      8  C   UNL     1       2.474   3.972  21.085  0.00  0.00    +0.000 A 
ATOM      9  C   UNL     1       3.087   2.723  21.094  0.00  0.00    +0.000 A 
ATOM     10  C   UNL     1       4.033   2.422  20.117  0.00  0.00    +0.000 A 
ATOM     11 CL   UNL     1       4.808   0.885  20.141  0.00  0.00    +0.000 Cl
ATOM     12  C   UNL     1       4.366   3.349  19.122  0.00  0.00    +0.000 A 
ATOM     13  C   UNL     1       3.756   4.604  19.116  0.00  0.00    +0.000 A 
ATOM     14  N   UNL     1       4.004   5.629  18.168  0.00  0.00    +0.000 N 
ATOM     15  C   UNL     1       4.813   5.795  17.055  0.00  0.00    +0.000 A 
ATOM     16  C   UNL     1       5.816   4.877  16.468  0.00  0.00    +0.000 C 
ATOM     17  N   UNL     1       4.582   6.995  16.540  0.00  0.00    +0.000 NA
ATOM     18  N   UNL     1       3.659   7.648  17.310  0.00  0.00    +0.000 NA
ATOM     19  C   UNL     1       3.333   6.828  18.278  0.00  0.00    +0.000 A 
ATOM     20  H   UNL     1       2.140   8.988  18.694  0.00  0.00    +0.000 HD
ENDROOT
TORSDOF 0
ENDMDL
