MODEL 1
REMARK VINA RESULT:      -8.8      0.000      0.000
REMARK  Name = 
REMARK  6 active torsions:
REMARK  status: ('A' for Active; 'I' for Inactive)
REMARK    1  A    between atoms: C_1  and  C_2
REMARK    2  A    between atoms: N_4  and  C_5
REMARK    3  A    between atoms: C_8  and  O_9
REMARK    4  A    between atoms: O_9  and  C_10
REMARK    5  A    between atoms: C_15  and  N_16
REMARK    6  A    between atoms: N_19  and  C_20
REMARK                            x       y       z     vdW  Elec       q    Type
REMARK                         _______ _______ _______ _____ _____    ______ ____
ROOT
ATOM      1  C   UNL     1       0.470  11.245  18.716  0.00  0.00    +0.000 A 
ATOM      2  C   UNL     1       0.882  12.264  19.582  0.00  0.00    +0.000 A 
ATOM      3  C   UNL     1      -0.014  13.242  19.973  0.00  0.00    +0.000 A 
ATOM      4  C   UNL     1      -1.352  13.137  19.593  0.00  0.00    +0.000 A 
ATOM      5  C   UNL     1      -1.853  12.024  18.877  0.00  0.00    +0.000 A 
ATOM      6  C   UNL     1      -3.236  11.807  18.605  0.00  0.00    +0.000 A 
ATOM      7  C   UNL     1      -3.637  10.739  17.788  0.00  0.00    +0.000 A 
ATOM      8  C   UNL     1      -2.700   9.869  17.248  0.00  0.00    +0.000 A 
ATOM      9  C   UNL     1      -1.348  10.052  17.532  0.00  0.00    +0.000 A 
ATOM     10  C   UNL     1      -0.899  11.099  18.367  0.00  0.00    +0.000 A 
ENDROOT
BRANCH   6  11
ATOM     11  N   UNL     1      -4.308  12.596  19.105  0.00  0.00    +0.000 N 
ATOM     12  C   UNL     1      -4.727  12.621  20.429  0.00  0.00    +0.000 C 
ATOM     13  O   UNL     1      -4.191  12.033  21.357  0.00  0.00    +0.000 OA
ATOM     14  N   UNL     1      -5.895  13.367  20.558  0.00  0.00    +0.000 N 
ATOM     15  H   UNL     1      -5.019  12.833  18.436  0.00  0.00    +0.000 HD
ATOM     16  H   UNL     1      -6.519  13.327  19.768  0.00  0.00    +0.000 HD
BRANCH  14  17
ATOM     17  C   UNL     1      -6.502  13.582  21.812  0.00  0.00    +0.000 A 
ATOM     18  C   UNL     1      -6.267  14.744  22.552  0.00  0.00    +0.000 A 
ATOM     19  C   UNL     1      -6.852  14.905  23.808  0.00  0.00    +0.000 A 
ATOM     20  C   UNL     1      -7.658  13.898  24.335  0.00  0.00    +0.000 A 
ATOM     21  C   UNL     1      -7.909  12.746  23.590  0.00  0.00    +0.000 A 
ATOM     22  C   UNL     1      -7.353  12.599  22.318  0.00  0.00    +0.000 A 
ENDBRANCH  14  17
ENDBRANCH   6  11
BRANCH   1  23
ATOM     23  O   UNL     1       1.361  10.298  18.235  0.00  0.00    +0.000 OA
BRANCH  23  27
ATOM     24  C   UNL     1       2.076   6.683  20.218  0.00  0.00    +0.000 A 
ATOM     25  C   UNL     1       2.517   6.905  18.913  0.00  0.00    +0.000 A 
ATOM     26  C   UNL     1       2.252   8.121  18.269  0.00  0.00    +0.000 A 
ATOM     27  C   UNL     1       1.546   9.122  18.929  0.00  0.00    +0.000 A 
ATOM     28  C   UNL     1       1.122   8.916  20.247  0.00  0.00    +0.000 A 
ATOM     29  C   UNL     1       1.348   7.687  20.866  0.00  0.00    +0.000 A 
BRANCH  24  33
ATOM     30  C   UNL     1       2.166   3.244  21.755  0.00  0.00    +0.000 C 
ATOM     31  C   UNL     1       1.620   4.314  20.848  0.00  0.00    +0.000 C 
ATOM     32  O   UNL     1       0.655   4.093  20.128  0.00  0.00    +0.000 OA
ATOM     33  N   UNL     1       2.338   5.497  20.936  0.00  0.00    +0.000 N 
ATOM     34  H   UNL     1       3.200   5.472  21.466  0.00  0.00    +0.000 HD
ENDBRANCH  24  33
ENDBRANCH  23  27
ENDBRANCH   1  23
TORSDOF 5
ENDMDL
MODEL 2
REMARK VINA RESULT:      -7.8      1.376      2.567
REMARK  Name = 
REMARK  6 active torsions:
REMARK  status: ('A' for Active; 'I' for Inactive)
REMARK    1  A    between atoms: C_1  and  C_2
REMARK    2  A    between atoms: N_4  and  C_5
REMARK    3  A    between atoms: C_8  and  O_9
REMARK    4  A    between atoms: O_9  and  C_10
REMARK    5  A    between atoms: C_15  and  N_16
REMARK    6  A    between atoms: N_19  and  C_20
REMARK                            x       y       z     vdW  Elec       q    Type
REMARK                         _______ _______ _______ _____ _____    ______ ____
ROOT
ATOM      1  C   UNL     1       0.560  10.269  18.448  0.00  0.00    +0.000 A 
ATOM      2  C   UNL     1      -0.429   9.707  17.632  0.00  0.00    +0.000 A 
ATOM      3  C   UNL     1      -1.753  10.069  17.804  0.00  0.00    +0.000 A 
ATOM      4  C   UNL     1      -2.076  11.077  18.711  0.00  0.00    +0.000 A 
ATOM      5  C   UNL     1      -1.091  11.805  19.419  0.00  0.00    +0.000 A 
ATOM      6  C   UNL     1      -1.371  12.942  20.234  0.00  0.00    +0.000 A 
ATOM      7  C   UNL     1      -0.352  13.535  20.995  0.00  0.00    +0.000 A 
ATOM      8  C   UNL     1       0.943  13.040  20.953  0.00  0.00    +0.000 A 
ATOM      9  C   UNL     1       1.236  11.949  20.136  0.00  0.00    +0.000 A 
ATOM     10  C   UNL     1       0.249  11.334  19.336  0.00  0.00    +0.000 A 
ENDROOT
BRANCH   6  11
ATOM     11  N   UNL     1      -2.638  13.574  20.360  0.00  0.00    +0.000 N 
ATOM     12  C   UNL     1      -3.547  13.341  21.384  0.00  0.00    +0.000 C 
ATOM     13  O   UNL     1      -3.355  12.622  22.355  0.00  0.00    +0.000 OA
ATOM     14  N   UNL     1      -4.748  13.994  21.130  0.00  0.00    +0.000 N 
ATOM     15  H   UNL     1      -3.049  13.893  19.501  0.00  0.00    +0.000 HD
ATOM     16  H   UNL     1      -5.001  14.066  20.158  0.00  0.00    +0.000 HD
BRANCH  14  17
ATOM     17  C   UNL     1      -5.823  13.951  22.042  0.00  0.00    +0.000 A 
ATOM     18  C   UNL     1      -5.983  14.921  23.036  0.00  0.00    +0.000 A 
ATOM     19  C   UNL     1      -7.034  14.824  23.948  0.00  0.00    +0.000 A 
ATOM     20  C   UNL     1      -7.916  13.747  23.881  0.00  0.00    +0.000 A 
ATOM     21  C   UNL     1      -7.769  12.788  22.879  0.00  0.00    +0.000 A 
ATOM     22  C   UNL     1      -6.740  12.903  21.943  0.00  0.00    +0.000 A 
ENDBRANCH  14  17
ENDBRANCH   6  11
BRANCH   1  23
ATOM     23  O   UNL     1       1.884   9.868  18.363  0.00  0.00    +0.000 OA
BRANCH  23  27
ATOM     24  C   UNL     1       2.725   5.828  19.055  0.00  0.00    +0.000 A 
ATOM     25  C   UNL     1       2.069   6.615  20.003  0.00  0.00    +0.000 A 
ATOM     26  C   UNL     1       1.813   7.969  19.749  0.00  0.00    +0.000 A 
ATOM     27  C   UNL     1       2.208   8.542  18.544  0.00  0.00    +0.000 A 
ATOM     28  C   UNL     1       2.844   7.753  17.578  0.00  0.00    +0.000 A 
ATOM     29  C   UNL     1       3.138   6.418  17.856  0.00  0.00    +0.000 A 
BRANCH  24  33
ATOM     30  C   UNL     1       2.842   2.062  19.025  0.00  0.00    +0.000 C 
ATOM     31  C   UNL     1       2.314   3.410  18.610  0.00  0.00    +0.000 C 
ATOM     32  O   UNL     1       1.401   3.503  17.800  0.00  0.00    +0.000 OA
ATOM     33  N   UNL     1       2.984   4.452  19.231  0.00  0.00    +0.000 N 
ATOM     34  H   UNL     1       3.814   4.214  19.759  0.00  0.00    +0.000 HD
ENDBRANCH  24  33
ENDBRANCH  23  27
ENDBRANCH   1  23
TORSDOF 5
ENDMDL
MODEL 3
REMARK VINA RESULT:      -7.6      2.948     10.561
REMARK  Name = 
REMARK  6 active torsions:
REMARK  status: ('A' for Active; 'I' for Inactive)
REMARK    1  A    between atoms: C_1  and  C_2
REMARK    2  A    between atoms: N_4  and  C_5
REMARK    3  A    between atoms: C_8  and  O_9
REMARK    4  A    between atoms: O_9  and  C_10
REMARK    5  A    between atoms: C_15  and  N_16
REMARK    6  A    between atoms: N_19  and  C_20
REMARK                            x       y       z     vdW  Elec       q    Type
REMARK                         _______ _______ _______ _____ _____    ______ ____
ROOT
ATOM      1  C   UNL     1      -0.248  10.943  21.433  0.00  0.00    +0.000 A 
ATOM      2  C   UNL     1      -0.016  10.396  22.700  0.00  0.00    +0.000 A 
ATOM      3  C   UNL     1       0.530   9.130  22.815  0.00  0.00    +0.000 A 
ATOM      4  C   UNL     1       0.952   8.459  21.669  0.00  0.00    +0.000 A 
ATOM      5  C   UNL     1       0.912   9.051  20.384  0.00  0.00    +0.000 A 
ATOM      6  C   UNL     1       1.475   8.458  19.215  0.00  0.00    +0.000 A 
ATOM      7  C   UNL     1       1.289   9.058  17.960  0.00  0.00    +0.000 A 
ATOM      8  C   UNL     1       0.574  10.240  17.837  0.00  0.00    +0.000 A 
ATOM      9  C   UNL     1       0.046  10.845  18.977  0.00  0.00    +0.000 A 
ATOM     10  C   UNL     1       0.227  10.291  20.263  0.00  0.00    +0.000 A 
ENDROOT
BRANCH   6  11
ATOM     11  N   UNL     1       2.250   7.267  19.186  0.00  0.00    +0.000 N 
ATOM     12  C   UNL     1       3.328   7.039  18.342  0.00  0.00    +0.000 C 
ATOM     13  O   UNL     1       3.807   7.852  17.564  0.00  0.00    +0.000 OA
ATOM     14  N   UNL     1       3.765   5.723  18.451  0.00  0.00    +0.000 N 
ATOM     15  H   UNL     1       1.777   6.436  19.495  0.00  0.00    +0.000 HD
ATOM     16  H   UNL     1       3.044   5.045  18.641  0.00  0.00    +0.000 HD
BRANCH  14  17
ATOM     17  C   UNL     1       4.878   5.248  17.726  0.00  0.00    +0.000 A 
ATOM     18  C   UNL     1       6.182   5.385  18.210  0.00  0.00    +0.000 A 
ATOM     19  C   UNL     1       7.263   4.943  17.448  0.00  0.00    +0.000 A 
ATOM     20  C   UNL     1       7.044   4.378  16.192  0.00  0.00    +0.000 A 
ATOM     21  C   UNL     1       5.743   4.224  15.716  0.00  0.00    +0.000 A 
ATOM     22  C   UNL     1       4.658   4.634  16.493  0.00  0.00    +0.000 A 
ENDBRANCH  14  17
ENDBRANCH   6  11
BRANCH   1  23
ATOM     23  O   UNL     1      -0.872  12.171  21.277  0.00  0.00    +0.000 OA
BRANCH  23  27
ATOM     24  C   UNL     1      -4.680  12.770  22.904  0.00  0.00    +0.000 A 
ATOM     25  C   UNL     1      -3.565  12.535  23.710  0.00  0.00    +0.000 A 
ATOM     26  C   UNL     1      -2.304  12.324  23.136  0.00  0.00    +0.000 A 
ATOM     27  C   UNL     1      -2.151  12.352  21.753  0.00  0.00    +0.000 A 
ATOM     28  C   UNL     1      -3.260  12.613  20.940  0.00  0.00    +0.000 A 
ATOM     29  C   UNL     1      -4.521  12.774  21.515  0.00  0.00    +0.000 A 
BRANCH  24  33
ATOM     30  C   UNL     1      -7.916  14.183  24.219  0.00  0.00    +0.000 C 
ATOM     31  C   UNL     1      -6.515  14.272  23.673  0.00  0.00    +0.000 C 
ATOM     32  O   UNL     1      -5.982  15.358  23.489  0.00  0.00    +0.000 OA
ATOM     33  N   UNL     1      -5.970  13.023  23.416  0.00  0.00    +0.000 N 
ATOM     34  H   UNL     1      -6.593  12.229  23.480  0.00  0.00    +0.000 HD
ENDBRANCH  24  33
ENDBRANCH  23  27
ENDBRANCH   1  23
TORSDOF 5
ENDMDL
MODEL 4
REMARK VINA RESULT:      -7.5      1.669      2.788
REMARK  Name = 
REMARK  6 active torsions:
REMARK  status: ('A' for Active; 'I' for Inactive)
REMARK    1  A    between atoms: C_1  and  C_2
REMARK    2  A    between atoms: N_4  and  C_5
REMARK    3  A    between atoms: C_8  and  O_9
REMARK    4  A    between atoms: O_9  and  C_10
REMARK    5  A    between atoms: C_15  and  N_16
REMARK    6  A    between atoms: N_19  and  C_20
REMARK                            x       y       z     vdW  Elec       q    Type
REMARK                         _______ _______ _______ _____ _____    ______ ____
ROOT
ATOM      1  C   UNL     1       0.412  10.586  18.298  0.00  0.00    +0.000 A 
ATOM      2  C   UNL     1      -0.819  10.055  17.900  0.00  0.00    +0.000 A 
ATOM      3  C   UNL     1      -1.991  10.722  18.210  0.00  0.00    +0.000 A 
ATOM      4  C   UNL     1      -1.925  11.977  18.814  0.00  0.00    +0.000 A 
ATOM      5  C   UNL     1      -0.699  12.637  19.062  0.00  0.00    +0.000 A 
ATOM      6  C   UNL     1      -0.597  13.979  19.534  0.00  0.00    +0.000 A 
ATOM      7  C   UNL     1       0.656  14.519  19.864  0.00  0.00    +0.000 A 
ATOM      8  C   UNL     1       1.812  13.766  19.722  0.00  0.00    +0.000 A 
ATOM      9  C   UNL     1       1.728  12.464  19.232  0.00  0.00    +0.000 A 
ATOM     10  C   UNL     1       0.493  11.886  18.865  0.00  0.00    +0.000 A 
ENDROOT
BRANCH   6  11
ATOM     11  N   UNL     1      -1.685  14.878  19.707  0.00  0.00    +0.000 N 
ATOM     12  C   UNL     1      -2.524  14.908  20.813  0.00  0.00    +0.000 C 
ATOM     13  O   UNL     1      -2.400  14.223  21.819  0.00  0.00    +0.000 OA
ATOM     14  N   UNL     1      -3.579  15.789  20.603  0.00  0.00    +0.000 N 
ATOM     15  H   UNL     1      -2.097  15.227  18.860  0.00  0.00    +0.000 HD
ATOM     16  H   UNL     1      -3.899  15.857  19.650  0.00  0.00    +0.000 HD
BRANCH  14  17
ATOM     17  C   UNL     1      -4.551  16.033  21.596  0.00  0.00    +0.000 A 
ATOM     18  C   UNL     1      -4.392  17.046  22.546  0.00  0.00    +0.000 A 
ATOM     19  C   UNL     1      -5.352  17.233  23.539  0.00  0.00    +0.000 A 
ATOM     20  C   UNL     1      -6.465  16.396  23.597  0.00  0.00    +0.000 A 
ATOM     21  C   UNL     1      -6.635  15.396  22.639  0.00  0.00    +0.000 A 
ATOM     22  C   UNL     1      -5.692  15.231  21.623  0.00  0.00    +0.000 A 
ENDBRANCH  14  17
ENDBRANCH   6  11
BRANCH   1  23
ATOM     23  O   UNL     1       1.600   9.904  18.081  0.00  0.00    +0.000 OA
BRANCH  23  27
ATOM     24  C   UNL     1       2.435   6.230  19.903  0.00  0.00    +0.000 A 
ATOM     25  C   UNL     1       2.804   6.498  18.583  0.00  0.00    +0.000 A 
ATOM     26  C   UNL     1       2.499   7.733  17.995  0.00  0.00    +0.000 A 
ATOM     27  C   UNL     1       1.827   8.708  18.725  0.00  0.00    +0.000 A 
ATOM     28  C   UNL     1       1.476   8.457  20.056  0.00  0.00    +0.000 A 
ATOM     29  C   UNL     1       1.740   7.209  20.621  0.00  0.00    +0.000 A 
BRANCH  24  33
ATOM     30  C   UNL     1       2.522   2.823  21.508  0.00  0.00    +0.000 C 
ATOM     31  C   UNL     1       1.876   3.956  20.755  0.00  0.00    +0.000 C 
ATOM     32  O   UNL     1       0.717   3.871  20.369  0.00  0.00    +0.000 OA
ATOM     33  N   UNL     1       2.739   5.024  20.567  0.00  0.00    +0.000 N 
ATOM     34  H   UNL     1       3.710   4.878  20.814  0.00  0.00    +0.000 HD
ENDBRANCH  24  33
ENDBRANCH  23  27
ENDBRANCH   1  23
TORSDOF 5
ENDMDL
MODEL 5
REMARK VINA RESULT:      -7.4      1.668      2.795
REMARK  Name = 
REMARK  6 active torsions:
REMARK  status: ('A' for Active; 'I' for Inactive)
REMARK    1  A    between atoms: C_1  and  C_2
REMARK    2  A    between atoms: N_4  and  C_5
REMARK    3  A    between atoms: C_8  and  O_9
REMARK    4  A    between atoms: O_9  and  C_10
REMARK    5  A    between atoms: C_15  and  N_16
REMARK    6  A    between atoms: N_19  and  C_20
REMARK                            x       y       z     vdW  Elec       q    Type
REMARK                         _______ _______ _______ _____ _____    ______ ____
ROOT
ATOM      1  C   UNL     1       0.680  10.235  18.487  0.00  0.00    +0.000 A 
ATOM      2  C   UNL     1      -0.345   9.645  17.740  0.00  0.00    +0.000 A 
ATOM      3  C   UNL     1      -1.638  10.125  17.844  0.00  0.00    +0.000 A 
ATOM      4  C   UNL     1      -1.886  11.268  18.602  0.00  0.00    +0.000 A 
ATOM      5  C   UNL     1      -0.851  12.008  19.221  0.00  0.00    +0.000 A 
ATOM      6  C   UNL     1      -1.047  13.261  19.873  0.00  0.00    +0.000 A 
ATOM      7  C   UNL     1       0.012  13.873  20.562  0.00  0.00    +0.000 A 
ATOM      8  C   UNL     1       1.266  13.280  20.605  0.00  0.00    +0.000 A 
ATOM      9  C   UNL     1       1.477  12.071  19.945  0.00  0.00    +0.000 A 
ATOM     10  C   UNL     1       0.448  11.430  19.220  0.00  0.00    +0.000 A 
ENDROOT
BRANCH   6  11
ATOM     11  N   UNL     1      -2.262  13.999  19.895  0.00  0.00    +0.000 N 
ATOM     12  C   UNL     1      -3.293  13.807  20.805  0.00  0.00    +0.000 C 
ATOM     13  O   UNL     1      -3.270  13.036  21.755  0.00  0.00    +0.000 OA
ATOM     14  N   UNL     1      -4.401  14.574  20.458  0.00  0.00    +0.000 N 
ATOM     15  H   UNL     1      -2.549  14.386  19.014  0.00  0.00    +0.000 HD
ATOM     16  H   UNL     1      -4.538  14.707  19.469  0.00  0.00    +0.000 HD
BRANCH  14  17
ATOM     17  C   UNL     1      -5.568  14.591  21.249  0.00  0.00    +0.000 A 
ATOM     18  C   UNL     1      -6.653  13.753  20.976  0.00  0.00    +0.000 A 
ATOM     19  C   UNL     1      -7.809  13.826  21.753  0.00  0.00    +0.000 A 
ATOM     20  C   UNL     1      -7.890  14.749  22.794  0.00  0.00    +0.000 A 
ATOM     21  C   UNL     1      -6.802  15.574  23.080  0.00  0.00    +0.000 A 
ATOM     22  C   UNL     1      -5.631  15.477  22.325  0.00  0.00    +0.000 A 
ENDBRANCH  14  17
ENDBRANCH   6  11
BRANCH   1  23
ATOM     23  O   UNL     1       1.970   9.728  18.475  0.00  0.00    +0.000 OA
BRANCH  23  27
ATOM     24  C   UNL     1       2.757   5.681  19.196  0.00  0.00    +0.000 A 
ATOM     25  C   UNL     1       3.110   6.296  17.994  0.00  0.00    +0.000 A 
ATOM     26  C   UNL     1       2.822   7.650  17.775  0.00  0.00    +0.000 A 
ATOM     27  C   UNL     1       2.182   8.397  18.759  0.00  0.00    +0.000 A 
ATOM     28  C   UNL     1       1.848   7.794  19.978  0.00  0.00    +0.000 A 
ATOM     29  C   UNL     1       2.095   6.435  20.171  0.00  0.00    +0.000 A 
BRANCH  24  33
ATOM     30  C   UNL     1       4.261   2.297  19.888  0.00  0.00    +0.000 C 
ATOM     31  C   UNL     1       4.309   3.761  19.540  0.00  0.00    +0.000 C 
ATOM     32  O   UNL     1       5.379   4.325  19.344  0.00  0.00    +0.000 OA
ATOM     33  N   UNL     1       3.047   4.334  19.495  0.00  0.00    +0.000 N 
ATOM     34  H   UNL     1       2.276   3.770  19.828  0.00  0.00    +0.000 HD
ENDBRANCH  24  33
ENDBRANCH  23  27
ENDBRANCH   1  23
TORSDOF 5
ENDMDL
MODEL 6
REMARK VINA RESULT:      -7.4      2.671      9.893
REMARK  Name = 
REMARK  6 active torsions:
REMARK  status: ('A' for Active; 'I' for Inactive)
REMARK    1  A    between atoms: C_1  and  C_2
REMARK    2  A    between atoms: N_4  and  C_5
REMARK    3  A    between atoms: C_8  and  O_9
REMARK    4  A    between atoms: O_9  and  C_10
REMARK    5  A    between atoms: C_15  and  N_16
REMARK    6  A    between atoms: N_19  and  C_20
REMARK                            x       y       z     vdW  Elec       q    Type
REMARK                         _______ _______ _______ _____ _____    ______ ____
ROOT
ATOM      1  C   UNL     1      -0.178  11.251  21.894  0.00  0.00    +0.000 A 
ATOM      2  C   UNL     1      -0.548  10.116  22.624  0.00  0.00    +0.000 A 
ATOM      3  C   UNL     1      -0.456   8.863  22.045  0.00  0.00    +0.000 A 
ATOM      4  C   UNL     1       0.116   8.733  20.780  0.00  0.00    +0.000 A 
ATOM      5  C   UNL     1       0.678   9.830  20.084  0.00  0.00    +0.000 A 
ATOM      6  C   UNL     1       1.406   9.712  18.864  0.00  0.00    +0.000 A 
ATOM      7  C   UNL     1       1.829  10.861  18.179  0.00  0.00    +0.000 A 
ATOM      8  C   UNL     1       1.563  12.125  18.684  0.00  0.00    +0.000 A 
ATOM      9  C   UNL     1       0.880  12.253  19.892  0.00  0.00    +0.000 A 
ATOM     10  C   UNL     1       0.455  11.125  20.628  0.00  0.00    +0.000 A 
ENDROOT
BRANCH   6  11
ATOM     11  N   UNL     1       1.774   8.489  18.238  0.00  0.00    +0.000 N 
ATOM     12  C   UNL     1       2.314   7.390  18.893  0.00  0.00    +0.000 C 
ATOM     13  O   UNL     1       2.477   7.291  20.101  0.00  0.00    +0.000 OA
ATOM     14  N   UNL     1       2.709   6.421  17.977  0.00  0.00    +0.000 N 
ATOM     15  H   UNL     1       2.016   8.557  17.266  0.00  0.00    +0.000 HD
ATOM     16  H   UNL     1       3.046   6.774  17.096  0.00  0.00    +0.000 HD
BRANCH  14  17
ATOM     17  C   UNL     1       3.251   5.186  18.391  0.00  0.00    +0.000 A 
ATOM     18  C   UNL     1       2.449   4.055  18.569  0.00  0.00    +0.000 A 
ATOM     19  C   UNL     1       3.012   2.861  19.020  0.00  0.00    +0.000 A 
ATOM     20  C   UNL     1       4.374   2.800  19.312  0.00  0.00    +0.000 A 
ATOM     21  C   UNL     1       5.178   3.923  19.118  0.00  0.00    +0.000 A 
ATOM     22  C   UNL     1       4.623   5.108  18.632  0.00  0.00    +0.000 A 
ENDBRANCH  14  17
ENDBRANCH   6  11
BRANCH   1  23
ATOM     23  O   UNL     1      -0.337  12.528  22.409  0.00  0.00    +0.000 OA
BRANCH  23  27
ATOM     24  C   UNL     1      -4.244  13.802  23.199  0.00  0.00    +0.000 A 
ATOM     25  C   UNL     1      -3.890  13.232  21.975  0.00  0.00    +0.000 A 
ATOM     26  C   UNL     1      -2.570  12.827  21.734  0.00  0.00    +0.000 A 
ATOM     27  C   UNL     1      -1.599  12.986  22.717  0.00  0.00    +0.000 A 
ATOM     28  C   UNL     1      -1.952  13.533  23.957  0.00  0.00    +0.000 A 
ATOM     29  C   UNL     1      -3.257  13.978  24.174  0.00  0.00    +0.000 A 
BRANCH  24  33
ATOM     30  C   UNL     1      -7.864  14.117  24.196  0.00  0.00    +0.000 C 
ATOM     31  C   UNL     1      -6.584  13.366  23.941  0.00  0.00    +0.000 C 
ATOM     32  O   UNL     1      -6.521  12.156  24.118  0.00  0.00    +0.000 OA
ATOM     33  N   UNL     1      -5.559  14.200  23.520  0.00  0.00    +0.000 N 
ATOM     34  H   UNL     1      -5.729  15.196  23.568  0.00  0.00    +0.000 HD
ENDBRANCH  24  33
ENDBRANCH  23  27
ENDBRANCH   1  23
TORSDOF 5
ENDMDL
MODEL 7
REMARK VINA RESULT:      -7.4      3.010      4.260
REMARK  Name = 
REMARK  6 active torsions:
REMARK  status: ('A' for Active; 'I' for Inactive)
REMARK    1  A    between atoms: C_1  and  C_2
REMARK    2  A    between atoms: N_4  and  C_5
REMARK    3  A    between atoms: C_8  and  O_9
REMARK    4  A    between atoms: O_9  and  C_10
REMARK    5  A    between atoms: C_15  and  N_16
REMARK    6  A    between atoms: N_19  and  C_20
REMARK                            x       y       z     vdW  Elec       q    Type
REMARK                         _______ _______ _______ _____ _____    ______ ____
ROOT
ATOM      1  C   UNL     1       1.394   8.466  19.720  0.00  0.00    +0.000 A 
ATOM      2  C   UNL     1       1.305   8.924  18.401  0.00  0.00    +0.000 A 
ATOM      3  C   UNL     1       0.403   9.921  18.076  0.00  0.00    +0.000 A 
ATOM      4  C   UNL     1      -0.326  10.542  19.090  0.00  0.00    +0.000 A 
ATOM      5  C   UNL     1      -0.131  10.243  20.458  0.00  0.00    +0.000 A 
ATOM      6  C   UNL     1      -0.742  10.962  21.527  0.00  0.00    +0.000 A 
ATOM      7  C   UNL     1      -0.586  10.527  22.853  0.00  0.00    +0.000 A 
ATOM      8  C   UNL     1       0.177   9.406  23.145  0.00  0.00    +0.000 A 
ATOM      9  C   UNL     1       0.806   8.713  22.112  0.00  0.00    +0.000 A 
ATOM     10  C   UNL     1       0.696   9.127  20.766  0.00  0.00    +0.000 A 
ENDROOT
BRANCH   6  11
ATOM     11  N   UNL     1      -1.529  12.138  21.387  0.00  0.00    +0.000 N 
ATOM     12  C   UNL     1      -2.634  12.454  22.166  0.00  0.00    +0.000 C 
ATOM     13  O   UNL     1      -3.037  11.810  23.124  0.00  0.00    +0.000 OA
ATOM     14  N   UNL     1      -3.273  13.586  21.671  0.00  0.00    +0.000 N 
ATOM     15  H   UNL     1      -1.532  12.549  20.470  0.00  0.00    +0.000 HD
ATOM     16  H   UNL     1      -3.238  13.697  20.671  0.00  0.00    +0.000 HD
BRANCH  14  17
ATOM     17  C   UNL     1      -4.401  14.141  22.312  0.00  0.00    +0.000 A 
ATOM     18  C   UNL     1      -5.702  13.767  21.963  0.00  0.00    +0.000 A 
ATOM     19  C   UNL     1      -6.795  14.367  22.588  0.00  0.00    +0.000 A 
ATOM     20  C   UNL     1      -6.591  15.355  23.550  0.00  0.00    +0.000 A 
ATOM     21  C   UNL     1      -5.293  15.716  23.912  0.00  0.00    +0.000 A 
ATOM     22  C   UNL     1      -4.198  15.091  23.313  0.00  0.00    +0.000 A 
ENDBRANCH  14  17
ENDBRANCH   6  11
BRANCH   1  23
ATOM     23  O   UNL     1       2.224   7.411  20.067  0.00  0.00    +0.000 OA
BRANCH  23  27
ATOM     24  C   UNL     1       4.185   5.203  17.102  0.00  0.00    +0.000 A 
ATOM     25  C   UNL     1       4.685   6.421  17.563  0.00  0.00    +0.000 A 
ATOM     26  C   UNL     1       4.000   7.146  18.548  0.00  0.00    +0.000 A 
ATOM     27  C   UNL     1       2.812   6.653  19.079  0.00  0.00    +0.000 A 
ATOM     28  C   UNL     1       2.317   5.419  18.640  0.00  0.00    +0.000 A 
ATOM     29  C   UNL     1       2.979   4.726  17.626  0.00  0.00    +0.000 A 
BRANCH  24  33
ATOM     30  C   UNL     1       6.140   3.753  14.226  0.00  0.00    +0.000 C 
ATOM     31  C   UNL     1       5.577   4.872  15.060  0.00  0.00    +0.000 C 
ATOM     32  O   UNL     1       5.795   6.042  14.769  0.00  0.00    +0.000 OA
ATOM     33  N   UNL     1       4.840   4.407  16.139  0.00  0.00    +0.000 N 
ATOM     34  H   UNL     1       4.880   3.413  16.327  0.00  0.00    +0.000 HD
ENDBRANCH  24  33
ENDBRANCH  23  27
ENDBRANCH   1  23
TORSDOF 5
ENDMDL
MODEL 8
REMARK VINA RESULT:      -7.4      2.314      3.021
REMARK  Name = 
REMARK  6 active torsions:
REMARK  status: ('A' for Active; 'I' for Inactive)
REMARK    1  A    between atoms: C_1  and  C_2
REMARK    2  A    between atoms: N_4  and  C_5
REMARK    3  A    between atoms: C_8  and  O_9
REMARK    4  A    between atoms: O_9  and  C_10
REMARK    5  A    between atoms: C_15  and  N_16
REMARK    6  A    between atoms: N_19  and  C_20
REMARK                            x       y       z     vdW  Elec       q    Type
REMARK                         _______ _______ _______ _____ _____    ______ ____
ROOT
ATOM      1  C   UNL     1       0.884   9.362  20.503  0.00  0.00    +0.000 A 
ATOM      2  C   UNL     1       0.520   8.463  21.511  0.00  0.00    +0.000 A 
ATOM      3  C   UNL     1      -0.157   8.918  22.629  0.00  0.00    +0.000 A 
ATOM      4  C   UNL     1      -0.574  10.247  22.684  0.00  0.00    +0.000 A 
ATOM      5  C   UNL     1      -0.395  11.145  21.605  0.00  0.00    +0.000 A 
ATOM      6  C   UNL     1      -0.941  12.461  21.563  0.00  0.00    +0.000 A 
ATOM      7  C   UNL     1      -0.619  13.327  20.507  0.00  0.00    +0.000 A 
ATOM      8  C   UNL     1       0.218  12.914  19.482  0.00  0.00    +0.000 A 
ATOM      9  C   UNL     1       0.734  11.619  19.495  0.00  0.00    +0.000 A 
ATOM     10  C   UNL     1       0.419  10.704  20.524  0.00  0.00    +0.000 A 
ENDROOT
BRANCH   6  11
ATOM     11  N   UNL     1      -1.829  13.016  22.525  0.00  0.00    +0.000 N 
ATOM     12  C   UNL     1      -3.209  13.088  22.386  0.00  0.00    +0.000 C 
ATOM     13  O   UNL     1      -3.856  12.620  21.460  0.00  0.00    +0.000 OA
ATOM     14  N   UNL     1      -3.767  13.827  23.424  0.00  0.00    +0.000 N 
ATOM     15  H   UNL     1      -1.432  13.715  23.128  0.00  0.00    +0.000 HD
ATOM     16  H   UNL     1      -3.195  14.580  23.771  0.00  0.00    +0.000 HD
BRANCH  14  17
ATOM     17  C   UNL     1      -5.161  14.012  23.537  0.00  0.00    +0.000 A 
ATOM     18  C   UNL     1      -5.769  15.228  23.213  0.00  0.00    +0.000 A 
ATOM     19  C   UNL     1      -7.145  15.389  23.377  0.00  0.00    +0.000 A 
ATOM     20  C   UNL     1      -7.913  14.342  23.883  0.00  0.00    +0.000 A 
ATOM     21  C   UNL     1      -7.310  13.121  24.189  0.00  0.00    +0.000 A 
ATOM     22  C   UNL     1      -5.939  12.947  23.992  0.00  0.00    +0.000 A 
ENDBRANCH  14  17
ENDBRANCH   6  11
BRANCH   1  23
ATOM     23  O   UNL     1       1.637   8.960  19.410  0.00  0.00    +0.000 OA
BRANCH  23  27
ATOM     24  C   UNL     1       3.017   5.035  18.966  0.00  0.00    +0.000 A 
ATOM     25  C   UNL     1       3.204   5.996  17.972  0.00  0.00    +0.000 A 
ATOM     26  C   UNL     1       2.719   7.300  18.143  0.00  0.00    +0.000 A 
ATOM     27  C   UNL     1       2.048   7.650  19.311  0.00  0.00    +0.000 A 
ATOM     28  C   UNL     1       1.880   6.698  20.323  0.00  0.00    +0.000 A 
ATOM     29  C   UNL     1       2.323   5.389  20.127  0.00  0.00    +0.000 A 
BRANCH  24  33
ATOM     30  C   UNL     1       3.713   1.396  18.276  0.00  0.00    +0.000 C 
ATOM     31  C   UNL     1       2.931   2.678  18.159  0.00  0.00    +0.000 C 
ATOM     32  O   UNL     1       1.913   2.731  17.479  0.00  0.00    +0.000 OA
ATOM     33  N   UNL     1       3.509   3.715  18.874  0.00  0.00    +0.000 N 
ATOM     34  H   UNL     1       4.429   3.549  19.261  0.00  0.00    +0.000 HD
ENDBRANCH  24  33
ENDBRANCH  23  27
ENDBRANCH   1  23
TORSDOF 5
ENDMDL
MODEL 9
REMARK VINA RESULT:      -7.4      2.331     10.269
REMARK  Name = 
REMARK  6 active torsions:
REMARK  status: ('A' for Active; 'I' for Inactive)
REMARK    1  A    between atoms: C_1  and  C_2
REMARK    2  A    between atoms: N_4  and  C_5
REMARK    3  A    between atoms: C_8  and  O_9
REMARK    4  A    between atoms: O_9  and  C_10
REMARK    5  A    between atoms: C_15  and  N_16
REMARK    6  A    between atoms: N_19  and  C_20
REMARK                            x       y       z     vdW  Elec       q    Type
REMARK                         _______ _______ _______ _____ _____    ______ ____
ROOT
ATOM      1  C   UNL     1      -0.536  11.501  21.251  0.00  0.00    +0.000 A 
ATOM      2  C   UNL     1      -0.799  11.194  22.590  0.00  0.00    +0.000 A 
ATOM      3  C   UNL     1      -0.503   9.934  23.080  0.00  0.00    +0.000 A 
ATOM      4  C   UNL     1       0.163   9.021  22.264  0.00  0.00    +0.000 A 
ATOM      5  C   UNL     1       0.618   9.353  20.966  0.00  0.00    +0.000 A 
ATOM      6  C   UNL     1       1.434   8.501  20.165  0.00  0.00    +0.000 A 
ATOM      7  C   UNL     1       1.745   8.858  18.843  0.00  0.00    +0.000 A 
ATOM      8  C   UNL     1       1.281  10.048  18.303  0.00  0.00    +0.000 A 
ATOM      9  C   UNL     1       0.509  10.904  19.087  0.00  0.00    +0.000 A 
ATOM     10  C   UNL     1       0.190  10.598  20.428  0.00  0.00    +0.000 A 
ENDROOT
BRANCH   6  11
ATOM     11  N   UNL     1       2.001   7.267  20.586  0.00  0.00    +0.000 N 
ATOM     12  C   UNL     1       2.238   6.176  19.760  0.00  0.00    +0.000 C 
ATOM     13  O   UNL     1       2.064   6.149  18.550  0.00  0.00    +0.000 OA
ATOM     14  N   UNL     1       2.648   5.077  20.507  0.00  0.00    +0.000 N 
ATOM     15  H   UNL     1       1.865   7.037  21.554  0.00  0.00    +0.000 HD
ATOM     16  H   UNL     1       2.247   5.010  21.429  0.00  0.00    +0.000 HD
BRANCH  14  17
ATOM     17  C   UNL     1       2.993   3.853  19.897  0.00  0.00    +0.000 A 
ATOM     18  C   UNL     1       4.303   3.576  19.497  0.00  0.00    +0.000 A 
ATOM     19  C   UNL     1       4.601   2.372  18.858  0.00  0.00    +0.000 A 
ATOM     20  C   UNL     1       3.588   1.450  18.603  0.00  0.00    +0.000 A 
ATOM     21  C   UNL     1       2.283   1.717  19.018  0.00  0.00    +0.000 A 
ATOM     22  C   UNL     1       1.990   2.906  19.689  0.00  0.00    +0.000 A 
ENDBRANCH  14  17
ENDBRANCH   6  11
BRANCH   1  23
ATOM     23  O   UNL     1      -0.897  12.723  20.702  0.00  0.00    +0.000 OA
BRANCH  23  27
ATOM     24  C   UNL     1      -4.538  14.557  21.643  0.00  0.00    +0.000 A 
ATOM     25  C   UNL     1      -3.316  15.102  22.039  0.00  0.00    +0.000 A 
ATOM     26  C   UNL     1      -2.113  14.458  21.721  0.00  0.00    +0.000 A 
ATOM     27  C   UNL     1      -2.125  13.268  21.002  0.00  0.00    +0.000 A 
ATOM     28  C   UNL     1      -3.345  12.728  20.578  0.00  0.00    +0.000 A 
ATOM     29  C   UNL     1      -4.542  13.348  20.938  0.00  0.00    +0.000 A 
BRANCH  24  33
ATOM     30  C   UNL     1      -7.912  15.675  22.893  0.00  0.00    +0.000 C 
ATOM     31  C   UNL     1      -6.674  14.817  22.901  0.00  0.00    +0.000 C 
ATOM     32  O   UNL     1      -6.529  13.933  23.736  0.00  0.00    +0.000 OA
ATOM     33  N   UNL     1      -5.783  15.169  21.899  0.00  0.00    +0.000 N 
ATOM     34  H   UNL     1      -5.982  16.018  21.386  0.00  0.00    +0.000 HD
ENDBRANCH  24  33
ENDBRANCH  23  27
ENDBRANCH   1  23
TORSDOF 5
ENDMDL
