MODEL 1
REMARK VINA RESULT:      -5.9      0.000      0.000
REMARK  Name = 
REMARK  19 active torsions:
REMARK  status: ('A' for Active; 'I' for Inactive)
REMARK    1  A    between atoms: C_1  and  C_2
REMARK    2  A    between atoms: C_2  and  C_3
REMARK    3  A    between atoms: C_3  and  C_4
REMARK    4  A    between atoms: C_4  and  C_5
REMARK    5  A    between atoms: C_5  and  C_6
REMARK    6  A    between atoms: C_6  and  C_7
REMARK    7  A    between atoms: C_7  and  C_8
REMARK    8  A    between atoms: C_8  and  C_9
REMARK    9  A    between atoms: C_9  and  C_10
REMARK   10  A    between atoms: C_10  and  C_11
REMARK   11  A    between atoms: C_11  and  C_12
REMARK   12  A    between atoms: C_12  and  C_13
REMARK   13  A    between atoms: C_13  and  C_14
REMARK   14  A    between atoms: C_14  and  N_15
REMARK   15  A    between atoms: N_15  and  C_16
REMARK   16  A    between atoms: C_16  and  C_17
REMARK   17  A    between atoms: C_16  and  C_18
REMARK   18  A    between atoms: C_18  and  O_19
REMARK   19  A    between atoms: C_18  and  C_20
REMARK                            x       y       z     vdW  Elec       q    Type
REMARK                         _______ _______ _______ _____ _____    ______ ____
ROOT
ATOM      1  C   UNL     1       4.293   6.713  16.532  0.00  0.00    +0.000 C 
ENDROOT
BRANCH   1   2
ATOM      2  N   UNL     1       5.693   6.750  16.074  0.00  0.00    +0.000 NA
ATOM      3  H   UNL     1       5.947   7.728  15.805  0.00  0.00    +0.000 HD
BRANCH   2   4
ATOM      4  C   UNL     1       6.643   6.223  17.068  0.00  0.00    +0.000 C 
ATOM      5  C   UNL     1       7.623   7.318  17.544  0.00  0.00    +0.000 C 
BRANCH   4   6
ATOM      6  C   UNL     1       7.449   5.035  16.461  0.00  0.00    +0.000 C 
BRANCH   6   7
ATOM      7  C   UNL     1       7.135   4.751  15.000  0.00  0.00    +0.000 A 
ATOM      8  C   UNL     1       7.908   5.348  13.985  0.00  0.00    +0.000 A 
ATOM      9  C   UNL     1       7.658   5.056  12.640  0.00  0.00    +0.000 A 
ATOM     10  C   UNL     1       6.634   4.174  12.291  0.00  0.00    +0.000 A 
ATOM     11  C   UNL     1       5.855   3.582  13.288  0.00  0.00    +0.000 A 
ATOM     12  C   UNL     1       6.104   3.864  14.635  0.00  0.00    +0.000 A 
ENDBRANCH   6   7
BRANCH   6  13
ATOM     13  O   UNL     1       7.258   3.863  17.214  0.00  0.00    +0.000 OA
ATOM     14  H   UNL     1       7.150   3.106  16.581  0.00  0.00    +0.000 HD
ENDBRANCH   6  13
ENDBRANCH   4   6
ENDBRANCH   2   4
ENDBRANCH   1   2
BRANCH   1  15
ATOM     15  C   UNL     1       4.154   5.821  17.760  0.00  0.00    +0.000 C 
BRANCH  15  16
ATOM     16  C   UNL     1       3.103   4.744  17.524  0.00  0.00    +0.000 C 
BRANCH  16  17
ATOM     17  C   UNL     1       3.767   3.387  17.344  0.00  0.00    +0.000 C 
BRANCH  17  18
ATOM     18  C   UNL     1       2.781   2.292  17.719  0.00  0.00    +0.000 C 
BRANCH  18  19
ATOM     19  C   UNL     1       1.688   2.852  18.613  0.00  0.00    +0.000 C 
BRANCH  19  20
ATOM     20  C   UNL     1       1.827   2.274  20.013  0.00  0.00    +0.000 C 
BRANCH  20  21
ATOM     21  C   UNL     1       1.481   3.334  21.049  0.00  0.00    +0.000 C 
BRANCH  21  22
ATOM     22  C   UNL     1       0.969   4.591  20.358  0.00  0.00    +0.000 C 
BRANCH  22  23
ATOM     23  C   UNL     1       1.879   5.768  20.680  0.00  0.00    +0.000 C 
BRANCH  23  24
ATOM     24  C   UNL     1       1.051   6.978  21.099  0.00  0.00    +0.000 C 
BRANCH  24  25
ATOM     25  C   UNL     1       1.626   8.250  20.482  0.00  0.00    +0.000 C 
BRANCH  25  27
ATOM     26  C   UNL     1       0.258   9.208  22.358  0.00  0.00    +0.000 C 
ATOM     27  C   UNL     1       0.880   9.482  20.994  0.00  0.00    +0.000 C 
ENDBRANCH  25  27
ENDBRANCH  24  25
ENDBRANCH  23  24
ENDBRANCH  22  23
ENDBRANCH  21  22
ENDBRANCH  20  21
ENDBRANCH  19  20
ENDBRANCH  18  19
ENDBRANCH  17  18
ENDBRANCH  16  17
ENDBRANCH  15  16
ENDBRANCH   1  15
TORSDOF 17
ENDMDL
MODEL 2
REMARK VINA RESULT:      -5.8      2.156      4.317
REMARK  Name = 
REMARK  19 active torsions:
REMARK  status: ('A' for Active; 'I' for Inactive)
REMARK    1  A    between atoms: C_1  and  C_2
REMARK    2  A    between atoms: C_2  and  C_3
REMARK    3  A    between atoms: C_3  and  C_4
REMARK    4  A    between atoms: C_4  and  C_5
REMARK    5  A    between atoms: C_5  and  C_6
REMARK    6  A    between atoms: C_6  and  C_7
REMARK    7  A    between atoms: C_7  and  C_8
REMARK    8  A    between atoms: C_8  and  C_9
REMARK    9  A    between atoms: C_9  and  C_10
REMARK   10  A    between atoms: C_10  and  C_11
REMARK   11  A    between atoms: C_11  and  C_12
REMARK   12  A    between atoms: C_12  and  C_13
REMARK   13  A    between atoms: C_13  and  C_14
REMARK   14  A    between atoms: C_14  and  N_15
REMARK   15  A    between atoms: N_15  and  C_16
REMARK   16  A    between atoms: C_16  and  C_17
REMARK   17  A    between atoms: C_16  and  C_18
REMARK   18  A    between atoms: C_18  and  O_19
REMARK   19  A    between atoms: C_18  and  C_20
REMARK                            x       y       z     vdW  Elec       q    Type
REMARK                         _______ _______ _______ _____ _____    ______ ____
ROOT
ATOM      1  C   UNL     1       1.971   3.524  17.737  0.00  0.00    +0.000 C 
ENDROOT
BRANCH   1   2
ATOM      2  N   UNL     1       3.222   3.043  17.124  0.00  0.00    +0.000 NA
ATOM      3  H   UNL     1       3.008   2.571  16.215  0.00  0.00    +0.000 HD
BRANCH   2   4
ATOM      4  C   UNL     1       4.220   4.108  16.932  0.00  0.00    +0.000 C 
ATOM      5  C   UNL     1       5.345   3.658  15.972  0.00  0.00    +0.000 C 
BRANCH   4   6
ATOM      6  C   UNL     1       4.842   4.513  18.302  0.00  0.00    +0.000 C 
BRANCH   6   7
ATOM      7  C   UNL     1       5.958   5.541  18.202  0.00  0.00    +0.000 A 
ATOM      8  C   UNL     1       5.828   6.637  17.326  0.00  0.00    +0.000 A 
ATOM      9  C   UNL     1       6.827   7.614  17.260  0.00  0.00    +0.000 A 
ATOM     10  C   UNL     1       7.967   7.507  18.059  0.00  0.00    +0.000 A 
ATOM     11  C   UNL     1       8.111   6.421  18.925  0.00  0.00    +0.000 A 
ATOM     12  C   UNL     1       7.113   5.444  19.001  0.00  0.00    +0.000 A 
ENDBRANCH   6   7
BRANCH   6  13
ATOM     13  O   UNL     1       5.314   3.381  18.992  0.00  0.00    +0.000 OA
ATOM     14  H   UNL     1       6.233   3.188  18.671  0.00  0.00    +0.000 HD
ENDBRANCH   6  13
ENDBRANCH   4   6
ENDBRANCH   2   4
ENDBRANCH   1   2
BRANCH   1  15
ATOM     15  C   UNL     1       1.431   2.500  18.727  0.00  0.00    +0.000 C 
BRANCH  15  16
ATOM     16  C   UNL     1       0.781   3.195  19.917  0.00  0.00    +0.000 C 
BRANCH  16  17
ATOM     17  C   UNL     1       1.719   3.184  21.114  0.00  0.00    +0.000 C 
BRANCH  17  18
ATOM     18  C   UNL     1       2.396   4.541  21.234  0.00  0.00    +0.000 C 
BRANCH  18  19
ATOM     19  C   UNL     1       1.506   5.625  20.648  0.00  0.00    +0.000 C 
BRANCH  19  20
ATOM     20  C   UNL     1       2.339   6.549  19.771  0.00  0.00    +0.000 C 
BRANCH  20  21
ATOM     21  C   UNL     1       1.920   7.994  19.998  0.00  0.00    +0.000 C 
BRANCH  21  22
ATOM     22  C   UNL     1       1.116   8.109  21.285  0.00  0.00    +0.000 C 
BRANCH  22  23
ATOM     23  C   UNL     1      -0.055   9.061  21.083  0.00  0.00    +0.000 C 
BRANCH  23  24
ATOM     24  C   UNL     1       0.427  10.507  21.112  0.00  0.00    +0.000 C 
BRANCH  24  25
ATOM     25  C   UNL     1       0.151  11.184  19.773  0.00  0.00    +0.000 C 
BRANCH  25  27
ATOM     26  C   UNL     1      -1.981  12.511  19.776  0.00  0.00    +0.000 C 
ATOM     27  C   UNL     1      -1.344  11.163  19.456  0.00  0.00    +0.000 C 
ENDBRANCH  25  27
ENDBRANCH  24  25
ENDBRANCH  23  24
ENDBRANCH  22  23
ENDBRANCH  21  22
ENDBRANCH  20  21
ENDBRANCH  19  20
ENDBRANCH  18  19
ENDBRANCH  17  18
ENDBRANCH  16  17
ENDBRANCH  15  16
ENDBRANCH   1  15
TORSDOF 17
ENDMDL
MODEL 3
REMARK VINA RESULT:      -5.7      4.475      8.845
REMARK  Name = 
REMARK  19 active torsions:
REMARK  status: ('A' for Active; 'I' for Inactive)
REMARK    1  A    between atoms: C_1  and  C_2
REMARK    2  A    between atoms: C_2  and  C_3
REMARK    3  A    between atoms: C_3  and  C_4
REMARK    4  A    between atoms: C_4  and  C_5
REMARK    5  A    between atoms: C_5  and  C_6
REMARK    6  A    between atoms: C_6  and  C_7
REMARK    7  A    between atoms: C_7  and  C_8
REMARK    8  A    between atoms: C_8  and  C_9
REMARK    9  A    between atoms: C_9  and  C_10
REMARK   10  A    between atoms: C_10  and  C_11
REMARK   11  A    between atoms: C_11  and  C_12
REMARK   12  A    between atoms: C_12  and  C_13
REMARK   13  A    between atoms: C_13  and  C_14
REMARK   14  A    between atoms: C_14  and  N_15
REMARK   15  A    between atoms: N_15  and  C_16
REMARK   16  A    between atoms: C_16  and  C_17
REMARK   17  A    between atoms: C_16  and  C_18
REMARK   18  A    between atoms: C_18  and  O_19
REMARK   19  A    between atoms: C_18  and  C_20
REMARK                            x       y       z     vdW  Elec       q    Type
REMARK                         _______ _______ _______ _____ _____    ______ ____
ROOT
ATOM      1  C   UNL     1       5.699   6.294  17.025  0.00  0.00    +0.000 C 
ENDROOT
BRANCH   1   2
ATOM      2  N   UNL     1       5.074   6.627  18.318  0.00  0.00    +0.000 NA
ATOM      3  H   UNL     1       5.382   7.580  18.620  0.00  0.00    +0.000 HD
BRANCH   2   4
ATOM      4  C   UNL     1       3.605   6.541  18.291  0.00  0.00    +0.000 C 
ATOM      5  C   UNL     1       2.968   7.908  17.957  0.00  0.00    +0.000 C 
BRANCH   4   6
ATOM      6  C   UNL     1       3.073   6.045  19.670  0.00  0.00    +0.000 C 
BRANCH   6   7
ATOM      7  C   UNL     1       2.225   4.785  19.595  0.00  0.00    +0.000 A 
ATOM      8  C   UNL     1       1.985   4.172  18.349  0.00  0.00    +0.000 A 
ATOM      9  C   UNL     1       1.247   2.986  18.273  0.00  0.00    +0.000 A 
ATOM     10  C   UNL     1       0.736   2.402  19.434  0.00  0.00    +0.000 A 
ATOM     11  C   UNL     1       0.961   3.004  20.674  0.00  0.00    +0.000 A 
ATOM     12  C   UNL     1       1.704   4.186  20.757  0.00  0.00    +0.000 A 
ENDBRANCH   6   7
BRANCH   6  13
ATOM     13  O   UNL     1       2.342   7.058  20.317  0.00  0.00    +0.000 OA
ATOM     14  H   UNL     1       1.620   6.626  20.845  0.00  0.00    +0.000 HD
ENDBRANCH   6  13
ENDBRANCH   4   6
ENDBRANCH   2   4
ENDBRANCH   1   2
BRANCH   1  15
ATOM     15  C   UNL     1       7.103   6.879  16.941  0.00  0.00    +0.000 C 
BRANCH  15  16
ATOM     16  C   UNL     1       7.130   8.294  17.507  0.00  0.00    +0.000 C 
BRANCH  16  17
ATOM     17  C   UNL     1       8.477   8.578  18.155  0.00  0.00    +0.000 C 
BRANCH  17  18
ATOM     18  C   UNL     1       8.735  10.077  18.137  0.00  0.00    +0.000 C 
BRANCH  18  19
ATOM     19  C   UNL     1       9.340  10.521  19.458  0.00  0.00    +0.000 C 
BRANCH  19  20
ATOM     20  C   UNL     1      10.672  11.211  19.203  0.00  0.00    +0.000 C 
BRANCH  20  21
ATOM     21  C   UNL     1      10.761  11.646  17.748  0.00  0.00    +0.000 C 
BRANCH  21  22
ATOM     22  C   UNL     1      11.675  12.856  17.620  0.00  0.00    +0.000 C 
BRANCH  22  23
ATOM     23  C   UNL     1      10.861  14.083  17.232  0.00  0.00    +0.000 C 
BRANCH  23  24
ATOM     24  C   UNL     1      10.412  14.837  18.479  0.00  0.00    +0.000 C 
BRANCH  24  25
ATOM     25  C   UNL     1       8.912  14.662  18.690  0.00  0.00    +0.000 C 
BRANCH  25  27
ATOM     26  C   UNL     1       9.859  14.367  20.997  0.00  0.00    +0.000 C 
ATOM     27  C   UNL     1       8.616  14.231  20.126  0.00  0.00    +0.000 C 
ENDBRANCH  25  27
ENDBRANCH  24  25
ENDBRANCH  23  24
ENDBRANCH  22  23
ENDBRANCH  21  22
ENDBRANCH  20  21
ENDBRANCH  19  20
ENDBRANCH  18  19
ENDBRANCH  17  18
ENDBRANCH  16  17
ENDBRANCH  15  16
ENDBRANCH   1  15
TORSDOF 17
ENDMDL
MODEL 4
REMARK VINA RESULT:      -5.7      4.045      7.774
REMARK  Name = 
REMARK  19 active torsions:
REMARK  status: ('A' for Active; 'I' for Inactive)
REMARK    1  A    between atoms: C_1  and  C_2
REMARK    2  A    between atoms: C_2  and  C_3
REMARK    3  A    between atoms: C_3  and  C_4
REMARK    4  A    between atoms: C_4  and  C_5
REMARK    5  A    between atoms: C_5  and  C_6
REMARK    6  A    between atoms: C_6  and  C_7
REMARK    7  A    between atoms: C_7  and  C_8
REMARK    8  A    between atoms: C_8  and  C_9
REMARK    9  A    between atoms: C_9  and  C_10
REMARK   10  A    between atoms: C_10  and  C_11
REMARK   11  A    between atoms: C_11  and  C_12
REMARK   12  A    between atoms: C_12  and  C_13
REMARK   13  A    between atoms: C_13  and  C_14
REMARK   14  A    between atoms: C_14  and  N_15
REMARK   15  A    between atoms: N_15  and  C_16
REMARK   16  A    between atoms: C_16  and  C_17
REMARK   17  A    between atoms: C_16  and  C_18
REMARK   18  A    between atoms: C_18  and  O_19
REMARK   19  A    between atoms: C_18  and  C_20
REMARK                            x       y       z     vdW  Elec       q    Type
REMARK                         _______ _______ _______ _____ _____    ______ ____
ROOT
ATOM      1  C   UNL     1       2.617   8.664  18.319  0.00  0.00    +0.000 C 
ENDROOT
BRANCH   1   2
ATOM      2  N   UNL     1       1.310   8.926  18.948  0.00  0.00    +0.000 NA
ATOM      3  H   UNL     1       1.426   8.978  19.986  0.00  0.00    +0.000 HD
BRANCH   2   4
ATOM      4  C   UNL     1       0.655  10.142  18.438  0.00  0.00    +0.000 C 
ATOM      5  C   UNL     1       1.496  11.402  18.739  0.00  0.00    +0.000 C 
BRANCH   4   6
ATOM      6  C   UNL     1      -0.758  10.297  19.079  0.00  0.00    +0.000 C 
BRANCH   6   7
ATOM      7  C   UNL     1      -1.886  10.450  18.071  0.00  0.00    +0.000 A 
ATOM      8  C   UNL     1      -2.944  11.344  18.331  0.00  0.00    +0.000 A 
ATOM      9  C   UNL     1      -3.963  11.528  17.390  0.00  0.00    +0.000 A 
ATOM     10  C   UNL     1      -3.943  10.821  16.186  0.00  0.00    +0.000 A 
ATOM     11  C   UNL     1      -2.904   9.927  15.920  0.00  0.00    +0.000 A 
ATOM     12  C   UNL     1      -1.878   9.743  16.854  0.00  0.00    +0.000 A 
ENDBRANCH   6   7
BRANCH   6  13
ATOM     13  O   UNL     1      -0.784  11.382  19.974  0.00  0.00    +0.000 OA
ATOM     14  H   UNL     1       0.114  11.804  19.970  0.00  0.00    +0.000 HD
ENDBRANCH   6  13
ENDBRANCH   4   6
ENDBRANCH   2   4
ENDBRANCH   1   2
BRANCH   1  15
ATOM     15  C   UNL     1       2.855   7.165  18.180  0.00  0.00    +0.000 C 
BRANCH  15  16
ATOM     16  C   UNL     1       4.096   6.895  17.339  0.00  0.00    +0.000 C 
BRANCH  16  17
ATOM     17  C   UNL     1       5.101   6.069  18.129  0.00  0.00    +0.000 C 
BRANCH  17  18
ATOM     18  C   UNL     1       5.629   4.946  17.250  0.00  0.00    +0.000 C 
BRANCH  18  19
ATOM     19  C   UNL     1       4.477   4.229  16.566  0.00  0.00    +0.000 C 
BRANCH  19  20
ATOM     20  C   UNL     1       3.996   3.083  17.443  0.00  0.00    +0.000 C 
BRANCH  20  21
ATOM     21  C   UNL     1       2.532   2.787  17.153  0.00  0.00    +0.000 C 
BRANCH  21  22
ATOM     22  C   UNL     1       1.644   3.803  17.857  0.00  0.00    +0.000 C 
BRANCH  22  23
ATOM     23  C   UNL     1       0.868   3.126  18.979  0.00  0.00    +0.000 C 
BRANCH  23  24
ATOM     24  C   UNL     1       0.909   3.980  20.241  0.00  0.00    +0.000 C 
BRANCH  24  25
ATOM     25  C   UNL     1       2.342   4.107  20.748  0.00  0.00    +0.000 C 
BRANCH  25  27
ATOM     26  C   UNL     1       4.090   2.304  20.750  0.00  0.00    +0.000 C 
ATOM     27  C   UNL     1       2.803   2.803  21.397  0.00  0.00    +0.000 C 
ENDBRANCH  25  27
ENDBRANCH  24  25
ENDBRANCH  23  24
ENDBRANCH  22  23
ENDBRANCH  21  22
ENDBRANCH  20  21
ENDBRANCH  19  20
ENDBRANCH  18  19
ENDBRANCH  17  18
ENDBRANCH  16  17
ENDBRANCH  15  16
ENDBRANCH   1  15
TORSDOF 17
ENDMDL
MODEL 5
REMARK VINA RESULT:      -5.7      3.237      8.165
REMARK  Name = 
REMARK  19 active torsions:
REMARK  status: ('A' for Active; 'I' for Inactive)
REMARK    1  A    between atoms: C_1  and  C_2
REMARK    2  A    between atoms: C_2  and  C_3
REMARK    3  A    between atoms: C_3  and  C_4
REMARK    4  A    between atoms: C_4  and  C_5
REMARK    5  A    between atoms: C_5  and  C_6
REMARK    6  A    between atoms: C_6  and  C_7
REMARK    7  A    between atoms: C_7  and  C_8
REMARK    8  A    between atoms: C_8  and  C_9
REMARK    9  A    between atoms: C_9  and  C_10
REMARK   10  A    between atoms: C_10  and  C_11
REMARK   11  A    between atoms: C_11  and  C_12
REMARK   12  A    between atoms: C_12  and  C_13
REMARK   13  A    between atoms: C_13  and  C_14
REMARK   14  A    between atoms: C_14  and  N_15
REMARK   15  A    between atoms: N_15  and  C_16
REMARK   16  A    between atoms: C_16  and  C_17
REMARK   17  A    between atoms: C_16  and  C_18
REMARK   18  A    between atoms: C_18  and  O_19
REMARK   19  A    between atoms: C_18  and  C_20
REMARK                            x       y       z     vdW  Elec       q    Type
REMARK                         _______ _______ _______ _____ _____    ______ ____
ROOT
ATOM      1  C   UNL     1       2.460   7.578  19.668  0.00  0.00    +0.000 C 
ENDROOT
BRANCH   1   2
ATOM      2  N   UNL     1       1.442   8.430  19.027  0.00  0.00    +0.000 NA
ATOM      3  H   UNL     1       0.598   7.855  18.801  0.00  0.00    +0.000 HD
BRANCH   2   4
ATOM      4  C   UNL     1       1.070   9.600  19.840  0.00  0.00    +0.000 C 
ATOM      5  C   UNL     1      -0.084   9.265  20.811  0.00  0.00    +0.000 C 
BRANCH   4   6
ATOM      6  C   UNL     1       0.644  10.780  18.916  0.00  0.00    +0.000 C 
BRANCH   6   7
ATOM      7  C   UNL     1      -0.819  10.749  18.500  0.00  0.00    +0.000 A 
ATOM      8  C   UNL     1      -1.728  11.670  19.057  0.00  0.00    +0.000 A 
ATOM      9  C   UNL     1      -3.065  11.682  18.647  0.00  0.00    +0.000 A 
ATOM     10  C   UNL     1      -3.513  10.774  17.686  0.00  0.00    +0.000 A 
ATOM     11  C   UNL     1      -2.623   9.851  17.132  0.00  0.00    +0.000 A 
ATOM     12  C   UNL     1      -1.283   9.839  17.532  0.00  0.00    +0.000 A 
ENDBRANCH   6   7
BRANCH   6  13
ATOM     13  O   UNL     1       1.452  10.832  17.766  0.00  0.00    +0.000 OA
ATOM     14  H   UNL     1       1.620  11.787  17.552  0.00  0.00    +0.000 HD
ENDBRANCH   6  13
ENDBRANCH   4   6
ENDBRANCH   2   4
ENDBRANCH   1   2
BRANCH   1  15
ATOM     15  C   UNL     1       2.207   6.109  19.351  0.00  0.00    +0.000 C 
BRANCH  15  16
ATOM     16  C   UNL     1       1.449   5.437  20.490  0.00  0.00    +0.000 C 
BRANCH  16  17
ATOM     17  C   UNL     1       2.068   4.085  20.812  0.00  0.00    +0.000 C 
BRANCH  17  18
ATOM     18  C   UNL     1       1.068   2.986  20.489  0.00  0.00    +0.000 C 
BRANCH  18  19
ATOM     19  C   UNL     1       0.958   2.801  18.985  0.00  0.00    +0.000 C 
BRANCH  19  20
ATOM     20  C   UNL     1       2.183   2.060  18.471  0.00  0.00    +0.000 C 
BRANCH  20  21
ATOM     21  C   UNL     1       2.832   2.849  17.344  0.00  0.00    +0.000 C 
BRANCH  21  22
ATOM     22  C   UNL     1       4.157   3.433  17.813  0.00  0.00    +0.000 C 
BRANCH  22  23
ATOM     23  C   UNL     1       4.689   4.413  16.775  0.00  0.00    +0.000 C 
BRANCH  23  24
ATOM     24  C   UNL     1       6.213   4.422  16.786  0.00  0.00    +0.000 C 
BRANCH  24  25
ATOM     25  C   UNL     1       6.751   4.582  15.367  0.00  0.00    +0.000 C 
BRANCH  25  27
ATOM     26  C   UNL     1       6.058   3.613  13.156  0.00  0.00    +0.000 C 
ATOM     27  C   UNL     1       5.621   4.462  14.345  0.00  0.00    +0.000 C 
ENDBRANCH  25  27
ENDBRANCH  24  25
ENDBRANCH  23  24
ENDBRANCH  22  23
ENDBRANCH  21  22
ENDBRANCH  20  21
ENDBRANCH  19  20
ENDBRANCH  18  19
ENDBRANCH  17  18
ENDBRANCH  16  17
ENDBRANCH  15  16
ENDBRANCH   1  15
TORSDOF 17
ENDMDL
MODEL 6
REMARK VINA RESULT:      -5.7      4.299      8.517
REMARK  Name = 
REMARK  19 active torsions:
REMARK  status: ('A' for Active; 'I' for Inactive)
REMARK    1  A    between atoms: C_1  and  C_2
REMARK    2  A    between atoms: C_2  and  C_3
REMARK    3  A    between atoms: C_3  and  C_4
REMARK    4  A    between atoms: C_4  and  C_5
REMARK    5  A    between atoms: C_5  and  C_6
REMARK    6  A    between atoms: C_6  and  C_7
REMARK    7  A    between atoms: C_7  and  C_8
REMARK    8  A    between atoms: C_8  and  C_9
REMARK    9  A    between atoms: C_9  and  C_10
REMARK   10  A    between atoms: C_10  and  C_11
REMARK   11  A    between atoms: C_11  and  C_12
REMARK   12  A    between atoms: C_12  and  C_13
REMARK   13  A    between atoms: C_13  and  C_14
REMARK   14  A    between atoms: C_14  and  N_15
REMARK   15  A    between atoms: N_15  and  C_16
REMARK   16  A    between atoms: C_16  and  C_17
REMARK   17  A    between atoms: C_16  and  C_18
REMARK   18  A    between atoms: C_18  and  O_19
REMARK   19  A    between atoms: C_18  and  C_20
REMARK                            x       y       z     vdW  Elec       q    Type
REMARK                         _______ _______ _______ _____ _____    ______ ____
ROOT
ATOM      1  C   UNL     1       4.788   5.965  17.319  0.00  0.00    +0.000 C 
ENDROOT
BRANCH   1   2
ATOM      2  N   UNL     1       4.183   7.275  17.620  0.00  0.00    +0.000 NA
ATOM      3  H   UNL     1       4.276   7.903  16.789  0.00  0.00    +0.000 HD
BRANCH   2   4
ATOM      4  C   UNL     1       2.775   7.179  18.041  0.00  0.00    +0.000 C 
ATOM      5  C   UNL     1       2.084   8.561  18.010  0.00  0.00    +0.000 C 
BRANCH   4   6
ATOM      6  C   UNL     1       2.686   6.589  19.481  0.00  0.00    +0.000 C 
BRANCH   6   7
ATOM      7  C   UNL     1       2.041   5.213  19.552  0.00  0.00    +0.000 A 
ATOM      8  C   UNL     1       1.793   4.491  18.368  0.00  0.00    +0.000 A 
ATOM      9  C   UNL     1       1.244   3.206  18.424  0.00  0.00    +0.000 A 
ATOM     10  C   UNL     1       0.930   2.630  19.656  0.00  0.00    +0.000 A 
ATOM     11  C   UNL     1       1.165   3.338  20.837  0.00  0.00    +0.000 A 
ATOM     12  C   UNL     1       1.720   4.621  20.788  0.00  0.00    +0.000 A 
ENDBRANCH   6   7
BRANCH   6  13
ATOM     13  O   UNL     1       2.002   7.467  20.340  0.00  0.00    +0.000 OA
ATOM     14  H   UNL     1       1.934   7.034  21.231  0.00  0.00    +0.000 HD
ENDBRANCH   6  13
ENDBRANCH   4   6
ENDBRANCH   2   4
ENDBRANCH   1   2
BRANCH   1  15
ATOM     15  C   UNL     1       5.681   5.510  18.466  0.00  0.00    +0.000 C 
BRANCH  15  16
ATOM     16  C   UNL     1       7.119   5.340  17.993  0.00  0.00    +0.000 C 
BRANCH  16  17
ATOM     17  C   UNL     1       7.572   6.572  17.224  0.00  0.00    +0.000 C 
BRANCH  17  18
ATOM     18  C   UNL     1       8.100   7.608  18.204  0.00  0.00    +0.000 C 
BRANCH  18  19
ATOM     19  C   UNL     1       7.618   8.995  17.813  0.00  0.00    +0.000 C 
BRANCH  19  20
ATOM     20  C   UNL     1       8.777   9.978  17.884  0.00  0.00    +0.000 C 
BRANCH  20  21
ATOM     21  C   UNL     1       9.270  10.095  19.319  0.00  0.00    +0.000 C 
BRANCH  21  22
ATOM     22  C   UNL     1       9.594  11.547  19.642  0.00  0.00    +0.000 C 
BRANCH  22  23
ATOM     23  C   UNL     1      10.397  12.165  18.505  0.00  0.00    +0.000 C 
BRANCH  23  24
ATOM     24  C   UNL     1       9.891  13.572  18.202  0.00  0.00    +0.000 C 
BRANCH  24  25
ATOM     25  C   UNL     1      11.046  14.464  17.758  0.00  0.00    +0.000 C 
BRANCH  25  27
ATOM     26  C   UNL     1      11.743  16.827  17.274  0.00  0.00    +0.000 C 
ATOM     27  C   UNL     1      10.563  15.895  17.526  0.00  0.00    +0.000 C 
ENDBRANCH  25  27
ENDBRANCH  24  25
ENDBRANCH  23  24
ENDBRANCH  22  23
ENDBRANCH  21  22
ENDBRANCH  20  21
ENDBRANCH  19  20
ENDBRANCH  18  19
ENDBRANCH  17  18
ENDBRANCH  16  17
ENDBRANCH  15  16
ENDBRANCH   1  15
TORSDOF 17
ENDMDL
MODEL 7
REMARK VINA RESULT:      -5.6      2.769      6.416
REMARK  Name = 
REMARK  19 active torsions:
REMARK  status: ('A' for Active; 'I' for Inactive)
REMARK    1  A    between atoms: C_1  and  C_2
REMARK    2  A    between atoms: C_2  and  C_3
REMARK    3  A    between atoms: C_3  and  C_4
REMARK    4  A    between atoms: C_4  and  C_5
REMARK    5  A    between atoms: C_5  and  C_6
REMARK    6  A    between atoms: C_6  and  C_7
REMARK    7  A    between atoms: C_7  and  C_8
REMARK    8  A    between atoms: C_8  and  C_9
REMARK    9  A    between atoms: C_9  and  C_10
REMARK   10  A    between atoms: C_10  and  C_11
REMARK   11  A    between atoms: C_11  and  C_12
REMARK   12  A    between atoms: C_12  and  C_13
REMARK   13  A    between atoms: C_13  and  C_14
REMARK   14  A    between atoms: C_14  and  N_15
REMARK   15  A    between atoms: N_15  and  C_16
REMARK   16  A    between atoms: C_16  and  C_17
REMARK   17  A    between atoms: C_16  and  C_18
REMARK   18  A    between atoms: C_18  and  O_19
REMARK   19  A    between atoms: C_18  and  C_20
REMARK                            x       y       z     vdW  Elec       q    Type
REMARK                         _______ _______ _______ _____ _____    ______ ____
ROOT
ATOM      1  C   UNL     1       3.184   7.419  17.933  0.00  0.00    +0.000 C 
ENDROOT
BRANCH   1   2
ATOM      2  N   UNL     1       3.906   6.245  17.411  0.00  0.00    +0.000 NA
ATOM      3  H   UNL     1       4.448   6.517  16.560  0.00  0.00    +0.000 HD
BRANCH   2   4
ATOM      4  C   UNL     1       4.789   5.617  18.409  0.00  0.00    +0.000 C 
ATOM      5  C   UNL     1       6.275   5.923  18.115  0.00  0.00    +0.000 C 
BRANCH   4   6
ATOM      6  C   UNL     1       4.570   4.074  18.422  0.00  0.00    +0.000 C 
BRANCH   6   7
ATOM      7  C   UNL     1       3.222   3.640  18.975  0.00  0.00    +0.000 A 
ATOM      8  C   UNL     1       2.956   3.761  20.354  0.00  0.00    +0.000 A 
ATOM      9  C   UNL     1       1.703   3.409  20.867  0.00  0.00    +0.000 A 
ATOM     10  C   UNL     1       0.706   2.927  20.016  0.00  0.00    +0.000 A 
ATOM     11  C   UNL     1       0.960   2.796  18.649  0.00  0.00    +0.000 A 
ATOM     12  C   UNL     1       2.209   3.152  18.129  0.00  0.00    +0.000 A 
ENDBRANCH   6   7
BRANCH   6  13
ATOM     13  O   UNL     1       5.596   3.430  19.137  0.00  0.00    +0.000 OA
ATOM     14  H   UNL     1       6.230   4.124  19.457  0.00  0.00    +0.000 HD
ENDBRANCH   6  13
ENDBRANCH   4   6
ENDBRANCH   2   4
ENDBRANCH   1   2
BRANCH   1  15
ATOM     15  C   UNL     1       2.462   7.073  19.229  0.00  0.00    +0.000 C 
BRANCH  15  16
ATOM     16  C   UNL     1       1.752   8.298  19.791  0.00  0.00    +0.000 C 
BRANCH  16  17
ATOM     17  C   UNL     1       1.181   7.994  21.168  0.00  0.00    +0.000 C 
BRANCH  17  18
ATOM     18  C   UNL     1       1.077   9.284  21.965  0.00  0.00    +0.000 C 
BRANCH  18  19
ATOM     19  C   UNL     1      -0.378   9.599  22.269  0.00  0.00    +0.000 C 
BRANCH  19  20
ATOM     20  C   UNL     1      -0.603  11.101  22.189  0.00  0.00    +0.000 C 
BRANCH  20  21
ATOM     21  C   UNL     1       0.484  11.744  21.341  0.00  0.00    +0.000 C 
BRANCH  21  22
ATOM     22  C   UNL     1      -0.141  12.655  20.294  0.00  0.00    +0.000 C 
BRANCH  22  23
ATOM     23  C   UNL     1      -0.012  12.024  18.913  0.00  0.00    +0.000 C 
BRANCH  23  24
ATOM     24  C   UNL     1      -1.270  12.283  18.092  0.00  0.00    +0.000 C 
BRANCH  24  25
ATOM     25  C   UNL     1      -2.401  11.372  18.557  0.00  0.00    +0.000 C 
BRANCH  25  27
ATOM     26  C   UNL     1      -2.378   9.963  16.479  0.00  0.00    +0.000 C 
ATOM     27  C   UNL     1      -2.225   9.962  17.996  0.00  0.00    +0.000 C 
ENDBRANCH  25  27
ENDBRANCH  24  25
ENDBRANCH  23  24
ENDBRANCH  22  23
ENDBRANCH  21  22
ENDBRANCH  20  21
ENDBRANCH  19  20
ENDBRANCH  18  19
ENDBRANCH  17  18
ENDBRANCH  16  17
ENDBRANCH  15  16
ENDBRANCH   1  15
TORSDOF 17
ENDMDL
MODEL 8
REMARK VINA RESULT:      -5.6      3.010      5.508
REMARK  Name = 
REMARK  19 active torsions:
REMARK  status: ('A' for Active; 'I' for Inactive)
REMARK    1  A    between atoms: C_1  and  C_2
REMARK    2  A    between atoms: C_2  and  C_3
REMARK    3  A    between atoms: C_3  and  C_4
REMARK    4  A    between atoms: C_4  and  C_5
REMARK    5  A    between atoms: C_5  and  C_6
REMARK    6  A    between atoms: C_6  and  C_7
REMARK    7  A    between atoms: C_7  and  C_8
REMARK    8  A    between atoms: C_8  and  C_9
REMARK    9  A    between atoms: C_9  and  C_10
REMARK   10  A    between atoms: C_10  and  C_11
REMARK   11  A    between atoms: C_11  and  C_12
REMARK   12  A    between atoms: C_12  and  C_13
REMARK   13  A    between atoms: C_13  and  C_14
REMARK   14  A    between atoms: C_14  and  N_15
REMARK   15  A    between atoms: N_15  and  C_16
REMARK   16  A    between atoms: C_16  and  C_17
REMARK   17  A    between atoms: C_16  and  C_18
REMARK   18  A    between atoms: C_18  and  O_19
REMARK   19  A    between atoms: C_18  and  C_20
REMARK                            x       y       z     vdW  Elec       q    Type
REMARK                         _______ _______ _______ _____ _____    ______ ____
ROOT
ATOM      1  C   UNL     1       1.689   2.969  19.964  0.00  0.00    +0.000 C 
ENDROOT
BRANCH   1   2
ATOM      2  N   UNL     1       1.837   2.880  18.500  0.00  0.00    +0.000 NA
ATOM      3  H   UNL     1       1.488   3.762  18.059  0.00  0.00    +0.000 HD
BRANCH   2   4
ATOM      4  C   UNL     1       3.218   2.598  18.073  0.00  0.00    +0.000 C 
ATOM      5  C   UNL     1       3.631   1.153  18.428  0.00  0.00    +0.000 C 
BRANCH   4   6
ATOM      6  C   UNL     1       4.202   3.599  18.750  0.00  0.00    +0.000 C 
BRANCH   6   7
ATOM      7  C   UNL     1       4.980   4.466  17.773  0.00  0.00    +0.000 A 
ATOM      8  C   UNL     1       6.342   4.200  17.526  0.00  0.00    +0.000 A 
ATOM      9  C   UNL     1       7.055   4.961  16.594  0.00  0.00    +0.000 A 
ATOM     10  C   UNL     1       6.424   5.998  15.904  0.00  0.00    +0.000 A 
ATOM     11  C   UNL     1       5.077   6.276  16.145  0.00  0.00    +0.000 A 
ATOM     12  C   UNL     1       4.356   5.515  17.071  0.00  0.00    +0.000 A 
ENDBRANCH   6   7
BRANCH   6  13
ATOM     13  O   UNL     1       5.105   2.922  19.590  0.00  0.00    +0.000 OA
ATOM     14  H   UNL     1       5.852   2.586  19.030  0.00  0.00    +0.000 HD
ENDBRANCH   6  13
ENDBRANCH   4   6
ENDBRANCH   2   4
ENDBRANCH   1   2
BRANCH   1  15
ATOM     15  C   UNL     1       0.911   4.221  20.349  0.00  0.00    +0.000 C 
BRANCH  15  16
ATOM     16  C   UNL     1       1.856   5.311  20.839  0.00  0.00    +0.000 C 
BRANCH  16  17
ATOM     17  C   UNL     1       1.875   6.474  19.858  0.00  0.00    +0.000 C 
BRANCH  17  18
ATOM     18  C   UNL     1       1.959   7.781  20.631  0.00  0.00    +0.000 C 
BRANCH  18  19
ATOM     19  C   UNL     1       0.576   8.209  21.092  0.00  0.00    +0.000 C 
BRANCH  19  20
ATOM     20  C   UNL     1       0.577   9.699  21.395  0.00  0.00    +0.000 C 
BRANCH  20  21
ATOM     21  C   UNL     1      -0.480  10.400  20.554  0.00  0.00    +0.000 C 
BRANCH  21  22
ATOM     22  C   UNL     1       0.103  10.793  19.204  0.00  0.00    +0.000 C 
BRANCH  22  23
ATOM     23  C   UNL     1      -1.021  11.089  18.220  0.00  0.00    +0.000 C 
BRANCH  23  24
ATOM     24  C   UNL     1      -1.499   9.801  17.558  0.00  0.00    +0.000 C 
BRANCH  24  25
ATOM     25  C   UNL     1      -3.022   9.789  17.463  0.00  0.00    +0.000 C 
BRANCH  25  27
ATOM     26  C   UNL     1      -2.998  10.245  14.994  0.00  0.00    +0.000 C 
ATOM     27  C   UNL     1      -3.501  10.722  16.352  0.00  0.00    +0.000 C 
ENDBRANCH  25  27
ENDBRANCH  24  25
ENDBRANCH  23  24
ENDBRANCH  22  23
ENDBRANCH  21  22
ENDBRANCH  20  21
ENDBRANCH  19  20
ENDBRANCH  18  19
ENDBRANCH  17  18
ENDBRANCH  16  17
ENDBRANCH  15  16
ENDBRANCH   1  15
TORSDOF 17
ENDMDL
MODEL 9
REMARK VINA RESULT:      -5.6      2.479      6.085
REMARK  Name = 
REMARK  19 active torsions:
REMARK  status: ('A' for Active; 'I' for Inactive)
REMARK    1  A    between atoms: C_1  and  C_2
REMARK    2  A    between atoms: C_2  and  C_3
REMARK    3  A    between atoms: C_3  and  C_4
REMARK    4  A    between atoms: C_4  and  C_5
REMARK    5  A    between atoms: C_5  and  C_6
REMARK    6  A    between atoms: C_6  and  C_7
REMARK    7  A    between atoms: C_7  and  C_8
REMARK    8  A    between atoms: C_8  and  C_9
REMARK    9  A    between atoms: C_9  and  C_10
REMARK   10  A    between atoms: C_10  and  C_11
REMARK   11  A    between atoms: C_11  and  C_12
REMARK   12  A    between atoms: C_12  and  C_13
REMARK   13  A    between atoms: C_13  and  C_14
REMARK   14  A    between atoms: C_14  and  N_15
REMARK   15  A    between atoms: N_15  and  C_16
REMARK   16  A    between atoms: C_16  and  C_17
REMARK   17  A    between atoms: C_16  and  C_18
REMARK   18  A    between atoms: C_18  and  O_19
REMARK   19  A    between atoms: C_18  and  C_20
REMARK                            x       y       z     vdW  Elec       q    Type
REMARK                         _______ _______ _______ _____ _____    ______ ____
ROOT
ATOM      1  C   UNL     1       4.059   7.296  17.445  0.00  0.00    +0.000 C 
ENDROOT
BRANCH   1   2
ATOM      2  N   UNL     1       3.771   5.866  17.233  0.00  0.00    +0.000 NA
ATOM      3  H   UNL     1       3.334   5.734  16.293  0.00  0.00    +0.000 HD
BRANCH   2   4
ATOM      4  C   UNL     1       4.959   5.008  17.379  0.00  0.00    +0.000 C 
ATOM      5  C   UNL     1       5.133   4.079  16.157  0.00  0.00    +0.000 C 
BRANCH   4   6
ATOM      6  C   UNL     1       4.841   4.147  18.672  0.00  0.00    +0.000 C 
BRANCH   6   7
ATOM      7  C   UNL     1       3.411   3.844  19.092  0.00  0.00    +0.000 A 
ATOM      8  C   UNL     1       2.630   2.951  18.332  0.00  0.00    +0.000 A 
ATOM      9  C   UNL     1       1.330   2.628  18.736  0.00  0.00    +0.000 A 
ATOM     10  C   UNL     1       0.792   3.196  19.892  0.00  0.00    +0.000 A 
ATOM     11  C   UNL     1       1.554   4.089  20.649  0.00  0.00    +0.000 A 
ATOM     12  C   UNL     1       2.857   4.410  20.255  0.00  0.00    +0.000 A 
ENDBRANCH   6   7
BRANCH   6  13
ATOM     13  O   UNL     1       5.520   4.756  19.743  0.00  0.00    +0.000 OA
ATOM     14  H   UNL     1       6.306   4.192  19.968  0.00  0.00    +0.000 HD
ENDBRANCH   6  13
ENDBRANCH   4   6
ENDBRANCH   2   4
ENDBRANCH   1   2
BRANCH   1  15
ATOM     15  C   UNL     1       2.801   8.038  17.878  0.00  0.00    +0.000 C 
BRANCH  15  16
ATOM     16  C   UNL     1       2.258   7.461  19.180  0.00  0.00    +0.000 C 
BRANCH  16  17
ATOM     17  C   UNL     1       1.576   8.548  19.997  0.00  0.00    +0.000 C 
BRANCH  17  18
ATOM     18  C   UNL     1       0.925   7.923  21.220  0.00  0.00    +0.000 C 
BRANCH  18  19
ATOM     19  C   UNL     1      -0.283   8.740  21.648  0.00  0.00    +0.000 C 
BRANCH  19  20
ATOM     20  C   UNL     1       0.162   9.859  22.579  0.00  0.00    +0.000 C 
BRANCH  20  21
ATOM     21  C   UNL     1      -0.538  11.156  22.203  0.00  0.00    +0.000 C 
BRANCH  21  22
ATOM     22  C   UNL     1      -1.167  11.027  20.822  0.00  0.00    +0.000 C 
BRANCH  22  23
ATOM     23  C   UNL     1      -0.579  12.074  19.884  0.00  0.00    +0.000 C 
BRANCH  23  24
ATOM     24  C   UNL     1      -0.902  11.728  18.435  0.00  0.00    +0.000 C 
BRANCH  24  25
ATOM     25  C   UNL     1      -1.158  10.230  18.294  0.00  0.00    +0.000 C 
BRANCH  25  27
ATOM     26  C   UNL     1      -2.594  10.905  16.347  0.00  0.00    +0.000 C 
ATOM     27  C   UNL     1      -2.467   9.975  17.548  0.00  0.00    +0.000 C 
ENDBRANCH  25  27
ENDBRANCH  24  25
ENDBRANCH  23  24
ENDBRANCH  22  23
ENDBRANCH  21  22
ENDBRANCH  20  21
ENDBRANCH  19  20
ENDBRANCH  18  19
ENDBRANCH  17  18
ENDBRANCH  16  17
ENDBRANCH  15  16
ENDBRANCH   1  15
TORSDOF 17
ENDMDL
