MODEL 1
REMARK VINA RESULT:      -8.0      0.000      0.000
REMARK  Name = 
REMARK  10 active torsions:
REMARK  status: ('A' for Active; 'I' for Inactive)
REMARK    1  A    between atoms: C_2  and  C_11
REMARK    2  A    between atoms: N_3  and  C_4
REMARK    3  A    between atoms: C_4  and  C_5
REMARK    4  A    between atoms: C_13  and  C_14
REMARK    5  A    between atoms: C_24  and  O_25
REMARK    6  A    between atoms: O_25  and  C_26
REMARK    7  A    between atoms: C_26  and  C_27
REMARK    8  A    between atoms: C_27  and  C_28
REMARK    9  A    between atoms: C_28  and  C_29
REMARK   10  A    between atoms: C_29  and  O_30
REMARK                            x       y       z     vdW  Elec       q    Type
REMARK                         _______ _______ _______ _____ _____    ______ ____
ROOT
ATOM      1  C   UNL     1       5.790   5.054  17.453  0.00  0.00    +0.000 C 
ATOM      2  C   UNL     1       4.970   6.052  17.843  0.00  0.00    +0.000 C 
ATOM      3  C   UNL     1       4.208   6.013  19.136  0.00  0.00    +0.000 C 
ATOM      4  C   UNL     1       4.463   4.722  19.928  0.00  0.00    +0.000 C 
ATOM      5  C   UNL     1       4.767   3.573  18.973  0.00  0.00    +0.000 C 
ATOM      6  O   UNL     1       5.898   3.856  18.140  0.00  0.00    +0.000 OA
ENDROOT
BRANCH   3   7
ATOM      7  C   UNL     1       2.774   6.608  19.127  0.00  0.00    +0.000 A 
ATOM      8  C   UNL     1       2.107   6.752  17.898  0.00  0.00    +0.000 A 
ATOM      9  S   UNL     1       2.473   8.502  17.646  0.00  0.00    +0.000 S 
ATOM     10  C   UNL     1       1.761   8.706  19.233  0.00  0.00    +0.000 A 
ATOM     11  C   UNL     1       1.008   9.797  19.695  0.00  0.00    +0.000 A 
ATOM     12  C   UNL     1       0.226   9.604  20.834  0.00  0.00    +0.000 A 
ATOM     13  C   UNL     1       0.283   8.398  21.523  0.00  0.00    +0.000 A 
ATOM     14  C   UNL     1       1.170   7.371  21.127  0.00  0.00    +0.000 A 
ATOM     15  C   UNL     1       1.979   7.516  19.966  0.00  0.00    +0.000 A 
ENDBRANCH   3   7
BRANCH   1  17
ATOM     16  O   UNL     1       7.433   6.167  16.110  0.00  0.00    +0.000 OA
ATOM     17  C   UNL     1       6.642   5.235  16.217  0.00  0.00    +0.000 C 
ATOM     18  N   UNL     1       6.427   4.316  15.208  0.00  0.00    +0.000 N 
ATOM     19  H   UNL     1       5.679   3.644  15.330  0.00  0.00    +0.000 HD
BRANCH  18  20
ATOM     20  C   UNL     1       6.944   4.546  13.873  0.00  0.00    +0.000 C 
BRANCH  20  21
ATOM     21  C   UNL     1       6.260   3.746  12.787  0.00  0.00    +0.000 A 
ATOM     22  C   UNL     1       6.927   2.687  12.147  0.00  0.00    +0.000 A 
ATOM     23  C   UNL     1       6.268   1.883  11.210  0.00  0.00    +0.000 A 
ATOM     24  C   UNL     1       4.928   2.118  10.910  0.00  0.00    +0.000 A 
ATOM     25  C   UNL     1       4.248   3.155  11.544  0.00  0.00    +0.000 A 
ATOM     26  C   UNL     1       4.909   3.965  12.475  0.00  0.00    +0.000 A 
ENDBRANCH  20  21
ENDBRANCH  18  20
ENDBRANCH   1  17
BRANCH   5  27
ATOM     27  O   UNL     1       3.584   3.290  18.242  0.00  0.00    +0.000 OA
BRANCH  27  28
ATOM     28  C   UNL     1       2.653   2.482  18.946  0.00  0.00    +0.000 C 
BRANCH  28  29
ATOM     29  C   UNL     1       1.330   3.233  18.972  0.00  0.00    +0.000 C 
BRANCH  29  30
ATOM     30  C   UNL     1       0.910   3.545  20.412  0.00  0.00    +0.000 C 
BRANCH  30  31
ATOM     31  C   UNL     1       1.529   2.575  21.407  0.00  0.00    +0.000 C 
BRANCH  31  32
ATOM     32  O   UNL     1       2.332   3.281  22.341  0.00  0.00    +0.000 OA
ATOM     33  H   UNL     1       2.085   4.220  22.280  0.00  0.00    +0.000 HD
ENDBRANCH  31  32
ENDBRANCH  30  31
ENDBRANCH  29  30
ENDBRANCH  28  29
ENDBRANCH  27  28
ENDBRANCH   5  27
TORSDOF 10
ENDMDL
MODEL 2
REMARK VINA RESULT:      -7.7      4.950      8.169
REMARK  Name = 
REMARK  10 active torsions:
REMARK  status: ('A' for Active; 'I' for Inactive)
REMARK    1  A    between atoms: C_2  and  C_11
REMARK    2  A    between atoms: N_3  and  C_4
REMARK    3  A    between atoms: C_4  and  C_5
REMARK    4  A    between atoms: C_13  and  C_14
REMARK    5  A    between atoms: C_24  and  O_25
REMARK    6  A    between atoms: O_25  and  C_26
REMARK    7  A    between atoms: C_26  and  C_27
REMARK    8  A    between atoms: C_27  and  C_28
REMARK    9  A    between atoms: C_28  and  C_29
REMARK   10  A    between atoms: C_29  and  O_30
REMARK                            x       y       z     vdW  Elec       q    Type
REMARK                         _______ _______ _______ _____ _____    ______ ____
ROOT
ATOM      1  C   UNL     1       1.023   9.932  18.684  0.00  0.00    +0.000 C 
ATOM      2  C   UNL     1      -0.161  10.094  18.057  0.00  0.00    +0.000 C 
ATOM      3  C   UNL     1      -1.090  11.233  18.364  0.00  0.00    +0.000 C 
ATOM      4  C   UNL     1      -0.541  12.157  19.461  0.00  0.00    +0.000 C 
ATOM      5  C   UNL     1       0.335  11.362  20.425  0.00  0.00    +0.000 C 
ATOM      6  O   UNL     1       1.423  10.721  19.751  0.00  0.00    +0.000 OA
ENDROOT
BRANCH   3   7
ATOM      7  C   UNL     1      -2.611  10.927  18.342  0.00  0.00    +0.000 A 
ATOM      8  C   UNL     1      -3.071   9.827  17.597  0.00  0.00    +0.000 A 
ATOM      9  S   UNL     1      -3.576  10.745  16.127  0.00  0.00    +0.000 S 
ATOM     10  C   UNL     1      -4.525  11.694  17.251  0.00  0.00    +0.000 A 
ATOM     11  C   UNL     1      -5.774  12.290  17.021  0.00  0.00    +0.000 A 
ATOM     12  C   UNL     1      -6.522  12.671  18.135  0.00  0.00    +0.000 A 
ATOM     13  C   UNL     1      -5.986  12.546  19.411  0.00  0.00    +0.000 A 
ATOM     14  C   UNL     1      -4.662  12.090  19.606  0.00  0.00    +0.000 A 
ATOM     15  C   UNL     1      -3.864  11.678  18.503  0.00  0.00    +0.000 A 
ENDBRANCH   3   7
BRANCH   1  17
ATOM     16  O   UNL     1       2.402   8.832  17.063  0.00  0.00    +0.000 OA
ATOM     17  C   UNL     1       1.971   8.854  18.212  0.00  0.00    +0.000 C 
ATOM     18  N   UNL     1       2.270   7.877  19.142  0.00  0.00    +0.000 N 
ATOM     19  H   UNL     1       1.788   7.907  20.032  0.00  0.00    +0.000 HD
BRANCH  18  20
ATOM     20  C   UNL     1       2.911   6.640  18.739  0.00  0.00    +0.000 C 
BRANCH  20  21
ATOM     21  C   UNL     1       2.129   5.389  19.071  0.00  0.00    +0.000 A 
ATOM     22  C   UNL     1       1.848   4.434  18.079  0.00  0.00    +0.000 A 
ATOM     23  C   UNL     1       1.209   3.230  18.399  0.00  0.00    +0.000 A 
ATOM     24  C   UNL     1       0.854   2.959  19.719  0.00  0.00    +0.000 A 
ATOM     25  C   UNL     1       1.137   3.890  20.716  0.00  0.00    +0.000 A 
ATOM     26  C   UNL     1       1.768   5.097  20.395  0.00  0.00    +0.000 A 
ENDBRANCH  20  21
ENDBRANCH  18  20
ENDBRANCH   1  17
BRANCH   5  27
ATOM     27  O   UNL     1      -0.503  10.461  21.132  0.00  0.00    +0.000 OA
BRANCH  27  28
ATOM     28  C   UNL     1      -0.274  10.444  22.533  0.00  0.00    +0.000 C 
BRANCH  28  29
ATOM     29  C   UNL     1      -1.551  10.926  23.207  0.00  0.00    +0.000 C 
BRANCH  29  30
ATOM     30  C   UNL     1      -1.738  12.433  23.000  0.00  0.00    +0.000 C 
BRANCH  30  31
ATOM     31  C   UNL     1      -3.192  12.851  23.149  0.00  0.00    +0.000 C 
BRANCH  31  32
ATOM     32  O   UNL     1      -3.882  11.927  23.979  0.00  0.00    +0.000 OA
ATOM     33  H   UNL     1      -3.486  11.986  24.865  0.00  0.00    +0.000 HD
ENDBRANCH  31  32
ENDBRANCH  30  31
ENDBRANCH  29  30
ENDBRANCH  28  29
ENDBRANCH  27  28
ENDBRANCH   5  27
TORSDOF 10
ENDMDL
MODEL 3
REMARK VINA RESULT:      -7.4      5.330      8.767
REMARK  Name = 
REMARK  10 active torsions:
REMARK  status: ('A' for Active; 'I' for Inactive)
REMARK    1  A    between atoms: C_2  and  C_11
REMARK    2  A    between atoms: N_3  and  C_4
REMARK    3  A    between atoms: C_4  and  C_5
REMARK    4  A    between atoms: C_13  and  C_14
REMARK    5  A    between atoms: C_24  and  O_25
REMARK    6  A    between atoms: O_25  and  C_26
REMARK    7  A    between atoms: C_26  and  C_27
REMARK    8  A    between atoms: C_27  and  C_28
REMARK    9  A    between atoms: C_28  and  C_29
REMARK   10  A    between atoms: C_29  and  O_30
REMARK                            x       y       z     vdW  Elec       q    Type
REMARK                         _______ _______ _______ _____ _____    ______ ____
ROOT
ATOM      1  C   UNL     1       0.460   9.951  19.947  0.00  0.00    +0.000 C 
ATOM      2  C   UNL     1      -0.577   9.864  19.087  0.00  0.00    +0.000 C 
ATOM      3  C   UNL     1      -1.358  11.066  18.639  0.00  0.00    +0.000 C 
ATOM      4  C   UNL     1      -0.847  12.367  19.275  0.00  0.00    +0.000 C 
ATOM      5  C   UNL     1      -0.258  12.081  20.652  0.00  0.00    +0.000 C 
ATOM      6  O   UNL     1       0.810  11.129  20.588  0.00  0.00    +0.000 OA
ENDROOT
BRANCH   3   7
ATOM      7  C   UNL     1      -2.887  10.881  18.448  0.00  0.00    +0.000 A 
ATOM      8  C   UNL     1      -3.347   9.848  17.614  0.00  0.00    +0.000 A 
ATOM      9  S   UNL     1      -3.624  10.853  16.141  0.00  0.00    +0.000 S 
ATOM     10  C   UNL     1      -4.613  11.835  17.202  0.00  0.00    +0.000 A 
ATOM     11  C   UNL     1      -5.783  12.534  16.871  0.00  0.00    +0.000 A 
ATOM     12  C   UNL     1      -6.613  12.935  17.918  0.00  0.00    +0.000 A 
ATOM     13  C   UNL     1      -6.225  12.723  19.236  0.00  0.00    +0.000 A 
ATOM     14  C   UNL     1      -4.966  12.158  19.545  0.00  0.00    +0.000 A 
ATOM     15  C   UNL     1      -4.090  11.723  18.512  0.00  0.00    +0.000 A 
ENDBRANCH   3   7
BRANCH   1  17
ATOM     16  O   UNL     1       1.651   8.431  21.366  0.00  0.00    +0.000 OA
ATOM     17  C   UNL     1       1.294   8.722  20.229  0.00  0.00    +0.000 C 
ATOM     18  N   UNL     1       1.664   7.989  19.118  0.00  0.00    +0.000 N 
ATOM     19  H   UNL     1       1.422   8.355  18.206  0.00  0.00    +0.000 HD
BRANCH  18  20
ATOM     20  C   UNL     1       2.699   6.977  19.208  0.00  0.00    +0.000 C 
BRANCH  20  21
ATOM     21  C   UNL     1       2.185   5.557  19.297  0.00  0.00    +0.000 A 
ATOM     22  C   UNL     1       1.747   5.027  20.523  0.00  0.00    +0.000 A 
ATOM     23  C   UNL     1       1.182   3.749  20.593  0.00  0.00    +0.000 A 
ATOM     24  C   UNL     1       1.034   2.987  19.436  0.00  0.00    +0.000 A 
ATOM     25  C   UNL     1       1.451   3.503  18.211  0.00  0.00    +0.000 A 
ATOM     26  C   UNL     1       2.024   4.777  18.141  0.00  0.00    +0.000 A 
ENDBRANCH  20  21
ENDBRANCH  18  20
ENDBRANCH   1  17
BRANCH   5  27
ATOM     27  O   UNL     1      -1.320  11.684  21.506  0.00  0.00    +0.000 OA
BRANCH  27  28
ATOM     28  C   UNL     1      -1.270  12.273  22.796  0.00  0.00    +0.000 C 
BRANCH  28  29
ATOM     29  C   UNL     1      -2.305  13.388  22.826  0.00  0.00    +0.000 C 
BRANCH  29  30
ATOM     30  C   UNL     1      -3.713  12.817  23.018  0.00  0.00    +0.000 C 
BRANCH  30  31
ATOM     31  C   UNL     1      -4.182  12.932  24.460  0.00  0.00    +0.000 C 
BRANCH  31  32
ATOM     32  O   UNL     1      -4.759  11.706  24.885  0.00  0.00    +0.000 OA
ATOM     33  H   UNL     1      -4.088  11.013  24.755  0.00  0.00    +0.000 HD
ENDBRANCH  31  32
ENDBRANCH  30  31
ENDBRANCH  29  30
ENDBRANCH  28  29
ENDBRANCH  27  28
ENDBRANCH   5  27
TORSDOF 10
ENDMDL
MODEL 4
REMARK VINA RESULT:      -7.3      4.765      7.765
REMARK  Name = 
REMARK  10 active torsions:
REMARK  status: ('A' for Active; 'I' for Inactive)
REMARK    1  A    between atoms: C_2  and  C_11
REMARK    2  A    between atoms: N_3  and  C_4
REMARK    3  A    between atoms: C_4  and  C_5
REMARK    4  A    between atoms: C_13  and  C_14
REMARK    5  A    between atoms: C_24  and  O_25
REMARK    6  A    between atoms: O_25  and  C_26
REMARK    7  A    between atoms: C_26  and  C_27
REMARK    8  A    between atoms: C_27  and  C_28
REMARK    9  A    between atoms: C_28  and  C_29
REMARK   10  A    between atoms: C_29  and  O_30
REMARK                            x       y       z     vdW  Elec       q    Type
REMARK                         _______ _______ _______ _____ _____    ______ ____
ROOT
ATOM      1  C   UNL     1       1.115  10.050  18.460  0.00  0.00    +0.000 C 
ATOM      2  C   UNL     1      -0.102  10.080  17.878  0.00  0.00    +0.000 C 
ATOM      3  C   UNL     1      -1.051  11.231  18.049  0.00  0.00    +0.000 C 
ATOM      4  C   UNL     1      -0.480  12.332  18.955  0.00  0.00    +0.000 C 
ATOM      5  C   UNL     1       0.467  11.724  19.986  0.00  0.00    +0.000 C 
ATOM      6  O   UNL     1       1.541  11.008  19.365  0.00  0.00    +0.000 OA
ENDROOT
BRANCH   3   7
ATOM      7  C   UNL     1      -2.562  10.889  18.157  0.00  0.00    +0.000 A 
ATOM      8  C   UNL     1      -3.060   9.784  17.446  0.00  0.00    +0.000 A 
ATOM      9  S   UNL     1      -3.711  10.700  16.033  0.00  0.00    +0.000 S 
ATOM     10  C   UNL     1      -4.580  11.618  17.244  0.00  0.00    +0.000 A 
ATOM     11  C   UNL     1      -5.859  12.186  17.129  0.00  0.00    +0.000 A 
ATOM     12  C   UNL     1      -6.515  12.542  18.307  0.00  0.00    +0.000 A 
ATOM     13  C   UNL     1      -5.866  12.420  19.531  0.00  0.00    +0.000 A 
ATOM     14  C   UNL     1      -4.520  11.995  19.605  0.00  0.00    +0.000 A 
ATOM     15  C   UNL     1      -3.813  11.610  18.433  0.00  0.00    +0.000 A 
ENDBRANCH   3   7
BRANCH   1  17
ATOM     16  O   UNL     1       2.472   8.756  16.968  0.00  0.00    +0.000 OA
ATOM     17  C   UNL     1       2.073   8.932  18.115  0.00  0.00    +0.000 C 
ATOM     18  N   UNL     1       2.420   8.103  19.164  0.00  0.00    +0.000 N 
ATOM     19  H   UNL     1       1.963   8.250  20.055  0.00  0.00    +0.000 HD
BRANCH  18  20
ATOM     20  C   UNL     1       3.077   6.833  18.920  0.00  0.00    +0.000 C 
BRANCH  20  21
ATOM     21  C   UNL     1       2.208   5.619  19.160  0.00  0.00    +0.000 A 
ATOM     22  C   UNL     1       1.846   4.773  18.097  0.00  0.00    +0.000 A 
ATOM     23  C   UNL     1       1.123   3.597  18.327  0.00  0.00    +0.000 A 
ATOM     24  C   UNL     1       0.764   3.243  19.626  0.00  0.00    +0.000 A 
ATOM     25  C   UNL     1       1.126   4.063  20.692  0.00  0.00    +0.000 A 
ATOM     26  C   UNL     1       1.841   5.244  20.461  0.00  0.00    +0.000 A 
ENDBRANCH  20  21
ENDBRANCH  18  20
ENDBRANCH   1  17
BRANCH   5  27
ATOM     27  O   UNL     1      -0.306  10.928  20.870  0.00  0.00    +0.000 OA
BRANCH  27  28
ATOM     28  C   UNL     1      -1.018  11.677  21.843  0.00  0.00    +0.000 C 
BRANCH  28  29
ATOM     29  C   UNL     1      -1.191  10.785  23.064  0.00  0.00    +0.000 C 
BRANCH  29  30
ATOM     30  C   UNL     1      -0.097   9.713  23.113  0.00  0.00    +0.000 C 
BRANCH  30  31
ATOM     31  C   UNL     1      -0.499   8.455  22.359  0.00  0.00    +0.000 C 
BRANCH  31  32
ATOM     32  O   UNL     1       0.414   8.210  21.299  0.00  0.00    +0.000 OA
ATOM     33  H   UNL     1       0.208   7.328  20.942  0.00  0.00    +0.000 HD
ENDBRANCH  31  32
ENDBRANCH  30  31
ENDBRANCH  29  30
ENDBRANCH  28  29
ENDBRANCH  27  28
ENDBRANCH   5  27
TORSDOF 10
ENDMDL
MODEL 5
REMARK VINA RESULT:      -7.3      3.940      6.629
REMARK  Name = 
REMARK  10 active torsions:
REMARK  status: ('A' for Active; 'I' for Inactive)
REMARK    1  A    between atoms: C_2  and  C_11
REMARK    2  A    between atoms: N_3  and  C_4
REMARK    3  A    between atoms: C_4  and  C_5
REMARK    4  A    between atoms: C_13  and  C_14
REMARK    5  A    between atoms: C_24  and  O_25
REMARK    6  A    between atoms: O_25  and  C_26
REMARK    7  A    between atoms: C_26  and  C_27
REMARK    8  A    between atoms: C_27  and  C_28
REMARK    9  A    between atoms: C_28  and  C_29
REMARK   10  A    between atoms: C_29  and  O_30
REMARK                            x       y       z     vdW  Elec       q    Type
REMARK                         _______ _______ _______ _____ _____    ______ ____
ROOT
ATOM      1  C   UNL     1       6.561   6.144  17.688  0.00  0.00    +0.000 C 
ATOM      2  C   UNL     1       6.091   4.916  17.992  0.00  0.00    +0.000 C 
ATOM      3  C   UNL     1       5.053   4.219  17.161  0.00  0.00    +0.000 C 
ATOM      4  C   UNL     1       4.598   5.064  15.962  0.00  0.00    +0.000 C 
ATOM      5  C   UNL     1       4.702   6.549  16.298  0.00  0.00    +0.000 C 
ATOM      6  O   UNL     1       6.035   6.920  16.666  0.00  0.00    +0.000 OA
ENDROOT
BRANCH   3   7
ATOM      7  C   UNL     1       3.995   3.374  17.919  0.00  0.00    +0.000 A 
ATOM      8  C   UNL     1       2.908   2.844  17.202  0.00  0.00    +0.000 A 
ATOM      9  S   UNL     1       1.708   4.121  17.633  0.00  0.00    +0.000 S 
ATOM     10  C   UNL     1       2.137   3.729  19.285  0.00  0.00    +0.000 A 
ATOM     11  C   UNL     1       1.300   3.748  20.411  0.00  0.00    +0.000 A 
ATOM     12  C   UNL     1       1.725   3.053  21.543  0.00  0.00    +0.000 A 
ATOM     13  C   UNL     1       2.979   2.454  21.563  0.00  0.00    +0.000 A 
ATOM     14  C   UNL     1       3.869   2.584  20.472  0.00  0.00    +0.000 A 
ATOM     15  C   UNL     1       3.477   3.274  19.292  0.00  0.00    +0.000 A 
ENDBRANCH   3   7
BRANCH   1  17
ATOM     16  O   UNL     1       8.259   6.076  19.377  0.00  0.00    +0.000 OA
ATOM     17  C   UNL     1       7.715   6.713  18.480  0.00  0.00    +0.000 C 
ATOM     18  N   UNL     1       8.074   8.009  18.160  0.00  0.00    +0.000 N 
ATOM     19  H   UNL     1       7.505   8.504  17.485  0.00  0.00    +0.000 HD
BRANCH  18  20
ATOM     20  C   UNL     1       8.946   8.774  19.031  0.00  0.00    +0.000 C 
BRANCH  20  21
ATOM     21  C   UNL     1       9.064  10.239  18.673  0.00  0.00    +0.000 A 
ATOM     22  C   UNL     1      10.181  10.989  19.079  0.00  0.00    +0.000 A 
ATOM     23  C   UNL     1      10.342  12.318  18.671  0.00  0.00    +0.000 A 
ATOM     24  C   UNL     1       9.395  12.911  17.839  0.00  0.00    +0.000 A 
ATOM     25  C   UNL     1       8.289  12.178  17.417  0.00  0.00    +0.000 A 
ATOM     26  C   UNL     1       8.123  10.851  17.832  0.00  0.00    +0.000 A 
ENDBRANCH  20  21
ENDBRANCH  18  20
ENDBRANCH   1  17
BRANCH   5  27
ATOM     27  O   UNL     1       3.738   6.838  17.298  0.00  0.00    +0.000 OA
BRANCH  27  28
ATOM     28  C   UNL     1       3.397   8.213  17.387  0.00  0.00    +0.000 C 
BRANCH  28  29
ATOM     29  C   UNL     1       2.137   8.313  18.235  0.00  0.00    +0.000 C 
BRANCH  29  30
ATOM     30  C   UNL     1       2.242   7.415  19.471  0.00  0.00    +0.000 C 
BRANCH  30  31
ATOM     31  C   UNL     1       1.570   8.037  20.686  0.00  0.00    +0.000 C 
BRANCH  31  32
ATOM     32  O   UNL     1       0.790   9.157  20.291  0.00  0.00    +0.000 OA
ATOM     33  H   UNL     1      -0.066   9.085  20.746  0.00  0.00    +0.000 HD
ENDBRANCH  31  32
ENDBRANCH  30  31
ENDBRANCH  29  30
ENDBRANCH  28  29
ENDBRANCH  27  28
ENDBRANCH   5  27
TORSDOF 10
ENDMDL
MODEL 6
REMARK VINA RESULT:      -7.1      4.040      6.955
REMARK  Name = 
REMARK  10 active torsions:
REMARK  status: ('A' for Active; 'I' for Inactive)
REMARK    1  A    between atoms: C_2  and  C_11
REMARK    2  A    between atoms: N_3  and  C_4
REMARK    3  A    between atoms: C_4  and  C_5
REMARK    4  A    between atoms: C_13  and  C_14
REMARK    5  A    between atoms: C_24  and  O_25
REMARK    6  A    between atoms: O_25  and  C_26
REMARK    7  A    between atoms: C_26  and  C_27
REMARK    8  A    between atoms: C_27  and  C_28
REMARK    9  A    between atoms: C_28  and  C_29
REMARK   10  A    between atoms: C_29  and  O_30
REMARK                            x       y       z     vdW  Elec       q    Type
REMARK                         _______ _______ _______ _____ _____    ______ ____
ROOT
ATOM      1  C   UNL     1       6.556   6.042  17.738  0.00  0.00    +0.000 C 
ATOM      2  C   UNL     1       6.045   4.825  18.020  0.00  0.00    +0.000 C 
ATOM      3  C   UNL     1       4.974   4.185  17.184  0.00  0.00    +0.000 C 
ATOM      4  C   UNL     1       4.538   5.073  16.010  0.00  0.00    +0.000 C 
ATOM      5  C   UNL     1       4.699   6.545  16.378  0.00  0.00    +0.000 C 
ATOM      6  O   UNL     1       6.049   6.859  16.741  0.00  0.00    +0.000 OA
ENDROOT
BRANCH   3   7
ATOM      7  C   UNL     1       3.894   3.361  17.935  0.00  0.00    +0.000 A 
ATOM      8  C   UNL     1       2.796   2.864  17.211  0.00  0.00    +0.000 A 
ATOM      9  S   UNL     1       1.627   4.167  17.651  0.00  0.00    +0.000 S 
ATOM     10  C   UNL     1       2.044   3.752  19.300  0.00  0.00    +0.000 A 
ATOM     11  C   UNL     1       1.206   3.784  20.425  0.00  0.00    +0.000 A 
ATOM     12  C   UNL     1       1.611   3.069  21.552  0.00  0.00    +0.000 A 
ATOM     13  C   UNL     1       2.850   2.439  21.569  0.00  0.00    +0.000 A 
ATOM     14  C   UNL     1       3.744   2.555  20.481  0.00  0.00    +0.000 A 
ATOM     15  C   UNL     1       3.372   3.263  19.305  0.00  0.00    +0.000 A 
ENDBRANCH   3   7
BRANCH   1  17
ATOM     16  O   UNL     1       8.285   5.863  19.388  0.00  0.00    +0.000 OA
ATOM     17  C   UNL     1       7.738   6.551  18.531  0.00  0.00    +0.000 C 
ATOM     18  N   UNL     1       8.119   7.851  18.259  0.00  0.00    +0.000 N 
ATOM     19  H   UNL     1       7.549   8.388  17.618  0.00  0.00    +0.000 HD
BRANCH  18  20
ATOM     20  C   UNL     1       9.025   8.558  19.144  0.00  0.00    +0.000 C 
BRANCH  20  21
ATOM     21  C   UNL     1       8.973  10.065  19.025  0.00  0.00    +0.000 A 
ATOM     22  C   UNL     1       9.422  10.884  20.075  0.00  0.00    +0.000 A 
ATOM     23  C   UNL     1       9.465  12.276  19.934  0.00  0.00    +0.000 A 
ATOM     24  C   UNL     1       9.073  12.867  18.735  0.00  0.00    +0.000 A 
ATOM     25  C   UNL     1       8.637  12.069  17.680  0.00  0.00    +0.000 A 
ATOM     26  C   UNL     1       8.585  10.678  17.824  0.00  0.00    +0.000 A 
ENDBRANCH  20  21
ENDBRANCH  18  20
ENDBRANCH   1  17
BRANCH   5  27
ATOM     27  O   UNL     1       3.756   6.845  17.395  0.00  0.00    +0.000 OA
BRANCH  27  28
ATOM     28  C   UNL     1       3.434   8.224  17.491  0.00  0.00    +0.000 C 
BRANCH  28  29
ATOM     29  C   UNL     1       2.212   8.342  18.389  0.00  0.00    +0.000 C 
BRANCH  29  30
ATOM     30  C   UNL     1       1.180   9.296  17.779  0.00  0.00    +0.000 C 
BRANCH  30  31
ATOM     31  C   UNL     1       0.575  10.224  18.822  0.00  0.00    +0.000 C 
BRANCH  31  32
ATOM     32  O   UNL     1      -0.052  11.328  18.187  0.00  0.00    +0.000 OA
ATOM     33  H   UNL     1      -0.572  11.791  18.866  0.00  0.00    +0.000 HD
ENDBRANCH  31  32
ENDBRANCH  30  31
ENDBRANCH  29  30
ENDBRANCH  28  29
ENDBRANCH  27  28
ENDBRANCH   5  27
TORSDOF 10
ENDMDL
MODEL 7
REMARK VINA RESULT:      -7.1      5.208      8.332
REMARK  Name = 
REMARK  10 active torsions:
REMARK  status: ('A' for Active; 'I' for Inactive)
REMARK    1  A    between atoms: C_2  and  C_11
REMARK    2  A    between atoms: N_3  and  C_4
REMARK    3  A    between atoms: C_4  and  C_5
REMARK    4  A    between atoms: C_13  and  C_14
REMARK    5  A    between atoms: C_24  and  O_25
REMARK    6  A    between atoms: O_25  and  C_26
REMARK    7  A    between atoms: C_26  and  C_27
REMARK    8  A    between atoms: C_27  and  C_28
REMARK    9  A    between atoms: C_28  and  C_29
REMARK   10  A    between atoms: C_29  and  O_30
REMARK                            x       y       z     vdW  Elec       q    Type
REMARK                         _______ _______ _______ _____ _____    ______ ____
ROOT
ATOM      1  C   UNL     1       1.304   9.932  18.741  0.00  0.00    +0.000 C 
ATOM      2  C   UNL     1       1.834  11.173  18.757  0.00  0.00    +0.000 C 
ATOM      3  C   UNL     1       1.181  12.322  19.471  0.00  0.00    +0.000 C 
ATOM      4  C   UNL     1      -0.136  11.917  20.149  0.00  0.00    +0.000 C 
ATOM      5  C   UNL     1      -0.800  10.785  19.372  0.00  0.00    +0.000 C 
ATOM      6  O   UNL     1       0.055   9.640  19.264  0.00  0.00    +0.000 OA
ENDROOT
BRANCH   3   7
ATOM      7  C   UNL     1       1.270  13.715  18.792  0.00  0.00    +0.000 A 
ATOM      8  C   UNL     1       2.402  14.021  18.016  0.00  0.00    +0.000 A 
ATOM      9  S   UNL     1       3.297  14.950  19.279  0.00  0.00    +0.000 S 
ATOM     10  C   UNL     1       1.831  15.902  19.378  0.00  0.00    +0.000 A 
ATOM     11  C   UNL     1       1.723  17.276  19.643  0.00  0.00    +0.000 A 
ATOM     12  C   UNL     1       0.524  17.905  19.310  0.00  0.00    +0.000 A 
ATOM     13  C   UNL     1      -0.544  17.159  18.824  0.00  0.00    +0.000 A 
ATOM     14  C   UNL     1      -0.462  15.752  18.715  0.00  0.00    +0.000 A 
ATOM     15  C   UNL     1       0.743  15.066  19.032  0.00  0.00    +0.000 A 
ENDBRANCH   3   7
BRANCH   1  17
ATOM     16  O   UNL     1       2.537   8.854  16.992  0.00  0.00    +0.000 OA
ATOM     17  C   UNL     1       2.097   8.796  18.136  0.00  0.00    +0.000 C 
ATOM     18  N   UNL     1       2.241   7.681  18.938  0.00  0.00    +0.000 N 
ATOM     19  H   UNL     1       1.756   7.669  19.826  0.00  0.00    +0.000 HD
BRANCH  18  20
ATOM     20  C   UNL     1       2.707   6.423  18.384  0.00  0.00    +0.000 C 
BRANCH  20  21
ATOM     21  C   UNL     1       2.015   5.197  18.936  0.00  0.00    +0.000 A 
ATOM     22  C   UNL     1       1.637   4.143  18.088  0.00  0.00    +0.000 A 
ATOM     23  C   UNL     1       1.084   2.966  18.605  0.00  0.00    +0.000 A 
ATOM     24  C   UNL     1       0.914   2.821  19.981  0.00  0.00    +0.000 A 
ATOM     25  C   UNL     1       1.296   3.852  20.837  0.00  0.00    +0.000 A 
ATOM     26  C   UNL     1       1.840   5.033  20.319  0.00  0.00    +0.000 A 
ENDBRANCH  20  21
ENDBRANCH  18  20
ENDBRANCH   1  17
BRANCH   5  27
ATOM     27  O   UNL     1      -1.214  11.301  18.117  0.00  0.00    +0.000 OA
BRANCH  27  28
ATOM     28  C   UNL     1      -2.622  11.409  17.977  0.00  0.00    +0.000 C 
BRANCH  28  29
ATOM     29  C   UNL     1      -3.139  10.047  17.537  0.00  0.00    +0.000 C 
BRANCH  29  30
ATOM     30  C   UNL     1      -2.682   9.728  16.110  0.00  0.00    +0.000 C 
BRANCH  30  31
ATOM     31  C   UNL     1      -3.179  10.761  15.110  0.00  0.00    +0.000 C 
BRANCH  31  32
ATOM     32  O   UNL     1      -3.705  10.113  13.961  0.00  0.00    +0.000 OA
ATOM     33  H   UNL     1      -3.029   9.488  13.649  0.00  0.00    +0.000 HD
ENDBRANCH  31  32
ENDBRANCH  30  31
ENDBRANCH  29  30
ENDBRANCH  28  29
ENDBRANCH  27  28
ENDBRANCH   5  27
TORSDOF 10
ENDMDL
MODEL 8
REMARK VINA RESULT:      -7.1      3.968      6.811
REMARK  Name = 
REMARK  10 active torsions:
REMARK  status: ('A' for Active; 'I' for Inactive)
REMARK    1  A    between atoms: C_2  and  C_11
REMARK    2  A    between atoms: N_3  and  C_4
REMARK    3  A    between atoms: C_4  and  C_5
REMARK    4  A    between atoms: C_13  and  C_14
REMARK    5  A    between atoms: C_24  and  O_25
REMARK    6  A    between atoms: O_25  and  C_26
REMARK    7  A    between atoms: C_26  and  C_27
REMARK    8  A    between atoms: C_27  and  C_28
REMARK    9  A    between atoms: C_28  and  C_29
REMARK   10  A    between atoms: C_29  and  O_30
REMARK                            x       y       z     vdW  Elec       q    Type
REMARK                         _______ _______ _______ _____ _____    ______ ____
ROOT
ATOM      1  C   UNL     1       6.563   6.092  17.626  0.00  0.00    +0.000 C 
ATOM      2  C   UNL     1       6.089   4.879  17.983  0.00  0.00    +0.000 C 
ATOM      3  C   UNL     1       5.090   4.126  17.153  0.00  0.00    +0.000 C 
ATOM      4  C   UNL     1       4.678   4.896  15.890  0.00  0.00    +0.000 C 
ATOM      5  C   UNL     1       4.759   6.399  16.142  0.00  0.00    +0.000 C 
ATOM      6  O   UNL     1       6.074   6.802  16.541  0.00  0.00    +0.000 OA
ENDROOT
BRANCH   3   7
ATOM      7  C   UNL     1       4.007   3.317  17.916  0.00  0.00    +0.000 A 
ATOM      8  C   UNL     1       2.886   2.849  17.210  0.00  0.00    +0.000 A 
ATOM      9  S   UNL     1       1.752   4.172  17.683  0.00  0.00    +0.000 S 
ATOM     10  C   UNL     1       2.191   3.734  19.320  0.00  0.00    +0.000 A 
ATOM     11  C   UNL     1       1.375   3.772  20.461  0.00  0.00    +0.000 A 
ATOM     12  C   UNL     1       1.787   3.039  21.573  0.00  0.00    +0.000 A 
ATOM     13  C   UNL     1       3.013   2.384  21.562  0.00  0.00    +0.000 A 
ATOM     14  C   UNL     1       3.889   2.492  20.458  0.00  0.00    +0.000 A 
ATOM     15  C   UNL     1       3.509   3.218  19.296  0.00  0.00    +0.000 A 
ENDBRANCH   3   7
BRANCH   1  17
ATOM     16  O   UNL     1       8.216   6.122  19.361  0.00  0.00    +0.000 OA
ATOM     17  C   UNL     1       7.681   6.716  18.430  0.00  0.00    +0.000 C 
ATOM     18  N   UNL     1       8.015   8.009  18.076  0.00  0.00    +0.000 N 
ATOM     19  H   UNL     1       7.453   8.468  17.371  0.00  0.00    +0.000 HD
BRANCH  18  20
ATOM     20  C   UNL     1       8.844   8.824  18.944  0.00  0.00    +0.000 C 
BRANCH  20  21
ATOM     21  C   UNL     1       9.023  10.253  18.482  0.00  0.00    +0.000 A 
ATOM     22  C   UNL     1       8.027  10.894  17.726  0.00  0.00    +0.000 A 
ATOM     23  C   UNL     1       8.143  12.244  17.378  0.00  0.00    +0.000 A 
ATOM     24  C   UNL     1       9.252  12.978  17.794  0.00  0.00    +0.000 A 
ATOM     25  C   UNL     1      10.243  12.362  18.555  0.00  0.00    +0.000 A 
ATOM     26  C   UNL     1      10.131  11.009  18.896  0.00  0.00    +0.000 A 
ENDBRANCH  20  21
ENDBRANCH  18  20
ENDBRANCH   1  17
BRANCH   5  27
ATOM     27  O   UNL     1       3.754   6.737  17.084  0.00  0.00    +0.000 OA
BRANCH  27  28
ATOM     28  C   UNL     1       3.611   8.133  17.295  0.00  0.00    +0.000 C 
BRANCH  28  29
ATOM     29  C   UNL     1       2.475   8.327  18.290  0.00  0.00    +0.000 C 
BRANCH  29  30
ATOM     30  C   UNL     1       1.426   9.294  17.734  0.00  0.00    +0.000 C 
BRANCH  30  31
ATOM     31  C   UNL     1       0.960  10.293  18.783  0.00  0.00    +0.000 C 
BRANCH  31  32
ATOM     32  O   UNL     1       0.432   9.606  19.908  0.00  0.00    +0.000 OA
ATOM     33  H   UNL     1       1.178   9.418  20.504  0.00  0.00    +0.000 HD
ENDBRANCH  31  32
ENDBRANCH  30  31
ENDBRANCH  29  30
ENDBRANCH  28  29
ENDBRANCH  27  28
ENDBRANCH   5  27
TORSDOF 10
ENDMDL
MODEL 9
REMARK VINA RESULT:      -7.1      5.024      8.276
REMARK  Name = 
REMARK  10 active torsions:
REMARK  status: ('A' for Active; 'I' for Inactive)
REMARK    1  A    between atoms: C_2  and  C_11
REMARK    2  A    between atoms: N_3  and  C_4
REMARK    3  A    between atoms: C_4  and  C_5
REMARK    4  A    between atoms: C_13  and  C_14
REMARK    5  A    between atoms: C_24  and  O_25
REMARK    6  A    between atoms: O_25  and  C_26
REMARK    7  A    between atoms: C_26  and  C_27
REMARK    8  A    between atoms: C_27  and  C_28
REMARK    9  A    between atoms: C_28  and  C_29
REMARK   10  A    between atoms: C_29  and  O_30
REMARK                            x       y       z     vdW  Elec       q    Type
REMARK                         _______ _______ _______ _____ _____    ______ ____
ROOT
ATOM      1  C   UNL     1       1.083   9.940  18.612  0.00  0.00    +0.000 C 
ATOM      2  C   UNL     1      -0.102  10.091  17.984  0.00  0.00    +0.000 C 
ATOM      3  C   UNL     1      -1.045  11.216  18.298  0.00  0.00    +0.000 C 
ATOM      4  C   UNL     1      -0.510  12.138  19.403  0.00  0.00    +0.000 C 
ATOM      5  C   UNL     1       0.374  11.348  20.362  0.00  0.00    +0.000 C 
ATOM      6  O   UNL     1       1.472  10.725  19.685  0.00  0.00    +0.000 OA
ENDROOT
BRANCH   3   7
ATOM      7  C   UNL     1      -2.563  10.890  18.272  0.00  0.00    +0.000 A 
ATOM      8  C   UNL     1      -3.009   9.795  17.512  0.00  0.00    +0.000 A 
ATOM      9  S   UNL     1      -3.525  10.726  16.054  0.00  0.00    +0.000 S 
ATOM     10  C   UNL     1      -4.486  11.648  17.191  0.00  0.00    +0.000 A 
ATOM     11  C   UNL     1      -5.743  12.231  16.969  0.00  0.00    +0.000 A 
ATOM     12  C   UNL     1      -6.496  12.588  18.087  0.00  0.00    +0.000 A 
ATOM     13  C   UNL     1      -5.958  12.452  19.362  0.00  0.00    +0.000 A 
ATOM     14  C   UNL     1      -4.628  12.011  19.550  0.00  0.00    +0.000 A 
ATOM     15  C   UNL     1      -3.826  11.624  18.442  0.00  0.00    +0.000 A 
ENDBRANCH   3   7
BRANCH   1  17
ATOM     16  O   UNL     1       2.547   8.918  17.013  0.00  0.00    +0.000 OA
ATOM     17  C   UNL     1       2.046   8.877  18.132  0.00  0.00    +0.000 C 
ATOM     18  N   UNL     1       2.274   7.841  19.017  0.00  0.00    +0.000 N 
ATOM     19  H   UNL     1       1.738   7.824  19.876  0.00  0.00    +0.000 HD
BRANCH  18  20
ATOM     20  C   UNL     1       2.924   6.621  18.579  0.00  0.00    +0.000 C 
BRANCH  20  21
ATOM     21  C   UNL     1       2.236   5.348  19.020  0.00  0.00    +0.000 A 
ATOM     22  C   UNL     1       1.901   5.144  20.370  0.00  0.00    +0.000 A 
ATOM     23  C   UNL     1       1.180   4.013  20.769  0.00  0.00    +0.000 A 
ATOM     24  C   UNL     1       0.772   3.076  19.822  0.00  0.00    +0.000 A 
ATOM     25  C   UNL     1       1.084   3.270  18.478  0.00  0.00    +0.000 A 
ATOM     26  C   UNL     1       1.813   4.396  18.080  0.00  0.00    +0.000 A 
ENDBRANCH  20  21
ENDBRANCH  18  20
ENDBRANCH   1  17
BRANCH   5  27
ATOM     27  O   UNL     1      -0.452  10.431  21.061  0.00  0.00    +0.000 OA
BRANCH  27  28
ATOM     28  C   UNL     1      -0.762  10.833  22.387  0.00  0.00    +0.000 C 
BRANCH  28  29
ATOM     29  C   UNL     1      -1.937  11.797  22.306  0.00  0.00    +0.000 C 
BRANCH  29  30
ATOM     30  C   UNL     1      -1.912  12.783  23.478  0.00  0.00    +0.000 C 
BRANCH  30  31
ATOM     31  C   UNL     1      -1.067  14.010  23.172  0.00  0.00    +0.000 C 
BRANCH  31  32
ATOM     32  O   UNL     1      -1.319  14.457  21.848  0.00  0.00    +0.000 OA
ATOM     33  H   UNL     1      -2.281  14.574  21.763  0.00  0.00    +0.000 HD
ENDBRANCH  31  32
ENDBRANCH  30  31
ENDBRANCH  29  30
ENDBRANCH  28  29
ENDBRANCH  27  28
ENDBRANCH   5  27
TORSDOF 10
ENDMDL
