MODEL 1
REMARK VINA RESULT:      -7.3      0.000      0.000
REMARK  Name = 
REMARK  7 active torsions:
REMARK  status: ('A' for Active; 'I' for Inactive)
REMARK    1  A    between atoms: C_1  and  O_2
REMARK    2  A    between atoms: O_2  and  C_3
REMARK    3  A    between atoms: C_6  and  N_7
REMARK    4  A    between atoms: N_8  and  C_9
REMARK    5  A    between atoms: C_9  and  N_23
REMARK    6  A    between atoms: N_14  and  C_15
REMARK    7  A    between atoms: C_15  and  C_16
REMARK                            x       y       z     vdW  Elec       q    Type
REMARK                         _______ _______ _______ _____ _____    ______ ____
ROOT
ATOM      1  C   UNL     1       6.592   5.580  17.635  0.00  0.00    +0.000 C 
ATOM      2  C   UNL     1       5.295   5.147  17.533  0.00  0.00    +0.000 C 
ATOM      3  N   UNL     1       4.859   3.941  16.992  0.00  0.00    +0.000 N 
ATOM      4  C   UNL     1       3.453   3.665  17.225  0.00  0.00    +0.000 C 
ATOM      5  C   UNL     1       2.930   5.000  17.793  0.00  0.00    +0.000 C 
ATOM      6  N   UNL     1       4.144   5.860  17.932  0.00  0.00    +0.000 N 
ATOM      7  H   UNL     1       5.523   3.166  16.948  0.00  0.00    +0.000 HD
ENDROOT
BRANCH   1   8
ATOM      8  N   UNL     1       7.569   4.666  17.022  0.00  0.00    +0.000 N 
ATOM      9  O   UNL     1       7.533   4.556  15.786  0.00  0.00    +0.000 OA
ATOM     10  O   UNL     1       8.376   4.068  17.756  0.00  0.00    +0.000 OA
ENDBRANCH   1   8
BRANCH   1  12
ATOM     11  N   UNL     1       7.573   7.588  17.156  0.00  0.00    +0.000 NA
ATOM     12  N   UNL     1       7.030   6.842  18.005  0.00  0.00    +0.000 NA
BRANCH  11  16
ATOM     13  C   UNL     1       9.020  11.201  18.913  0.00  0.00    +0.000 A 
ATOM     14  C   UNL     1       8.194  11.221  17.789  0.00  0.00    +0.000 A 
ATOM     15  C   UNL     1       7.685  10.031  17.247  0.00  0.00    +0.000 A 
ATOM     16  C   UNL     1       8.020   8.785  17.789  0.00  0.00    +0.000 A 
ATOM     17  C   UNL     1       8.816   8.781  18.945  0.00  0.00    +0.000 A 
ATOM     18  C   UNL     1       9.318   9.974  19.502  0.00  0.00    +0.000 A 
BRANCH  13  20
ATOM     19  C   UNL     1       9.310  13.525  18.404  0.00  0.00    +0.000 C 
ATOM     20  O   UNL     1       9.480  12.429  19.297  0.00  0.00    +0.000 OA
ENDBRANCH  13  20
ENDBRANCH  11  16
ENDBRANCH   1  12
BRANCH   6  21
ATOM     21  C   UNL     1       3.948   7.258  17.525  0.00  0.00    +0.000 C 
BRANCH  21  22
ATOM     22  C   UNL     1       2.802   7.927  18.231  0.00  0.00    +0.000 A 
ATOM     23  C   UNL     1       2.027   8.959  17.693  0.00  0.00    +0.000 A 
ATOM     24  C   UNL     1       1.086   9.599  18.495  0.00  0.00    +0.000 A 
ATOM     25  C   UNL     1       0.940   9.155  19.797  0.00  0.00    +0.000 A 
ATOM     26 CL   UNL     1      -0.056  10.000  20.909  0.00  0.00    +0.000 Cl
ATOM     27  N   UNL     1       1.590   8.100  20.323  0.00  0.00    +0.000 NA
ATOM     28  C   UNL     1       2.494   7.502  19.522  0.00  0.00    +0.000 A 
ENDBRANCH  21  22
ENDBRANCH   6  21
TORSDOF 6
ENDMDL
MODEL 2
REMARK VINA RESULT:      -7.1      5.641      8.470
REMARK  Name = 
REMARK  7 active torsions:
REMARK  status: ('A' for Active; 'I' for Inactive)
REMARK    1  A    between atoms: C_1  and  O_2
REMARK    2  A    between atoms: O_2  and  C_3
REMARK    3  A    between atoms: C_6  and  N_7
REMARK    4  A    between atoms: N_8  and  C_9
REMARK    5  A    between atoms: C_9  and  N_23
REMARK    6  A    between atoms: N_14  and  C_15
REMARK    7  A    between atoms: C_15  and  C_16
REMARK                            x       y       z     vdW  Elec       q    Type
REMARK                         _______ _______ _______ _____ _____    ______ ____
ROOT
ATOM      1  C   UNL     1       0.532   9.706  21.274  0.00  0.00    +0.000 C 
ATOM      2  C   UNL     1       0.294  10.849  20.556  0.00  0.00    +0.000 C 
ATOM      3  N   UNL     1      -0.124  12.078  21.061  0.00  0.00    +0.000 N 
ATOM      4  C   UNL     1      -0.075  13.159  20.092  0.00  0.00    +0.000 C 
ATOM      5  C   UNL     1       0.199  12.421  18.767  0.00  0.00    +0.000 C 
ATOM      6  N   UNL     1       0.398  10.991  19.155  0.00  0.00    +0.000 N 
ATOM      7  H   UNL     1       0.052  12.277  22.046  0.00  0.00    +0.000 HD
ENDROOT
BRANCH   1   8
ATOM      8  N   UNL     1       0.222   9.833  22.708  0.00  0.00    +0.000 N 
ATOM      9  O   UNL     1      -0.943  10.145  23.001  0.00  0.00    +0.000 OA
ATOM     10  O   UNL     1       1.121   9.615  23.539  0.00  0.00    +0.000 OA
ENDBRANCH   1   8
BRANCH   1  12
ATOM     11  N   UNL     1       1.946   8.091  20.489  0.00  0.00    +0.000 NA
ATOM     12  N   UNL     1       0.775   8.436  20.774  0.00  0.00    +0.000 NA
BRANCH  11  16
ATOM     13  C   UNL     1       2.044   4.147  18.857  0.00  0.00    +0.000 A 
ATOM     14  C   UNL     1       1.598   4.383  20.157  0.00  0.00    +0.000 A 
ATOM     15  C   UNL     1       1.524   5.687  20.668  0.00  0.00    +0.000 A 
ATOM     16  C   UNL     1       1.933   6.788  19.909  0.00  0.00    +0.000 A 
ATOM     17  C   UNL     1       2.339   6.543  18.588  0.00  0.00    +0.000 A 
ATOM     18  C   UNL     1       2.402   5.236  18.065  0.00  0.00    +0.000 A 
BRANCH  13  20
ATOM     19  C   UNL     1       3.360   2.301  18.079  0.00  0.00    +0.000 C 
ATOM     20  O   UNL     1       2.110   2.825  18.515  0.00  0.00    +0.000 OA
ENDBRANCH  13  20
ENDBRANCH  11  16
ENDBRANCH   1  12
BRANCH   6  21
ATOM     21  C   UNL     1      -0.238  10.022  18.254  0.00  0.00    +0.000 C 
BRANCH  21  22
ATOM     22  C   UNL     1      -1.618  10.430  17.820  0.00  0.00    +0.000 A 
ATOM     23  C   UNL     1      -2.085  10.391  16.503  0.00  0.00    +0.000 A 
ATOM     24  C   UNL     1      -3.332  10.931  16.201  0.00  0.00    +0.000 A 
ATOM     25  C   UNL     1      -4.074  11.459  17.242  0.00  0.00    +0.000 A 
ATOM     26 CL   UNL     1      -5.534  12.309  16.941  0.00  0.00    +0.000 Cl
ATOM     27  N   UNL     1      -3.710  11.424  18.538  0.00  0.00    +0.000 NA
ATOM     28  C   UNL     1      -2.497  10.896  18.796  0.00  0.00    +0.000 A 
ENDBRANCH  21  22
ENDBRANCH   6  21
TORSDOF 6
ENDMDL
MODEL 3
REMARK VINA RESULT:      -7.1      5.071      8.010
REMARK  Name = 
REMARK  7 active torsions:
REMARK  status: ('A' for Active; 'I' for Inactive)
REMARK    1  A    between atoms: C_1  and  O_2
REMARK    2  A    between atoms: O_2  and  C_3
REMARK    3  A    between atoms: C_6  and  N_7
REMARK    4  A    between atoms: N_8  and  C_9
REMARK    5  A    between atoms: C_9  and  N_23
REMARK    6  A    between atoms: N_14  and  C_15
REMARK    7  A    between atoms: C_15  and  C_16
REMARK                            x       y       z     vdW  Elec       q    Type
REMARK                         _______ _______ _______ _____ _____    ______ ____
ROOT
ATOM      1  C   UNL     1       0.642   9.882  21.441  0.00  0.00    +0.000 C 
ATOM      2  C   UNL     1       0.418  11.225  21.287  0.00  0.00    +0.000 C 
ATOM      3  N   UNL     1      -0.290  12.056  22.153  0.00  0.00    +0.000 N 
ATOM      4  C   UNL     1      -0.169  13.469  21.842  0.00  0.00    +0.000 C 
ATOM      5  C   UNL     1       0.528  13.461  20.467  0.00  0.00    +0.000 C 
ATOM      6  N   UNL     1       0.838  12.023  20.201  0.00  0.00    +0.000 N 
ATOM      7  H   UNL     1      -0.392  11.762  23.125  0.00  0.00    +0.000 HD
ENDROOT
BRANCH   1   8
ATOM      8  N   UNL     1      -0.024   9.302  22.619  0.00  0.00    +0.000 N 
ATOM      9  O   UNL     1      -0.923   8.475  22.401  0.00  0.00    +0.000 OA
ATOM     10  O   UNL     1       0.348   9.654  23.753  0.00  0.00    +0.000 OA
ENDBRANCH   1   8
BRANCH   1  12
ATOM     11  N   UNL     1       1.625   7.895  20.882  0.00  0.00    +0.000 NA
ATOM     12  N   UNL     1       1.188   9.010  20.511  0.00  0.00    +0.000 NA
BRANCH  11  16
ATOM     13  C   UNL     1       3.546   5.858  17.659  0.00  0.00    +0.000 A 
ATOM     14  C   UNL     1       3.146   5.179  18.810  0.00  0.00    +0.000 A 
ATOM     15  C   UNL     1       2.472   5.848  19.843  0.00  0.00    +0.000 A 
ATOM     16  C   UNL     1       2.217   7.221  19.773  0.00  0.00    +0.000 A 
ATOM     17  C   UNL     1       2.586   7.884  18.592  0.00  0.00    +0.000 A 
ATOM     18  C   UNL     1       3.250   7.215  17.545  0.00  0.00    +0.000 A 
BRANCH  13  20
ATOM     19  C   UNL     1       4.900   3.925  17.239  0.00  0.00    +0.000 C 
ATOM     20  O   UNL     1       4.236   5.090  16.762  0.00  0.00    +0.000 OA
ENDBRANCH  13  20
ENDBRANCH  11  16
ENDBRANCH   1  12
BRANCH   6  21
ATOM     21  C   UNL     1       0.595  11.595  18.818  0.00  0.00    +0.000 C 
BRANCH  21  22
ATOM     22  C   UNL     1      -0.843  11.249  18.547  0.00  0.00    +0.000 A 
ATOM     23  C   UNL     1      -1.283  10.047  17.986  0.00  0.00    +0.000 A 
ATOM     24  C   UNL     1      -2.626   9.899  17.648  0.00  0.00    +0.000 A 
ATOM     25  C   UNL     1      -3.478  10.954  17.917  0.00  0.00    +0.000 A 
ATOM     26 CL   UNL     1      -5.104  10.935  17.370  0.00  0.00    +0.000 Cl
ATOM     27  N   UNL     1      -3.119  12.086  18.550  0.00  0.00    +0.000 NA
ATOM     28  C   UNL     1      -1.812  12.200  18.864  0.00  0.00    +0.000 A 
ENDBRANCH  21  22
ENDBRANCH   6  21
TORSDOF 6
ENDMDL
MODEL 4
REMARK VINA RESULT:      -7.1      5.674      8.521
REMARK  Name = 
REMARK  7 active torsions:
REMARK  status: ('A' for Active; 'I' for Inactive)
REMARK    1  A    between atoms: C_1  and  O_2
REMARK    2  A    between atoms: O_2  and  C_3
REMARK    3  A    between atoms: C_6  and  N_7
REMARK    4  A    between atoms: N_8  and  C_9
REMARK    5  A    between atoms: C_9  and  N_23
REMARK    6  A    between atoms: N_14  and  C_15
REMARK    7  A    between atoms: C_15  and  C_16
REMARK                            x       y       z     vdW  Elec       q    Type
REMARK                         _______ _______ _______ _____ _____    ______ ____
ROOT
ATOM      1  C   UNL     1       0.409   9.843  21.283  0.00  0.00    +0.000 C 
ATOM      2  C   UNL     1       0.175  10.976  20.547  0.00  0.00    +0.000 C 
ATOM      3  N   UNL     1      -0.272  12.204  21.028  0.00  0.00    +0.000 N 
ATOM      4  C   UNL     1      -0.212  13.276  20.051  0.00  0.00    +0.000 C 
ATOM      5  C   UNL     1       0.107  12.529  18.741  0.00  0.00    +0.000 C 
ATOM      6  N   UNL     1       0.315  11.107  19.148  0.00  0.00    +0.000 N 
ATOM      7  H   UNL     1      -0.125  12.415  22.016  0.00  0.00    +0.000 HD
ENDROOT
BRANCH   1   8
ATOM      8  N   UNL     1       0.059   9.980  22.706  0.00  0.00    +0.000 N 
ATOM      9  O   UNL     1       0.950   9.712  23.528  0.00  0.00    +0.000 OA
ATOM     10  O   UNL     1      -1.086  10.360  23.009  0.00  0.00    +0.000 OA
ENDBRANCH   1   8
BRANCH   1  12
ATOM     11  N   UNL     1       1.871   8.191  20.684  0.00  0.00    +0.000 NA
ATOM     12  N   UNL     1       0.682   8.572  20.802  0.00  0.00    +0.000 NA
BRANCH  11  16
ATOM     13  C   UNL     1       1.831   4.366  18.786  0.00  0.00    +0.000 A 
ATOM     14  C   UNL     1       2.317   5.497  18.130  0.00  0.00    +0.000 A 
ATOM     15  C   UNL     1       2.371   6.740  18.778  0.00  0.00    +0.000 A 
ATOM     16  C   UNL     1       1.902   6.897  20.086  0.00  0.00    +0.000 A 
ATOM     17  C   UNL     1       1.455   5.744  20.751  0.00  0.00    +0.000 A 
ATOM     18  C   UNL     1       1.411   4.490  20.110  0.00  0.00    +0.000 A 
BRANCH  13  20
ATOM     19  C   UNL     1       2.989   2.812  17.378  0.00  0.00    +0.000 C 
ATOM     20  O   UNL     1       1.790   3.239  18.014  0.00  0.00    +0.000 OA
ENDBRANCH  13  20
ENDBRANCH  11  16
ENDBRANCH   1  12
BRANCH   6  21
ATOM     21  C   UNL     1      -0.284  10.120  18.240  0.00  0.00    +0.000 C 
BRANCH  21  22
ATOM     22  C   UNL     1      -1.669  10.491  17.790  0.00  0.00    +0.000 A 
ATOM     23  C   UNL     1      -2.117  10.447  16.466  0.00  0.00    +0.000 A 
ATOM     24  C   UNL     1      -3.376  10.952  16.151  0.00  0.00    +0.000 A 
ATOM     25  C   UNL     1      -4.147  11.451  17.185  0.00  0.00    +0.000 A 
ATOM     26 CL   UNL     1      -5.627  12.259  16.869  0.00  0.00    +0.000 Cl
ATOM     27  N   UNL     1      -3.799  11.417  18.485  0.00  0.00    +0.000 NA
ATOM     28  C   UNL     1      -2.575  10.923  18.757  0.00  0.00    +0.000 A 
ENDBRANCH  21  22
ENDBRANCH   6  21
TORSDOF 6
ENDMDL
MODEL 5
REMARK VINA RESULT:      -7.1      4.889      6.873
REMARK  Name = 
REMARK  7 active torsions:
REMARK  status: ('A' for Active; 'I' for Inactive)
REMARK    1  A    between atoms: C_1  and  O_2
REMARK    2  A    between atoms: O_2  and  C_3
REMARK    3  A    between atoms: C_6  and  N_7
REMARK    4  A    between atoms: N_8  and  C_9
REMARK    5  A    between atoms: C_9  and  N_23
REMARK    6  A    between atoms: N_14  and  C_15
REMARK    7  A    between atoms: C_15  and  C_16
REMARK                            x       y       z     vdW  Elec       q    Type
REMARK                         _______ _______ _______ _____ _____    ______ ____
ROOT
ATOM      1  C   UNL     1       2.226   4.112  19.720  0.00  0.00    +0.000 C 
ATOM      2  C   UNL     1       3.075   3.234  19.098  0.00  0.00    +0.000 C 
ATOM      3  N   UNL     1       3.340   1.921  19.479  0.00  0.00    +0.000 N 
ATOM      4  C   UNL     1       4.107   1.168  18.502  0.00  0.00    +0.000 C 
ATOM      5  C   UNL     1       4.547   2.254  17.501  0.00  0.00    +0.000 C 
ATOM      6  N   UNL     1       3.870   3.503  17.964  0.00  0.00    +0.000 N 
ATOM      7  H   UNL     1       2.649   1.439  20.056  0.00  0.00    +0.000 HD
ENDROOT
BRANCH   1   8
ATOM      8  N   UNL     1       1.624   3.580  20.953  0.00  0.00    +0.000 N 
ATOM      9  O   UNL     1       0.501   3.061  20.848  0.00  0.00    +0.000 OA
ATOM     10  O   UNL     1       2.262   3.663  22.018  0.00  0.00    +0.000 OA
ENDBRANCH   1   8
BRANCH   1  12
ATOM     11  N   UNL     1       2.163   6.293  20.404  0.00  0.00    +0.000 NA
ATOM     12  N   UNL     1       2.084   5.467  19.463  0.00  0.00    +0.000 NA
BRANCH  11  16
ATOM     13  C   UNL     1       1.181  10.178  18.931  0.00  0.00    +0.000 A 
ATOM     14  C   UNL     1       0.878   9.800  20.239  0.00  0.00    +0.000 A 
ATOM     15  C   UNL     1       1.247   8.539  20.729  0.00  0.00    +0.000 A 
ATOM     16  C   UNL     1       1.893   7.604  19.913  0.00  0.00    +0.000 A 
ATOM     17  C   UNL     1       2.231   8.011  18.613  0.00  0.00    +0.000 A 
ATOM     18  C   UNL     1       1.875   9.282  18.120  0.00  0.00    +0.000 A 
BRANCH  13  20
ATOM     19  C   UNL     1      -0.130  12.104  19.491  0.00  0.00    +0.000 C 
ATOM     20  O   UNL     1       0.715  11.414  18.578  0.00  0.00    +0.000 OA
ENDBRANCH  13  20
ENDBRANCH  11  16
ENDBRANCH   1  12
BRANCH   6  21
ATOM     21  C   UNL     1       4.709   4.707  17.905  0.00  0.00    +0.000 C 
BRANCH  21  22
ATOM     22  C   UNL     1       5.390   4.892  16.577  0.00  0.00    +0.000 A 
ATOM     23  C   UNL     1       4.859   4.497  15.346  0.00  0.00    +0.000 A 
ATOM     24  C   UNL     1       5.644   4.588  14.200  0.00  0.00    +0.000 A 
ATOM     25  C   UNL     1       6.920   5.105  14.332  0.00  0.00    +0.000 A 
ATOM     26 CL   UNL     1       8.020   5.084  13.016  0.00  0.00    +0.000 Cl
ATOM     27  N   UNL     1       7.433   5.594  15.477  0.00  0.00    +0.000 NA
ATOM     28  C   UNL     1       6.649   5.490  16.568  0.00  0.00    +0.000 A 
ENDBRANCH  21  22
ENDBRANCH   6  21
TORSDOF 6
ENDMDL
MODEL 6
REMARK VINA RESULT:      -7.0      4.442      6.911
REMARK  Name = 
REMARK  7 active torsions:
REMARK  status: ('A' for Active; 'I' for Inactive)
REMARK    1  A    between atoms: C_1  and  O_2
REMARK    2  A    between atoms: O_2  and  C_3
REMARK    3  A    between atoms: C_6  and  N_7
REMARK    4  A    between atoms: N_8  and  C_9
REMARK    5  A    between atoms: C_9  and  N_23
REMARK    6  A    between atoms: N_14  and  C_15
REMARK    7  A    between atoms: C_15  and  C_16
REMARK                            x       y       z     vdW  Elec       q    Type
REMARK                         _______ _______ _______ _____ _____    ______ ____
ROOT
ATOM      1  C   UNL     1       1.581   4.204  20.439  0.00  0.00    +0.000 C 
ATOM      2  C   UNL     1       2.139   3.597  19.344  0.00  0.00    +0.000 C 
ATOM      3  N   UNL     1       2.789   2.366  19.316  0.00  0.00    +0.000 N 
ATOM      4  C   UNL     1       3.076   1.883  17.976  0.00  0.00    +0.000 C 
ATOM      5  C   UNL     1       2.749   3.104  17.093  0.00  0.00    +0.000 C 
ATOM      6  N   UNL     1       2.189   4.121  18.034  0.00  0.00    +0.000 N 
ATOM      7  H   UNL     1       2.583   1.696  20.058  0.00  0.00    +0.000 HD
ENDROOT
BRANCH   1   8
ATOM      8  N   UNL     1       1.791   3.466  21.695  0.00  0.00    +0.000 N 
ATOM      9  O   UNL     1       2.787   3.778  22.367  0.00  0.00    +0.000 OA
ATOM     10  O   UNL     1       0.970   2.590  22.022  0.00  0.00    +0.000 OA
ENDBRANCH   1   8
BRANCH   1  12
ATOM     11  N   UNL     1       1.876   6.450  20.741  0.00  0.00    +0.000 NA
ATOM     12  N   UNL     1       1.090   5.498  20.523  0.00  0.00    +0.000 NA
BRANCH  11  16
ATOM     13  C   UNL     1      -0.196  10.156  21.194  0.00  0.00    +0.000 A 
ATOM     14  C   UNL     1       0.677   9.939  20.128  0.00  0.00    +0.000 A 
ATOM     15  C   UNL     1       1.316   8.701  19.960  0.00  0.00    +0.000 A 
ATOM     16  C   UNL     1       1.134   7.660  20.877  0.00  0.00    +0.000 A 
ATOM     17  C   UNL     1       0.221   7.876  21.921  0.00  0.00    +0.000 A 
ATOM     18  C   UNL     1      -0.435   9.113  22.086  0.00  0.00    +0.000 A 
BRANCH  13  20
ATOM     19  C   UNL     1      -1.074  12.066  20.043  0.00  0.00    +0.000 C 
ATOM     20  O   UNL     1      -0.704  11.424  21.258  0.00  0.00    +0.000 OA
ENDBRANCH  13  20
ENDBRANCH  11  16
ENDBRANCH   1  12
BRANCH   6  21
ATOM     21  C   UNL     1       2.653   5.493  17.793  0.00  0.00    +0.000 C 
BRANCH  21  22
ATOM     22  C   UNL     1       4.130   5.668  18.011  0.00  0.00    +0.000 A 
ATOM     23  C   UNL     1       4.846   5.138  19.089  0.00  0.00    +0.000 A 
ATOM     24  C   UNL     1       6.182   5.488  19.262  0.00  0.00    +0.000 A 
ATOM     25  C   UNL     1       6.754   6.331  18.327  0.00  0.00    +0.000 A 
ATOM     26 CL   UNL     1       8.333   6.962  18.558  0.00  0.00    +0.000 Cl
ATOM     27  N   UNL     1       6.134   6.779  17.219  0.00  0.00    +0.000 NA
ATOM     28  C   UNL     1       4.841   6.424  17.081  0.00  0.00    +0.000 A 
ENDBRANCH  21  22
ENDBRANCH   6  21
TORSDOF 6
ENDMDL
MODEL 7
REMARK VINA RESULT:      -7.0      5.577      8.407
REMARK  Name = 
REMARK  7 active torsions:
REMARK  status: ('A' for Active; 'I' for Inactive)
REMARK    1  A    between atoms: C_1  and  O_2
REMARK    2  A    between atoms: O_2  and  C_3
REMARK    3  A    between atoms: C_6  and  N_7
REMARK    4  A    between atoms: N_8  and  C_9
REMARK    5  A    between atoms: C_9  and  N_23
REMARK    6  A    between atoms: N_14  and  C_15
REMARK    7  A    between atoms: C_15  and  C_16
REMARK                            x       y       z     vdW  Elec       q    Type
REMARK                         _______ _______ _______ _____ _____    ______ ____
ROOT
ATOM      1  C   UNL     1       0.947   9.373  21.330  0.00  0.00    +0.000 C 
ATOM      2  C   UNL     1       0.838  10.590  20.709  0.00  0.00    +0.000 C 
ATOM      3  N   UNL     1       0.594  11.817  21.320  0.00  0.00    +0.000 N 
ATOM      4  C   UNL     1       0.754  12.958  20.435  0.00  0.00    +0.000 C 
ATOM      5  C   UNL     1       0.898  12.299  19.049  0.00  0.00    +0.000 C 
ATOM      6  N   UNL     1       0.923  10.830  19.320  0.00  0.00    +0.000 N 
ATOM      7  H   UNL     1       0.819  11.914  22.311  0.00  0.00    +0.000 HD
ENDROOT
BRANCH   1   8
ATOM      8  N   UNL     1       0.693   9.423  22.778  0.00  0.00    +0.000 N 
ATOM      9  O   UNL     1       1.689   9.445  23.519  0.00  0.00    +0.000 OA
ATOM     10  O   UNL     1      -0.483   9.452  23.181  0.00  0.00    +0.000 OA
ENDBRANCH   1   8
BRANCH   1  12
ATOM     11  N   UNL     1       2.123   7.557  20.590  0.00  0.00    +0.000 NA
ATOM     12  N   UNL     1       1.014   8.126  20.726  0.00  0.00    +0.000 NA
BRANCH  11  16
ATOM     13  C   UNL     1       1.733   3.845  18.516  0.00  0.00    +0.000 A 
ATOM     14  C   UNL     1       1.294   3.990  19.832  0.00  0.00    +0.000 A 
ATOM     15  C   UNL     1       1.382   5.227  20.489  0.00  0.00    +0.000 A 
ATOM     16  C   UNL     1       1.950   6.342  19.864  0.00  0.00    +0.000 A 
ATOM     17  C   UNL     1       2.349   6.195  18.526  0.00  0.00    +0.000 A 
ATOM     18  C   UNL     1       2.250   4.959  17.857  0.00  0.00    +0.000 A 
BRANCH  13  20
ATOM     19  C   UNL     1       2.815   1.786  17.936  0.00  0.00    +0.000 C 
ATOM     20  O   UNL     1       1.632   2.574  18.024  0.00  0.00    +0.000 OA
ENDBRANCH  13  20
ENDBRANCH  11  16
ENDBRANCH   1  12
BRANCH   6  21
ATOM     21  C   UNL     1       0.146  10.023  18.371  0.00  0.00    +0.000 C 
BRANCH  21  22
ATOM     22  C   UNL     1      -1.230  10.570  18.113  0.00  0.00    +0.000 A 
ATOM     23  C   UNL     1      -1.982  11.305  19.033  0.00  0.00    +0.000 A 
ATOM     24  C   UNL     1      -3.301  11.635  18.733  0.00  0.00    +0.000 A 
ATOM     25  C   UNL     1      -3.801  11.239  17.506  0.00  0.00    +0.000 A 
ATOM     26 CL   UNL     1      -5.462  11.437  17.126  0.00  0.00    +0.000 Cl
ATOM     27  N   UNL     1      -3.082  10.623  16.549  0.00  0.00    +0.000 NA
ATOM     28  C   UNL     1      -1.809  10.317  16.870  0.00  0.00    +0.000 A 
ENDBRANCH  21  22
ENDBRANCH   6  21
TORSDOF 6
ENDMDL
MODEL 8
REMARK VINA RESULT:      -7.0      4.510      7.003
REMARK  Name = 
REMARK  7 active torsions:
REMARK  status: ('A' for Active; 'I' for Inactive)
REMARK    1  A    between atoms: C_1  and  O_2
REMARK    2  A    between atoms: O_2  and  C_3
REMARK    3  A    between atoms: C_6  and  N_7
REMARK    4  A    between atoms: N_8  and  C_9
REMARK    5  A    between atoms: C_9  and  N_23
REMARK    6  A    between atoms: N_14  and  C_15
REMARK    7  A    between atoms: C_15  and  C_16
REMARK                            x       y       z     vdW  Elec       q    Type
REMARK                         _______ _______ _______ _____ _____    ______ ____
ROOT
ATOM      1  C   UNL     1       1.585   4.253  20.451  0.00  0.00    +0.000 C 
ATOM      2  C   UNL     1       2.105   3.629  19.347  0.00  0.00    +0.000 C 
ATOM      3  N   UNL     1       2.718   2.379  19.309  0.00  0.00    +0.000 N 
ATOM      4  C   UNL     1       2.965   1.886  17.965  0.00  0.00    +0.000 C 
ATOM      5  C   UNL     1       2.657   3.114  17.086  0.00  0.00    +0.000 C 
ATOM      6  N   UNL     1       2.145   4.149  18.035  0.00  0.00    +0.000 N 
ATOM      7  H   UNL     1       2.506   1.717  20.056  0.00  0.00    +0.000 HD
ENDROOT
BRANCH   1   8
ATOM      8  N   UNL     1       1.797   3.512  21.704  0.00  0.00    +0.000 N 
ATOM      9  O   UNL     1       0.965   2.632  21.980  0.00  0.00    +0.000 OA
ATOM     10  O   UNL     1       2.785   3.789  22.407  0.00  0.00    +0.000 OA
ENDBRANCH   1   8
BRANCH   1  12
ATOM     11  N   UNL     1       1.954   6.493  20.720  0.00  0.00    +0.000 NA
ATOM     12  N   UNL     1       1.134   5.561  20.540  0.00  0.00    +0.000 NA
BRANCH  11  16
ATOM     13  C   UNL     1      -0.300  10.095  21.139  0.00  0.00    +0.000 A 
ATOM     14  C   UNL     1      -0.381   9.075  22.087  0.00  0.00    +0.000 A 
ATOM     15  C   UNL     1       0.400   7.915  21.966  0.00  0.00    +0.000 A 
ATOM     16  C   UNL     1       1.251   7.725  20.872  0.00  0.00    +0.000 A 
ATOM     17  C   UNL     1       1.356   8.777  19.949  0.00  0.00    +0.000 A 
ATOM     18  C   UNL     1       0.585   9.950  20.073  0.00  0.00    +0.000 A 
BRANCH  13  20
ATOM     19  C   UNL     1      -1.108  11.797  22.621  0.00  0.00    +0.000 C 
ATOM     20  O   UNL     1      -1.155  11.139  21.360  0.00  0.00    +0.000 OA
ENDBRANCH  13  20
ENDBRANCH  11  16
ENDBRANCH   1  12
BRANCH   6  21
ATOM     21  C   UNL     1       2.645   5.506  17.782  0.00  0.00    +0.000 C 
BRANCH  21  22
ATOM     22  C   UNL     1       4.124   5.648  18.011  0.00  0.00    +0.000 A 
ATOM     23  C   UNL     1       4.820   5.094  19.090  0.00  0.00    +0.000 A 
ATOM     24  C   UNL     1       6.163   5.415  19.275  0.00  0.00    +0.000 A 
ATOM     25  C   UNL     1       6.759   6.252  18.351  0.00  0.00    +0.000 A 
ATOM     26 CL   UNL     1       8.349   6.848  18.598  0.00  0.00    +0.000 Cl
ATOM     27  N   UNL     1       6.156   6.723  17.243  0.00  0.00    +0.000 NA
ATOM     28  C   UNL     1       4.857   6.396  17.092  0.00  0.00    +0.000 A 
ENDBRANCH  21  22
ENDBRANCH   6  21
TORSDOF 6
ENDMDL
MODEL 9
REMARK VINA RESULT:      -6.9      5.302      7.987
REMARK  Name = 
REMARK  7 active torsions:
REMARK  status: ('A' for Active; 'I' for Inactive)
REMARK    1  A    between atoms: C_1  and  O_2
REMARK    2  A    between atoms: O_2  and  C_3
REMARK    3  A    between atoms: C_6  and  N_7
REMARK    4  A    between atoms: N_8  and  C_9
REMARK    5  A    between atoms: C_9  and  N_23
REMARK    6  A    between atoms: N_14  and  C_15
REMARK    7  A    between atoms: C_15  and  C_16
REMARK                            x       y       z     vdW  Elec       q    Type
REMARK                         _______ _______ _______ _____ _____    ______ ____
ROOT
ATOM      1  C   UNL     1       0.750   9.656  21.423  0.00  0.00    +0.000 C 
ATOM      2  C   UNL     1       0.691  10.987  21.101  0.00  0.00    +0.000 C 
ATOM      3  N   UNL     1       0.064  11.994  21.832  0.00  0.00    +0.000 N 
ATOM      4  C   UNL     1       0.361  13.335  21.359  0.00  0.00    +0.000 C 
ATOM      5  C   UNL     1       1.087  13.077  20.024  0.00  0.00    +0.000 C 
ATOM      6  N   UNL     1       1.231  11.592  19.945  0.00  0.00    +0.000 N 
ATOM      7  H   UNL     1      -0.097  11.835  22.827  0.00  0.00    +0.000 HD
ENDROOT
BRANCH   1   8
ATOM      8  N   UNL     1      -0.010   9.307  22.633  0.00  0.00    +0.000 N 
ATOM      9  O   UNL     1      -1.013   8.593  22.476  0.00  0.00    +0.000 OA
ATOM     10  O   UNL     1       0.388   9.726  23.735  0.00  0.00    +0.000 OA
ENDBRANCH   1   8
BRANCH   1  12
ATOM     11  N   UNL     1       1.520   7.521  21.147  0.00  0.00    +0.000 NA
ATOM     12  N   UNL     1       1.212   8.620  20.626  0.00  0.00    +0.000 NA
BRANCH  11  16
ATOM     13  C   UNL     1       2.991   4.977  18.050  0.00  0.00    +0.000 A 
ATOM     14  C   UNL     1       3.169   6.360  17.999  0.00  0.00    +0.000 A 
ATOM     15  C   UNL     1       2.725   7.183  19.044  0.00  0.00    +0.000 A 
ATOM     16  C   UNL     1       2.053   6.652  20.150  0.00  0.00    +0.000 A 
ATOM     17  C   UNL     1       1.917   5.256  20.211  0.00  0.00    +0.000 A 
ATOM     18  C   UNL     1       2.375   4.423  19.170  0.00  0.00    +0.000 A 
BRANCH  13  20
ATOM     19  C   UNL     1       4.761   4.536  16.495  0.00  0.00    +0.000 C 
ATOM     20  O   UNL     1       3.428   4.311  16.939  0.00  0.00    +0.000 OA
ENDBRANCH  13  20
ENDBRANCH  11  16
ENDBRANCH   1  12
BRANCH   6  21
ATOM     21  C   UNL     1       0.974  11.027  18.614  0.00  0.00    +0.000 C 
BRANCH  21  22
ATOM     22  C   UNL     1      -0.489  10.898  18.295  0.00  0.00    +0.000 A 
ATOM     23  C   UNL     1      -1.106   9.732  17.833  0.00  0.00    +0.000 A 
ATOM     24  C   UNL     1      -2.439   9.774  17.433  0.00  0.00    +0.000 A 
ATOM     25  C   UNL     1      -3.107  10.979  17.543  0.00  0.00    +0.000 A 
ATOM     26 CL   UNL     1      -4.688  11.172  16.905  0.00  0.00    +0.000 Cl
ATOM     27  N   UNL     1      -2.584  12.099  18.078  0.00  0.00    +0.000 NA
ATOM     28  C   UNL     1      -1.292  12.026  18.455  0.00  0.00    +0.000 A 
ENDBRANCH  21  22
ENDBRANCH   6  21
TORSDOF 6
ENDMDL
