MODEL 1
REMARK VINA RESULT:      -7.6      0.000      0.000
REMARK  Name = 
REMARK  3 active torsions:
REMARK  status: ('A' for Active; 'I' for Inactive)
REMARK    1  A    between atoms: C_1  and  N_2
REMARK    2  A    between atoms: C_6  and  C_8
REMARK    3  A    between atoms: C_11  and  O_12
REMARK                            x       y       z     vdW  Elec       q    Type
REMARK                         _______ _______ _______ _____ _____    ______ ____
ROOT
ATOM      1  C   UNL     1       5.918   4.837  16.409  0.00  0.00    +0.000 A 
ATOM      2  C   UNL     1       7.058   5.294  15.767  0.00  0.00    +0.000 A 
ATOM      3  C   UNL     1       7.006   4.888  14.406  0.00  0.00    +0.000 A 
ATOM      4  C   UNL     1       7.788   5.139  13.261  0.00  0.00    +0.000 A 
ATOM      5  C   UNL     1       7.456   4.548  12.043  0.00  0.00    +0.000 A 
ATOM      6  C   UNL     1       6.355   3.699  11.955  0.00  0.00    +0.000 A 
ATOM      7  C   UNL     1       5.553   3.433  13.072  0.00  0.00    +0.000 A 
ATOM      8  C   UNL     1       5.896   4.053  14.279  0.00  0.00    +0.000 A 
ATOM      9  N   UNL     1       5.290   3.997  15.513  0.00  0.00    +0.000 N 
ATOM     10  H   UNL     1       4.463   3.459  15.736  0.00  0.00    +0.000 HD
ENDROOT
BRANCH   1  16
ATOM     11  C   UNL     1       0.581   2.462  19.108  0.00  0.00    +0.000 C 
ATOM     12  N   UNL     1       2.013   2.750  19.087  0.00  0.00    +0.000 NA
ATOM     13  C   UNL     1       2.287   4.116  19.584  0.00  0.00    +0.000 C 
ATOM     14  C   UNL     1       3.785   4.489  19.516  0.00  0.00    +0.000 C 
ATOM     15  N   UNL     1       4.347   4.233  18.187  0.00  0.00    +0.000 N 
ATOM     16  C   UNL     1       5.404   5.032  17.753  0.00  0.00    +0.000 C 
ATOM     17  O   UNL     1       5.902   5.886  18.482  0.00  0.00    +0.000 OA
ATOM     18  C   UNL     1       4.067   2.876  17.706  0.00  0.00    +0.000 C 
ATOM     19  C   UNL     1       2.556   2.596  17.724  0.00  0.00    +0.000 C 
ENDBRANCH   1  16
BRANCH   4  20
ATOM     20  O   UNL     1       8.877   5.980  13.278  0.00  0.00    +0.000 OA
ATOM     21  H   UNL     1       8.788   6.547  14.059  0.00  0.00    +0.000 HD
ENDBRANCH   4  20
TORSDOF 2
ENDMDL
MODEL 2
REMARK VINA RESULT:      -7.5      1.057      1.062
REMARK  Name = 
REMARK  3 active torsions:
REMARK  status: ('A' for Active; 'I' for Inactive)
REMARK    1  A    between atoms: C_1  and  N_2
REMARK    2  A    between atoms: C_6  and  C_8
REMARK    3  A    between atoms: C_11  and  O_12
REMARK                            x       y       z     vdW  Elec       q    Type
REMARK                         _______ _______ _______ _____ _____    ______ ____
ROOT
ATOM      1  C   UNL     1       5.423   5.517  16.206  0.00  0.00    +0.000 A 
ATOM      2  C   UNL     1       6.660   5.758  15.631  0.00  0.00    +0.000 A 
ATOM      3  C   UNL     1       6.722   5.074  14.386  0.00  0.00    +0.000 A 
ATOM      4  C   UNL     1       7.643   5.028  13.320  0.00  0.00    +0.000 A 
ATOM      5  C   UNL     1       7.396   4.212  12.218  0.00  0.00    +0.000 A 
ATOM      6  C   UNL     1       6.244   3.429  12.170  0.00  0.00    +0.000 A 
ATOM      7  C   UNL     1       5.307   3.456  13.210  0.00  0.00    +0.000 A 
ATOM      8  C   UNL     1       5.567   4.299  14.297  0.00  0.00    +0.000 A 
ATOM      9  N   UNL     1       4.828   4.544  15.432  0.00  0.00    +0.000 N 
ATOM     10  H   UNL     1       3.940   4.115  15.656  0.00  0.00    +0.000 HD
ENDROOT
BRANCH   1  16
ATOM     11  C   UNL     1       1.901   2.376  20.580  0.00  0.00    +0.000 C 
ATOM     12  N   UNL     1       2.974   3.281  20.179  0.00  0.00    +0.000 NA
ATOM     13  C   UNL     1       2.465   4.657  19.986  0.00  0.00    +0.000 C 
ATOM     14  C   UNL     1       3.554   5.636  19.495  0.00  0.00    +0.000 C 
ATOM     15  N   UNL     1       4.264   5.113  18.325  0.00  0.00    +0.000 N 
ATOM     16  C   UNL     1       4.785   6.025  17.407  0.00  0.00    +0.000 C 
ATOM     17  O   UNL     1       4.713   7.237  17.599  0.00  0.00    +0.000 OA
ATOM     18  C   UNL     1       4.763   3.748  18.528  0.00  0.00    +0.000 C 
ATOM     19  C   UNL     1       3.617   2.809  18.937  0.00  0.00    +0.000 C 
ENDBRANCH   1  16
BRANCH   4  20
ATOM     20  O   UNL     1       8.790   5.787  13.298  0.00  0.00    +0.000 OA
ATOM     21  H   UNL     1       8.556   6.668  13.630  0.00  0.00    +0.000 HD
ENDBRANCH   4  20
TORSDOF 2
ENDMDL
MODEL 3
REMARK VINA RESULT:      -7.4      3.766      7.270
REMARK  Name = 
REMARK  3 active torsions:
REMARK  status: ('A' for Active; 'I' for Inactive)
REMARK    1  A    between atoms: C_1  and  N_2
REMARK    2  A    between atoms: C_6  and  C_8
REMARK    3  A    between atoms: C_11  and  O_12
REMARK                            x       y       z     vdW  Elec       q    Type
REMARK                         _______ _______ _______ _____ _____    ______ ____
ROOT
ATOM      1  C   UNL     1       2.830   6.405  19.138  0.00  0.00    +0.000 A 
ATOM      2  C   UNL     1       2.450   7.422  18.277  0.00  0.00    +0.000 A 
ATOM      3  C   UNL     1       1.819   8.446  19.035  0.00  0.00    +0.000 A 
ATOM      4  C   UNL     1       1.338   9.741  18.755  0.00  0.00    +0.000 A 
ATOM      5  C   UNL     1       0.739  10.497  19.759  0.00  0.00    +0.000 A 
ATOM      6  C   UNL     1       0.603   9.973  21.043  0.00  0.00    +0.000 A 
ATOM      7  C   UNL     1       1.075   8.693  21.357  0.00  0.00    +0.000 A 
ATOM      8  C   UNL     1       1.691   7.960  20.336  0.00  0.00    +0.000 A 
ATOM      9  N   UNL     1       2.260   6.707  20.356  0.00  0.00    +0.000 N 
ATOM     10  H   UNL     1       2.308   6.099  21.163  0.00  0.00    +0.000 HD
ENDROOT
BRANCH   1  16
ATOM     11  C   UNL     1       6.751   4.786  14.300  0.00  0.00    +0.000 C 
ATOM     12  N   UNL     1       6.418   4.926  15.714  0.00  0.00    +0.000 NA
ATOM     13  C   UNL     1       5.677   3.744  16.206  0.00  0.00    +0.000 C 
ATOM     14  C   UNL     1       5.243   3.879  17.683  0.00  0.00    +0.000 C 
ATOM     15  N   UNL     1       4.545   5.143  17.928  0.00  0.00    +0.000 N 
ATOM     16  C   UNL     1       3.582   5.179  18.936  0.00  0.00    +0.000 C 
ATOM     17  O   UNL     1       3.365   4.202  19.649  0.00  0.00    +0.000 OA
ATOM     18  C   UNL     1       5.290   6.307  17.436  0.00  0.00    +0.000 C 
ATOM     19  C   UNL     1       5.620   6.146  15.944  0.00  0.00    +0.000 C 
ENDBRANCH   1  16
BRANCH   4  20
ATOM     20  O   UNL     1       1.457  10.321  17.513  0.00  0.00    +0.000 OA
ATOM     21  H   UNL     1       2.398  10.504  17.371  0.00  0.00    +0.000 HD
ENDBRANCH   4  20
TORSDOF 2
ENDMDL
MODEL 4
REMARK VINA RESULT:      -7.4      5.164      7.416
REMARK  Name = 
REMARK  3 active torsions:
REMARK  status: ('A' for Active; 'I' for Inactive)
REMARK    1  A    between atoms: C_1  and  N_2
REMARK    2  A    between atoms: C_6  and  C_8
REMARK    3  A    between atoms: C_11  and  O_12
REMARK                            x       y       z     vdW  Elec       q    Type
REMARK                         _______ _______ _______ _____ _____    ______ ____
ROOT
ATOM      1  C   UNL     1       2.379   6.817  19.646  0.00  0.00    +0.000 A 
ATOM      2  C   UNL     1       3.494   6.092  19.258  0.00  0.00    +0.000 A 
ATOM      3  C   UNL     1       3.412   4.793  19.830  0.00  0.00    +0.000 A 
ATOM      4  C   UNL     1       4.159   3.604  19.713  0.00  0.00    +0.000 A 
ATOM      5  C   UNL     1       3.804   2.479  20.454  0.00  0.00    +0.000 A 
ATOM      6  C   UNL     1       2.714   2.527  21.321  0.00  0.00    +0.000 A 
ATOM      7  C   UNL     1       1.947   3.691  21.457  0.00  0.00    +0.000 A 
ATOM      8  C   UNL     1       2.312   4.802  20.687  0.00  0.00    +0.000 A 
ATOM      9  N   UNL     1       1.741   6.051  20.598  0.00  0.00    +0.000 N 
ATOM     10  H   UNL     1       0.928   6.361  21.115  0.00  0.00    +0.000 HD
ENDROOT
BRANCH   1  16
ATOM     11  C   UNL     1      -1.195  10.904  23.099  0.00  0.00    +0.000 C 
ATOM     12  N   UNL     1      -0.047  10.564  22.265  0.00  0.00    +0.000 NA
ATOM     13  C   UNL     1      -0.388  10.655  20.828  0.00  0.00    +0.000 C 
ATOM     14  C   UNL     1       0.780  10.238  19.907  0.00  0.00    +0.000 C 
ATOM     15  N   UNL     1       1.332   8.935  20.289  0.00  0.00    +0.000 N 
ATOM     16  C   UNL     1       1.898   8.141  19.292  0.00  0.00    +0.000 C 
ATOM     17  O   UNL     1       1.996   8.540  18.135  0.00  0.00    +0.000 OA
ATOM     18  C   UNL     1       1.665   8.857  21.716  0.00  0.00    +0.000 C 
ATOM     19  C   UNL     1       0.441   9.206  22.576  0.00  0.00    +0.000 C 
ENDBRANCH   1  16
BRANCH   4  20
ATOM     20  O   UNL     1       5.234   3.486  18.863  0.00  0.00    +0.000 OA
ATOM     21  H   UNL     1       4.926   3.728  17.977  0.00  0.00    +0.000 HD
ENDBRANCH   4  20
TORSDOF 2
ENDMDL
MODEL 5
REMARK VINA RESULT:      -7.3      1.551      1.959
REMARK  Name = 
REMARK  3 active torsions:
REMARK  status: ('A' for Active; 'I' for Inactive)
REMARK    1  A    between atoms: C_1  and  N_2
REMARK    2  A    between atoms: C_6  and  C_8
REMARK    3  A    between atoms: C_11  and  O_12
REMARK                            x       y       z     vdW  Elec       q    Type
REMARK                         _______ _______ _______ _____ _____    ______ ____
ROOT
ATOM      1  C   UNL     1       6.379   4.388  16.142  0.00  0.00    +0.000 A 
ATOM      2  C   UNL     1       5.791   3.634  15.140  0.00  0.00    +0.000 A 
ATOM      3  C   UNL     1       6.394   3.978  13.900  0.00  0.00    +0.000 A 
ATOM      4  C   UNL     1       6.308   3.489  12.580  0.00  0.00    +0.000 A 
ATOM      5  C   UNL     1       7.048   4.088  11.563  0.00  0.00    +0.000 A 
ATOM      6  C   UNL     1       7.868   5.179  11.843  0.00  0.00    +0.000 A 
ATOM      7  C   UNL     1       7.980   5.686  13.144  0.00  0.00    +0.000 A 
ATOM      8  C   UNL     1       7.242   5.056  14.152  0.00  0.00    +0.000 A 
ATOM      9  N   UNL     1       7.172   5.316  15.502  0.00  0.00    +0.000 N 
ATOM     10  H   UNL     1       7.672   6.053  15.982  0.00  0.00    +0.000 HD
ENDROOT
BRANCH   1  16
ATOM     11  C   UNL     1       1.027   3.865  19.676  0.00  0.00    +0.000 C 
ATOM     12  N   UNL     1       2.399   3.504  19.329  0.00  0.00    +0.000 NA
ATOM     13  C   UNL     1       3.369   4.413  19.979  0.00  0.00    +0.000 C 
ATOM     14  C   UNL     1       4.832   4.109  19.585  0.00  0.00    +0.000 C 
ATOM     15  N   UNL     1       4.996   4.032  18.131  0.00  0.00    +0.000 N 
ATOM     16  C   UNL     1       6.229   4.388  17.586  0.00  0.00    +0.000 C 
ATOM     17  O   UNL     1       7.179   4.696  18.302  0.00  0.00    +0.000 OA
ATOM     18  C   UNL     1       4.027   3.129  17.498  0.00  0.00    +0.000 C 
ATOM     19  C   UNL     1       2.591   3.533  17.866  0.00  0.00    +0.000 C 
ENDBRANCH   1  16
BRANCH   4  20
ATOM     20  O   UNL     1       5.531   2.406  12.242  0.00  0.00    +0.000 OA
ATOM     21  H   UNL     1       4.775   2.395  12.848  0.00  0.00    +0.000 HD
ENDBRANCH   4  20
TORSDOF 2
ENDMDL
MODEL 6
REMARK VINA RESULT:      -7.2      3.357      4.292
REMARK  Name = 
REMARK  3 active torsions:
REMARK  status: ('A' for Active; 'I' for Inactive)
REMARK    1  A    between atoms: C_1  and  N_2
REMARK    2  A    between atoms: C_6  and  C_8
REMARK    3  A    between atoms: C_11  and  O_12
REMARK                            x       y       z     vdW  Elec       q    Type
REMARK                         _______ _______ _______ _____ _____    ______ ____
ROOT
ATOM      1  C   UNL     1       4.061   5.510  18.503  0.00  0.00    +0.000 A 
ATOM      2  C   UNL     1       5.297   6.060  18.206  0.00  0.00    +0.000 A 
ATOM      3  C   UNL     1       5.770   5.486  16.995  0.00  0.00    +0.000 A 
ATOM      4  C   UNL     1       6.873   5.716  16.148  0.00  0.00    +0.000 A 
ATOM      5  C   UNL     1       7.056   4.935  15.009  0.00  0.00    +0.000 A 
ATOM      6  C   UNL     1       6.154   3.915  14.709  0.00  0.00    +0.000 A 
ATOM      7  C   UNL     1       5.045   3.664  15.525  0.00  0.00    +0.000 A 
ATOM      8  C   UNL     1       4.873   4.476  16.653  0.00  0.00    +0.000 A 
ATOM      9  N   UNL     1       3.882   4.476  17.608  0.00  0.00    +0.000 N 
ATOM     10  H   UNL     1       3.093   3.844  17.633  0.00  0.00    +0.000 HD
ENDROOT
BRANCH   1  16
ATOM     11  C   UNL     1       0.850  10.945  19.745  0.00  0.00    +0.000 C 
ATOM     12  N   UNL     1       0.934   9.505  19.525  0.00  0.00    +0.000 NA
ATOM     13  C   UNL     1       1.266   8.794  20.780  0.00  0.00    +0.000 C 
ATOM     14  C   UNL     1       1.432   7.271  20.580  0.00  0.00    +0.000 C 
ATOM     15  N   UNL     1       2.354   6.966  19.482  0.00  0.00    +0.000 N 
ATOM     16  C   UNL     1       3.090   5.784  19.547  0.00  0.00    +0.000 C 
ATOM     17  O   UNL     1       2.929   4.980  20.462  0.00  0.00    +0.000 OA
ATOM     18  C   UNL     1       2.015   7.678  18.245  0.00  0.00    +0.000 C 
ATOM     19  C   UNL     1       1.943   9.193  18.494  0.00  0.00    +0.000 C 
ENDBRANCH   1  16
BRANCH   4  20
ATOM     20  O   UNL     1       7.789   6.716  16.380  0.00  0.00    +0.000 OA
ATOM     21  H   UNL     1       7.355   7.378  16.941  0.00  0.00    +0.000 HD
ENDBRANCH   4  20
TORSDOF 2
ENDMDL
MODEL 7
REMARK VINA RESULT:      -7.2      4.414      7.370
REMARK  Name = 
REMARK  3 active torsions:
REMARK  status: ('A' for Active; 'I' for Inactive)
REMARK    1  A    between atoms: C_1  and  N_2
REMARK    2  A    between atoms: C_6  and  C_8
REMARK    3  A    between atoms: C_11  and  O_12
REMARK                            x       y       z     vdW  Elec       q    Type
REMARK                         _______ _______ _______ _____ _____    ______ ____
ROOT
ATOM      1  C   UNL     1       2.563   7.801  18.387  0.00  0.00    +0.000 A 
ATOM      2  C   UNL     1       1.750   8.821  17.921  0.00  0.00    +0.000 A 
ATOM      3  C   UNL     1       1.048   9.381  19.023  0.00  0.00    +0.000 A 
ATOM      4  C   UNL     1       0.191  10.486  19.201  0.00  0.00    +0.000 A 
ATOM      5  C   UNL     1      -0.358  10.751  20.454  0.00  0.00    +0.000 A 
ATOM      6  C   UNL     1      -0.069   9.919  21.534  0.00  0.00    +0.000 A 
ATOM      7  C   UNL     1       0.783   8.817  21.393  0.00  0.00    +0.000 A 
ATOM      8  C   UNL     1       1.337   8.583  20.129  0.00  0.00    +0.000 A 
ATOM      9  N   UNL     1       2.209   7.607  19.705  0.00  0.00    +0.000 N 
ATOM     10  H   UNL     1       2.590   6.870  20.285  0.00  0.00    +0.000 HD
ENDROOT
BRANCH   1  16
ATOM     11  C   UNL     1       3.259   1.409  18.624  0.00  0.00    +0.000 C 
ATOM     12  N   UNL     1       3.161   2.682  17.917  0.00  0.00    +0.000 NA
ATOM     13  C   UNL     1       4.479   3.350  17.840  0.00  0.00    +0.000 C 
ATOM     14  C   UNL     1       4.411   4.735  17.158  0.00  0.00    +0.000 C 
ATOM     15  N   UNL     1       3.369   5.578  17.750  0.00  0.00    +0.000 N 
ATOM     16  C   UNL     1       3.552   6.960  17.736  0.00  0.00    +0.000 C 
ATOM     17  O   UNL     1       4.526   7.471  17.188  0.00  0.00    +0.000 OA
ATOM     18  C   UNL     1       2.067   4.904  17.821  0.00  0.00    +0.000 C 
ATOM     19  C   UNL     1       2.189   3.573  18.579  0.00  0.00    +0.000 C 
ENDBRANCH   1  16
BRANCH   4  20
ATOM     20  O   UNL     1      -0.119  11.354  18.180  0.00  0.00    +0.000 OA
ATOM     21  H   UNL     1      -0.997  11.718  18.370  0.00  0.00    +0.000 HD
ENDBRANCH   4  20
TORSDOF 2
ENDMDL
MODEL 8
REMARK VINA RESULT:      -7.2      5.262      7.669
REMARK  Name = 
REMARK  3 active torsions:
REMARK  status: ('A' for Active; 'I' for Inactive)
REMARK    1  A    between atoms: C_1  and  N_2
REMARK    2  A    between atoms: C_6  and  C_8
REMARK    3  A    between atoms: C_11  and  O_12
REMARK                            x       y       z     vdW  Elec       q    Type
REMARK                         _______ _______ _______ _____ _____    ______ ____
ROOT
ATOM      1  C   UNL     1       2.255   6.603  18.869  0.00  0.00    +0.000 A 
ATOM      2  C   UNL     1       1.854   5.429  18.254  0.00  0.00    +0.000 A 
ATOM      3  C   UNL     1       1.800   4.400  19.232  0.00  0.00    +0.000 A 
ATOM      4  C   UNL     1       1.365   3.059  19.245  0.00  0.00    +0.000 A 
ATOM      5  C   UNL     1       1.472   2.299  20.408  0.00  0.00    +0.000 A 
ATOM      6  C   UNL     1       2.020   2.858  21.561  0.00  0.00    +0.000 A 
ATOM      7  C   UNL     1       2.456   4.189  21.584  0.00  0.00    +0.000 A 
ATOM      8  C   UNL     1       2.320   4.937  20.409  0.00  0.00    +0.000 A 
ATOM      9  N   UNL     1       2.637   6.250  20.146  0.00  0.00    +0.000 N 
ATOM     10  H   UNL     1       3.045   6.898  20.808  0.00  0.00    +0.000 HD
ENDROOT
BRANCH   1  16
ATOM     11  C   UNL     1      -1.406  11.742  20.131  0.00  0.00    +0.000 C 
ATOM     12  N   UNL     1      -0.123  11.055  20.012  0.00  0.00    +0.000 NA
ATOM     13  C   UNL     1       0.375  11.096  18.620  0.00  0.00    +0.000 C 
ATOM     14  C   UNL     1       1.699  10.321  18.434  0.00  0.00    +0.000 C 
ATOM     15  N   UNL     1       1.613   8.964  18.977  0.00  0.00    +0.000 N 
ATOM     16  C   UNL     1       2.390   7.967  18.389  0.00  0.00    +0.000 C 
ATOM     17  O   UNL     1       3.178   8.223  17.482  0.00  0.00    +0.000 OA
ATOM     18  C   UNL     1       1.116   8.936  20.358  0.00  0.00    +0.000 C 
ATOM     19  C   UNL     1      -0.239   9.653  20.459  0.00  0.00    +0.000 C 
ENDBRANCH   1  16
BRANCH   4  20
ATOM     20  O   UNL     1       0.800   2.454  18.146  0.00  0.00    +0.000 OA
ATOM     21  H   UNL     1       1.176   1.562  18.085  0.00  0.00    +0.000 HD
ENDBRANCH   4  20
TORSDOF 2
ENDMDL
MODEL 9
REMARK VINA RESULT:      -7.1      4.461      6.352
REMARK  Name = 
REMARK  3 active torsions:
REMARK  status: ('A' for Active; 'I' for Inactive)
REMARK    1  A    between atoms: C_1  and  N_2
REMARK    2  A    between atoms: C_6  and  C_8
REMARK    3  A    between atoms: C_11  and  O_12
REMARK                            x       y       z     vdW  Elec       q    Type
REMARK                         _______ _______ _______ _____ _____    ______ ____
ROOT
ATOM      1  C   UNL     1       2.579   6.578  18.354  0.00  0.00    +0.000 A 
ATOM      2  C   UNL     1       3.724   5.894  18.730  0.00  0.00    +0.000 A 
ATOM      3  C   UNL     1       3.480   4.499  18.605  0.00  0.00    +0.000 A 
ATOM      4  C   UNL     1       4.267   3.336  18.725  0.00  0.00    +0.000 A 
ATOM      5  C   UNL     1       3.690   2.080  18.550  0.00  0.00    +0.000 A 
ATOM      6  C   UNL     1       2.330   1.968  18.267  0.00  0.00    +0.000 A 
ATOM      7  C   UNL     1       1.521   3.103  18.136  0.00  0.00    +0.000 A 
ATOM      8  C   UNL     1       2.128   4.355  18.297  0.00  0.00    +0.000 A 
ATOM      9  N   UNL     1       1.598   5.621  18.205  0.00  0.00    +0.000 N 
ATOM     10  H   UNL     1       0.631   5.838  18.002  0.00  0.00    +0.000 HD
ENDROOT
BRANCH   1  16
ATOM     11  C   UNL     1      -0.939  10.450  22.100  0.00  0.00    +0.000 C 
ATOM     12  N   UNL     1       0.261  10.112  21.341  0.00  0.00    +0.000 NA
ATOM     13  C   UNL     1       0.111  10.483  19.917  0.00  0.00    +0.000 C 
ATOM     14  C   UNL     1       1.332  10.081  19.060  0.00  0.00    +0.000 C 
ATOM     15  N   UNL     1       1.692   8.674  19.256  0.00  0.00    +0.000 N 
ATOM     16  C   UNL     1       2.289   7.992  18.197  0.00  0.00    +0.000 C 
ATOM     17  O   UNL     1       2.570   8.563  17.146  0.00  0.00    +0.000 OA
ATOM     18  C   UNL     1       1.836   8.319  20.673  0.00  0.00    +0.000 C 
ATOM     19  C   UNL     1       0.560   8.671  21.452  0.00  0.00    +0.000 C 
ENDBRANCH   1  16
BRANCH   4  20
ATOM     20  O   UNL     1       5.617   3.379  18.986  0.00  0.00    +0.000 OA
ATOM     21  H   UNL     1       5.762   4.089  19.630  0.00  0.00    +0.000 HD
ENDBRANCH   4  20
TORSDOF 2
ENDMDL
