MODEL 1
REMARK VINA RESULT:      -6.8      0.000      0.000
REMARK  Name = 
REMARK  11 active torsions:
REMARK  status: ('A' for Active; 'I' for Inactive)
REMARK    1  A    between atoms: C_1  and  C_2
REMARK    2  A    between atoms: C_2  and  C_3
REMARK    3  A    between atoms: C_4  and  C_5
REMARK    4  A    between atoms: C_7  and  C_8
REMARK    5  A    between atoms: C_14  and  C_15
REMARK    6  A    between atoms: N_17  and  C_18
REMARK    7  A    between atoms: C_18  and  C_19
REMARK    8  A    between atoms: C_19  and  C_20
REMARK    9  A    between atoms: C_20  and  N_21
REMARK   10  A    between atoms: C_22  and  C_24
REMARK   11  A    between atoms: C_24  and  S_25
REMARK                            x       y       z     vdW  Elec       q    Type
REMARK                         _______ _______ _______ _____ _____    ______ ____
ROOT
ATOM      1  C   UNL     1       5.841   4.274  17.307  0.00  0.00    +0.000 A 
ATOM      2  S   UNL     1       4.294   3.530  17.362  0.00  0.00    +0.000 S 
ATOM      3  C   UNL     1       4.098   4.022  18.997  0.00  0.00    +0.000 A 
ATOM      4  N   UNL     1       5.108   4.705  19.504  0.00  0.00    +0.000 NA
ATOM      5  C   UNL     1       6.109   4.875  18.534  0.00  0.00    +0.000 A 
ENDROOT
BRANCH   3   6
ATOM      6  C   UNL     1       2.887   3.719  19.726  0.00  0.00    +0.000 A 
ATOM      7  N   UNL     1       1.718   4.279  19.469  0.00  0.00    +0.000 NA
ATOM      8  C   UNL     1       0.760   3.800  20.342  0.00  0.00    +0.000 A 
ATOM      9  C   UNL     1       1.209   2.894  21.276  0.00  0.00    +0.000 A 
ATOM     10  S   UNL     1       2.880   2.600  21.039  0.00  0.00    +0.000 S 
ENDBRANCH   3   6
BRANCH   1  14
ATOM     11  C   UNL     1       7.163   4.909  13.809  0.00  0.00    +0.000 C 
ATOM     12  C   UNL     1       6.402   5.109  15.091  0.00  0.00    +0.000 C 
ATOM     13  C   UNL     1       5.394   6.225  15.114  0.00  0.00    +0.000 C 
ATOM     14  C   UNL     1       6.616   4.260  16.117  0.00  0.00    +0.000 C 
ENDBRANCH   1  14
BRANCH   5  15
ATOM     15  C   UNL     1       7.325   5.647  18.826  0.00  0.00    +0.000 C 
ATOM     16  O   UNL     1       8.241   5.234  19.534  0.00  0.00    +0.000 OA
ATOM     17  N   UNL     1       7.368   6.882  18.219  0.00  0.00    +0.000 N 
ATOM     18  H   UNL     1       6.557   7.150  17.669  0.00  0.00    +0.000 HD
BRANCH  17  19
ATOM     19  C   UNL     1       8.486   7.787  18.394  0.00  0.00    +0.000 C 
BRANCH  19  20
ATOM     20  C   UNL     1       8.164   9.230  17.994  0.00  0.00    +0.000 C 
BRANCH  20  21
ATOM     21  C   UNL     1       9.069  10.228  18.708  0.00  0.00    +0.000 C 
BRANCH  21  22
ATOM     22  N   UNL     1       8.938  11.569  18.179  0.00  0.00    +0.000 N 
ATOM     23  C   UNL     1       9.936  12.513  18.308  0.00  0.00    +0.000 C 
ATOM     24  O   UNL     1      10.997  12.296  18.887  0.00  0.00    +0.000 OA
ATOM     25  H   UNL     1       8.173  11.770  17.545  0.00  0.00    +0.000 HD
BRANCH  23  26
ATOM     26  C   UNL     1       9.594  13.875  17.731  0.00  0.00    +0.000 C 
BRANCH  26  27
ATOM     27  S   UNL     1      11.102  14.824  17.377  0.00  0.00    +0.000 S 
ATOM     28  H   UNL     1      11.914  13.762  17.255  0.00  0.00    +0.000 HD
ENDBRANCH  26  27
ENDBRANCH  23  26
ENDBRANCH  21  22
ENDBRANCH  20  21
ENDBRANCH  19  20
ENDBRANCH  17  19
ENDBRANCH   5  15
TORSDOF 9
ENDMDL
MODEL 2
REMARK VINA RESULT:      -6.8      4.809      7.200
REMARK  Name = 
REMARK  11 active torsions:
REMARK  status: ('A' for Active; 'I' for Inactive)
REMARK    1  A    between atoms: C_1  and  C_2
REMARK    2  A    between atoms: C_2  and  C_3
REMARK    3  A    between atoms: C_4  and  C_5
REMARK    4  A    between atoms: C_7  and  C_8
REMARK    5  A    between atoms: C_14  and  C_15
REMARK    6  A    between atoms: N_17  and  C_18
REMARK    7  A    between atoms: C_18  and  C_19
REMARK    8  A    between atoms: C_19  and  C_20
REMARK    9  A    between atoms: C_20  and  N_21
REMARK   10  A    between atoms: C_22  and  C_24
REMARK   11  A    between atoms: C_24  and  S_25
REMARK                            x       y       z     vdW  Elec       q    Type
REMARK                         _______ _______ _______ _____ _____    ______ ____
ROOT
ATOM      1  C   UNL     1       2.068   6.155  20.562  0.00  0.00    +0.000 A 
ATOM      2  S   UNL     1       0.979   7.361  21.119  0.00  0.00    +0.000 S 
ATOM      3  C   UNL     1       1.455   8.404  19.839  0.00  0.00    +0.000 A 
ATOM      4  N   UNL     1       2.371   7.913  19.024  0.00  0.00    +0.000 NA
ATOM      5  C   UNL     1       2.716   6.610  19.417  0.00  0.00    +0.000 A 
ENDROOT
BRANCH   3   6
ATOM      6  C   UNL     1       0.853   9.709  19.678  0.00  0.00    +0.000 A 
ATOM      7  N   UNL     1       1.040  10.474  18.617  0.00  0.00    +0.000 NA
ATOM      8  C   UNL     1       0.349  11.663  18.764  0.00  0.00    +0.000 A 
ATOM      9  C   UNL     1      -0.341  11.807  19.946  0.00  0.00    +0.000 A 
ATOM     10  S   UNL     1      -0.153  10.395  20.899  0.00  0.00    +0.000 S 
ENDBRANCH   3   6
BRANCH   1  14
ATOM     11  C   UNL     1       1.561   2.555  21.645  0.00  0.00    +0.000 C 
ATOM     12  C   UNL     1       1.529   3.793  20.791  0.00  0.00    +0.000 C 
ATOM     13  C   UNL     1       0.720   3.721  19.524  0.00  0.00    +0.000 C 
ATOM     14  C   UNL     1       2.167   4.901  21.221  0.00  0.00    +0.000 C 
ENDBRANCH   1  14
BRANCH   5  15
ATOM     15  C   UNL     1       3.682   5.815  18.645  0.00  0.00    +0.000 C 
ATOM     16  O   UNL     1       3.537   5.532  17.458  0.00  0.00    +0.000 OA
ATOM     17  N   UNL     1       4.790   5.423  19.362  0.00  0.00    +0.000 N 
ATOM     18  H   UNL     1       4.815   5.684  20.344  0.00  0.00    +0.000 HD
BRANCH  17  19
ATOM     19  C   UNL     1       5.847   4.627  18.771  0.00  0.00    +0.000 C 
BRANCH  19  20
ATOM     20  C   UNL     1       7.138   5.417  18.536  0.00  0.00    +0.000 C 
BRANCH  20  21
ATOM     21  C   UNL     1       7.292   5.820  17.074  0.00  0.00    +0.000 C 
BRANCH  21  22
ATOM     22  N   UNL     1       6.437   5.049  16.195  0.00  0.00    +0.000 N 
ATOM     23  C   UNL     1       6.718   4.881  14.854  0.00  0.00    +0.000 C 
ATOM     24  O   UNL     1       7.698   5.378  14.305  0.00  0.00    +0.000 OA
ATOM     25  H   UNL     1       5.711   4.472  16.605  0.00  0.00    +0.000 HD
BRANCH  23  26
ATOM     26  C   UNL     1       5.679   4.082  14.088  0.00  0.00    +0.000 C 
BRANCH  26  27
ATOM     27  S   UNL     1       6.341   3.528  12.490  0.00  0.00    +0.000 S 
ATOM     28  H   UNL     1       7.636   3.676  12.812  0.00  0.00    +0.000 HD
ENDBRANCH  26  27
ENDBRANCH  23  26
ENDBRANCH  21  22
ENDBRANCH  20  21
ENDBRANCH  19  20
ENDBRANCH  17  19
ENDBRANCH   5  15
TORSDOF 9
ENDMDL
MODEL 3
REMARK VINA RESULT:      -6.6      1.058      1.099
REMARK  Name = 
REMARK  11 active torsions:
REMARK  status: ('A' for Active; 'I' for Inactive)
REMARK    1  A    between atoms: C_1  and  C_2
REMARK    2  A    between atoms: C_2  and  C_3
REMARK    3  A    between atoms: C_4  and  C_5
REMARK    4  A    between atoms: C_7  and  C_8
REMARK    5  A    between atoms: C_14  and  C_15
REMARK    6  A    between atoms: N_17  and  C_18
REMARK    7  A    between atoms: C_18  and  C_19
REMARK    8  A    between atoms: C_19  and  C_20
REMARK    9  A    between atoms: C_20  and  N_21
REMARK   10  A    between atoms: C_22  and  C_24
REMARK   11  A    between atoms: C_24  and  S_25
REMARK                            x       y       z     vdW  Elec       q    Type
REMARK                         _______ _______ _______ _____ _____    ______ ____
ROOT
ATOM      1  C   UNL     1       5.803   4.189  17.120  0.00  0.00    +0.000 A 
ATOM      2  S   UNL     1       4.239   3.488  17.227  0.00  0.00    +0.000 S 
ATOM      3  C   UNL     1       4.117   3.974  18.870  0.00  0.00    +0.000 A 
ATOM      4  N   UNL     1       5.164   4.624  19.345  0.00  0.00    +0.000 NA
ATOM      5  C   UNL     1       6.133   4.774  18.340  0.00  0.00    +0.000 A 
ENDROOT
BRANCH   3   6
ATOM      6  C   UNL     1       2.925   3.700  19.642  0.00  0.00    +0.000 A 
ATOM      7  N   UNL     1       2.470   2.482  19.878  0.00  0.00    +0.000 NA
ATOM      8  C   UNL     1       1.309   2.547  20.625  0.00  0.00    +0.000 A 
ATOM      9  C   UNL     1       0.872   3.815  20.934  0.00  0.00    +0.000 A 
ATOM     10  S   UNL     1       1.965   4.972  20.301  0.00  0.00    +0.000 S 
ENDBRANCH   3   6
BRANCH   1  14
ATOM     11  C   UNL     1       7.056   4.860  13.603  0.00  0.00    +0.000 C 
ATOM     12  C   UNL     1       6.358   5.067  14.919  0.00  0.00    +0.000 C 
ATOM     13  C   UNL     1       5.448   6.261  15.023  0.00  0.00    +0.000 C 
ATOM     14  C   UNL     1       6.535   4.160  15.902  0.00  0.00    +0.000 C 
ENDBRANCH   1  14
BRANCH   5  15
ATOM     15  C   UNL     1       7.381   5.509  18.592  0.00  0.00    +0.000 C 
ATOM     16  O   UNL     1       8.401   4.987  19.034  0.00  0.00    +0.000 OA
ATOM     17  N   UNL     1       7.321   6.846  18.270  0.00  0.00    +0.000 N 
ATOM     18  H   UNL     1       6.429   7.196  17.931  0.00  0.00    +0.000 HD
BRANCH  17  19
ATOM     19  C   UNL     1       8.452   7.733  18.455  0.00  0.00    +0.000 C 
BRANCH  19  20
ATOM     20  C   UNL     1       8.214   9.140  17.899  0.00  0.00    +0.000 C 
BRANCH  20  21
ATOM     21  C   UNL     1       8.795  10.213  18.815  0.00  0.00    +0.000 C 
BRANCH  21  22
ATOM     22  N   UNL     1       9.795  11.022  18.150  0.00  0.00    +0.000 N 
ATOM     23  C   UNL     1       9.593  12.358  17.867  0.00  0.00    +0.000 C 
ATOM     24  O   UNL     1       8.554  12.954  18.142  0.00  0.00    +0.000 OA
ATOM     25  H   UNL     1      10.733  10.651  18.048  0.00  0.00    +0.000 HD
BRANCH  23  26
ATOM     26  C   UNL     1      10.736  13.024  17.124  0.00  0.00    +0.000 C 
BRANCH  26  27
ATOM     27  S   UNL     1      12.197  13.181  18.193  0.00  0.00    +0.000 S 
ATOM     28  H   UNL     1      13.038  13.588  17.229  0.00  0.00    +0.000 HD
ENDBRANCH  26  27
ENDBRANCH  23  26
ENDBRANCH  21  22
ENDBRANCH  20  21
ENDBRANCH  19  20
ENDBRANCH  17  19
ENDBRANCH   5  15
TORSDOF 9
ENDMDL
MODEL 4
REMARK VINA RESULT:      -6.5      1.229      1.280
REMARK  Name = 
REMARK  11 active torsions:
REMARK  status: ('A' for Active; 'I' for Inactive)
REMARK    1  A    between atoms: C_1  and  C_2
REMARK    2  A    between atoms: C_2  and  C_3
REMARK    3  A    between atoms: C_4  and  C_5
REMARK    4  A    between atoms: C_7  and  C_8
REMARK    5  A    between atoms: C_14  and  C_15
REMARK    6  A    between atoms: N_17  and  C_18
REMARK    7  A    between atoms: C_18  and  C_19
REMARK    8  A    between atoms: C_19  and  C_20
REMARK    9  A    between atoms: C_20  and  N_21
REMARK   10  A    between atoms: C_22  and  C_24
REMARK   11  A    between atoms: C_24  and  S_25
REMARK                            x       y       z     vdW  Elec       q    Type
REMARK                         _______ _______ _______ _____ _____    ______ ____
ROOT
ATOM      1  C   UNL     1       5.910   4.247  17.374  0.00  0.00    +0.000 A 
ATOM      2  S   UNL     1       4.384   3.460  17.429  0.00  0.00    +0.000 S 
ATOM      3  C   UNL     1       4.179   3.941  19.066  0.00  0.00    +0.000 A 
ATOM      4  N   UNL     1       5.171   4.650  19.574  0.00  0.00    +0.000 NA
ATOM      5  C   UNL     1       6.164   4.851  18.602  0.00  0.00    +0.000 A 
ENDROOT
BRANCH   3   6
ATOM      6  C   UNL     1       2.978   3.601  19.797  0.00  0.00    +0.000 A 
ATOM      7  N   UNL     1       2.984   3.068  21.006  0.00  0.00    +0.000 NA
ATOM      8  C   UNL     1       1.688   2.844  21.431  0.00  0.00    +0.000 A 
ATOM      9  C   UNL     1       0.701   3.185  20.533  0.00  0.00    +0.000 A 
ATOM     10  S   UNL     1       1.411   3.843  19.119  0.00  0.00    +0.000 S 
ENDBRANCH   3   6
BRANCH   1  14
ATOM     11  C   UNL     1       7.207   4.931  13.875  0.00  0.00    +0.000 C 
ATOM     12  C   UNL     1       6.444   5.106  15.161  0.00  0.00    +0.000 C 
ATOM     13  C   UNL     1       5.407   6.195  15.190  0.00  0.00    +0.000 C 
ATOM     14  C   UNL     1       6.683   4.258  16.182  0.00  0.00    +0.000 C 
ENDBRANCH   1  14
BRANCH   5  15
ATOM     15  C   UNL     1       7.359   5.656  18.894  0.00  0.00    +0.000 C 
ATOM     16  O   UNL     1       8.294   5.261  19.587  0.00  0.00    +0.000 OA
ATOM     17  N   UNL     1       7.358   6.900  18.304  0.00  0.00    +0.000 N 
ATOM     18  H   UNL     1       6.534   7.151  17.766  0.00  0.00    +0.000 HD
BRANCH  17  19
ATOM     19  C   UNL     1       8.449   7.836  18.482  0.00  0.00    +0.000 C 
BRANCH  19  20
ATOM     20  C   UNL     1       8.100   9.262  18.048  0.00  0.00    +0.000 C 
BRANCH  20  21
ATOM     21  C   UNL     1       9.241  10.233  18.331  0.00  0.00    +0.000 C 
BRANCH  21  22
ATOM     22  N   UNL     1       8.931  11.585  17.915  0.00  0.00    +0.000 N 
ATOM     23  C   UNL     1       9.084  12.669  18.756  0.00  0.00    +0.000 C 
ATOM     24  O   UNL     1       9.478  12.570  19.916  0.00  0.00    +0.000 OA
ATOM     25  H   UNL     1       8.767  11.767  16.931  0.00  0.00    +0.000 HD
BRANCH  23  26
ATOM     26  C   UNL     1       8.661  13.997  18.155  0.00  0.00    +0.000 C 
BRANCH  26  27
ATOM     27  S   UNL     1       6.908  13.962  17.681  0.00  0.00    +0.000 S 
ATOM     28  H   UNL     1       6.439  13.616  18.891  0.00  0.00    +0.000 HD
ENDBRANCH  26  27
ENDBRANCH  23  26
ENDBRANCH  21  22
ENDBRANCH  20  21
ENDBRANCH  19  20
ENDBRANCH  17  19
ENDBRANCH   5  15
TORSDOF 9
ENDMDL
MODEL 5
REMARK VINA RESULT:      -6.4      1.355      1.435
REMARK  Name = 
REMARK  11 active torsions:
REMARK  status: ('A' for Active; 'I' for Inactive)
REMARK    1  A    between atoms: C_1  and  C_2
REMARK    2  A    between atoms: C_2  and  C_3
REMARK    3  A    between atoms: C_4  and  C_5
REMARK    4  A    between atoms: C_7  and  C_8
REMARK    5  A    between atoms: C_14  and  C_15
REMARK    6  A    between atoms: N_17  and  C_18
REMARK    7  A    between atoms: C_18  and  C_19
REMARK    8  A    between atoms: C_19  and  C_20
REMARK    9  A    between atoms: C_20  and  N_21
REMARK   10  A    between atoms: C_22  and  C_24
REMARK   11  A    between atoms: C_24  and  S_25
REMARK                            x       y       z     vdW  Elec       q    Type
REMARK                         _______ _______ _______ _____ _____    ______ ____
ROOT
ATOM      1  C   UNL     1       5.933   4.384  17.258  0.00  0.00    +0.000 A 
ATOM      2  S   UNL     1       4.381   3.647  17.252  0.00  0.00    +0.000 S 
ATOM      3  C   UNL     1       4.121   4.147  18.875  0.00  0.00    +0.000 A 
ATOM      4  N   UNL     1       5.112   4.828  19.420  0.00  0.00    +0.000 NA
ATOM      5  C   UNL     1       6.153   4.990  18.492  0.00  0.00    +0.000 A 
ENDROOT
BRANCH   3   6
ATOM      6  C   UNL     1       2.879   3.853  19.555  0.00  0.00    +0.000 A 
ATOM      7  N   UNL     1       2.160   4.761  20.191  0.00  0.00    +0.000 NA
ATOM      8  C   UNL     1       1.042   4.173  20.751  0.00  0.00    +0.000 A 
ATOM      9  C   UNL     1       0.927   2.814  20.560  0.00  0.00    +0.000 A 
ATOM     10  S   UNL     1       2.242   2.251  19.617  0.00  0.00    +0.000 S 
ENDBRANCH   3   6
BRANCH   1  14
ATOM     11  C   UNL     1       7.361   4.934  13.787  0.00  0.00    +0.000 C 
ATOM     12  C   UNL     1       6.537   5.147  15.027  0.00  0.00    +0.000 C 
ATOM     13  C   UNL     1       5.467   6.202  14.957  0.00  0.00    +0.000 C 
ATOM     14  C   UNL     1       6.757   4.360  16.100  0.00  0.00    +0.000 C 
ENDBRANCH   1  14
BRANCH   5  15
ATOM     15  C   UNL     1       7.360   5.758  18.831  0.00  0.00    +0.000 C 
ATOM     16  O   UNL     1       8.265   5.327  19.541  0.00  0.00    +0.000 OA
ATOM     17  N   UNL     1       7.407   7.012  18.264  0.00  0.00    +0.000 N 
ATOM     18  H   UNL     1       6.604   7.293  17.708  0.00  0.00    +0.000 HD
BRANCH  17  19
ATOM     19  C   UNL     1       8.516   7.916  18.489  0.00  0.00    +0.000 C 
BRANCH  19  20
ATOM     20  C   UNL     1       8.234   9.347  18.021  0.00  0.00    +0.000 C 
BRANCH  20  21
ATOM     21  C   UNL     1       9.355  10.300  18.420  0.00  0.00    +0.000 C 
BRANCH  21  22
ATOM     22  N   UNL     1       9.054  11.028  19.636  0.00  0.00    +0.000 N 
ATOM     23  C   UNL     1      10.028  11.681  20.364  0.00  0.00    +0.000 C 
ATOM     24  O   UNL     1      11.216  11.686  20.047  0.00  0.00    +0.000 OA
ATOM     25  H   UNL     1       8.085  11.213  19.865  0.00  0.00    +0.000 HD
BRANCH  23  26
ATOM     26  C   UNL     1       9.527  12.346  21.633  0.00  0.00    +0.000 C 
BRANCH  26  27
ATOM     27  S   UNL     1       9.807  14.140  21.576  0.00  0.00    +0.000 S 
ATOM     28  H   UNL     1       9.263  14.332  20.363  0.00  0.00    +0.000 HD
ENDBRANCH  26  27
ENDBRANCH  23  26
ENDBRANCH  21  22
ENDBRANCH  20  21
ENDBRANCH  19  20
ENDBRANCH  17  19
ENDBRANCH   5  15
TORSDOF 9
ENDMDL
MODEL 6
REMARK VINA RESULT:      -6.2      5.278      8.320
REMARK  Name = 
REMARK  11 active torsions:
REMARK  status: ('A' for Active; 'I' for Inactive)
REMARK    1  A    between atoms: C_1  and  C_2
REMARK    2  A    between atoms: C_2  and  C_3
REMARK    3  A    between atoms: C_4  and  C_5
REMARK    4  A    between atoms: C_7  and  C_8
REMARK    5  A    between atoms: C_14  and  C_15
REMARK    6  A    between atoms: N_17  and  C_18
REMARK    7  A    between atoms: C_18  and  C_19
REMARK    8  A    between atoms: C_19  and  C_20
REMARK    9  A    between atoms: C_20  and  N_21
REMARK   10  A    between atoms: C_22  and  C_24
REMARK   11  A    between atoms: C_24  and  S_25
REMARK                            x       y       z     vdW  Elec       q    Type
REMARK                         _______ _______ _______ _____ _____    ______ ____
ROOT
ATOM      1  C   UNL     1       3.399   4.510  19.432  0.00  0.00    +0.000 A 
ATOM      2  S   UNL     1       4.514   3.663  18.438  0.00  0.00    +0.000 S 
ATOM      3  C   UNL     1       4.658   5.030  17.408  0.00  0.00    +0.000 A 
ATOM      4  N   UNL     1       3.931   6.077  17.756  0.00  0.00    +0.000 NA
ATOM      5  C   UNL     1       3.218   5.797  18.932  0.00  0.00    +0.000 A 
ENDROOT
BRANCH   3   6
ATOM      6  C   UNL     1       5.545   5.013  16.266  0.00  0.00    +0.000 A 
ATOM      7  N   UNL     1       6.232   6.065  15.857  0.00  0.00    +0.000 NA
ATOM      8  C   UNL     1       6.973   5.741  14.736  0.00  0.00    +0.000 A 
ATOM      9  C   UNL     1       6.829   4.449  14.282  0.00  0.00    +0.000 A 
ATOM     10  S   UNL     1       5.757   3.593  15.309  0.00  0.00    +0.000 S 
ENDBRANCH   3   6
BRANCH   1  14
ATOM     11  C   UNL     1       1.154   2.649  21.858  0.00  0.00    +0.000 C 
ATOM     12  C   UNL     1       1.759   3.110  20.560  0.00  0.00    +0.000 C 
ATOM     13  C   UNL     1       1.054   2.693  19.299  0.00  0.00    +0.000 C 
ATOM     14  C   UNL     1       2.849   3.903  20.593  0.00  0.00    +0.000 C 
ENDBRANCH   1  14
BRANCH   5  15
ATOM     15  C   UNL     1       2.367   6.815  19.564  0.00  0.00    +0.000 C 
ATOM     16  O   UNL     1       1.817   6.663  20.652  0.00  0.00    +0.000 OA
ATOM     17  N   UNL     1       2.249   7.980  18.839  0.00  0.00    +0.000 N 
ATOM     18  H   UNL     1       2.721   8.009  17.940  0.00  0.00    +0.000 HD
BRANCH  17  19
ATOM     19  C   UNL     1       1.446   9.094  19.300  0.00  0.00    +0.000 C 
BRANCH  19  20
ATOM     20  C   UNL     1       0.808   9.892  18.159  0.00  0.00    +0.000 C 
BRANCH  20  21
ATOM     21  C   UNL     1      -0.675  10.144  18.408  0.00  0.00    +0.000 C 
BRANCH  21  22
ATOM     22  N   UNL     1      -1.335  10.731  17.261  0.00  0.00    +0.000 N 
ATOM     23  C   UNL     1      -2.612  10.371  16.881  0.00  0.00    +0.000 C 
ATOM     24  O   UNL     1      -3.276   9.523  17.473  0.00  0.00    +0.000 OA
ATOM     25  H   UNL     1      -0.925  11.552  16.830  0.00  0.00    +0.000 HD
BRANCH  23  26
ATOM     26  C   UNL     1      -3.114  11.060  15.626  0.00  0.00    +0.000 C 
BRANCH  26  27
ATOM     27  S   UNL     1      -3.226   9.885  14.245  0.00  0.00    +0.000 S 
ATOM     28  H   UNL     1      -2.509   8.910  14.828  0.00  0.00    +0.000 HD
ENDBRANCH  26  27
ENDBRANCH  23  26
ENDBRANCH  21  22
ENDBRANCH  20  21
ENDBRANCH  19  20
ENDBRANCH  17  19
ENDBRANCH   5  15
TORSDOF 9
ENDMDL
MODEL 7
REMARK VINA RESULT:      -6.2      4.041      6.292
REMARK  Name = 
REMARK  11 active torsions:
REMARK  status: ('A' for Active; 'I' for Inactive)
REMARK    1  A    between atoms: C_1  and  C_2
REMARK    2  A    between atoms: C_2  and  C_3
REMARK    3  A    between atoms: C_4  and  C_5
REMARK    4  A    between atoms: C_7  and  C_8
REMARK    5  A    between atoms: C_14  and  C_15
REMARK    6  A    between atoms: N_17  and  C_18
REMARK    7  A    between atoms: C_18  and  C_19
REMARK    8  A    between atoms: C_19  and  C_20
REMARK    9  A    between atoms: C_20  and  N_21
REMARK   10  A    between atoms: C_22  and  C_24
REMARK   11  A    between atoms: C_24  and  S_25
REMARK                            x       y       z     vdW  Elec       q    Type
REMARK                         _______ _______ _______ _____ _____    ______ ____
ROOT
ATOM      1  C   UNL     1       2.566   5.585  19.855  0.00  0.00    +0.000 A 
ATOM      2  S   UNL     1       2.064   7.090  20.511  0.00  0.00    +0.000 S 
ATOM      3  C   UNL     1       2.142   7.812  18.954  0.00  0.00    +0.000 A 
ATOM      4  N   UNL     1       2.516   7.007  17.977  0.00  0.00    +0.000 NA
ATOM      5  C   UNL     1       2.742   5.715  18.479  0.00  0.00    +0.000 A 
ENDROOT
BRANCH   3   6
ATOM      6  C   UNL     1       1.786   9.200  18.759  0.00  0.00    +0.000 A 
ATOM      7  N   UNL     1       2.268   9.948  17.782  0.00  0.00    +0.000 NA
ATOM      8  C   UNL     1       1.755  11.229  17.869  0.00  0.00    +0.000 A 
ATOM      9  C   UNL     1       0.903  11.457  18.927  0.00  0.00    +0.000 A 
ATOM     10  S   UNL     1       0.704  10.014  19.828  0.00  0.00    +0.000 S 
ENDBRANCH   3   6
BRANCH   1  14
ATOM     11  C   UNL     1       1.887   2.415  21.825  0.00  0.00    +0.000 C 
ATOM     12  C   UNL     1       1.725   3.508  20.804  0.00  0.00    +0.000 C 
ATOM     13  C   UNL     1       0.438   3.521  20.025  0.00  0.00    +0.000 C 
ATOM     14  C   UNL     1       2.697   4.435  20.679  0.00  0.00    +0.000 C 
ENDBRANCH   1  14
BRANCH   5  15
ATOM     15  C   UNL     1       3.122   4.610  17.588  0.00  0.00    +0.000 C 
ATOM     16  O   UNL     1       2.352   3.716  17.244  0.00  0.00    +0.000 OA
ATOM     17  N   UNL     1       4.424   4.666  17.144  0.00  0.00    +0.000 N 
ATOM     18  H   UNL     1       4.995   5.429  17.496  0.00  0.00    +0.000 HD
BRANCH  17  19
ATOM     19  C   UNL     1       4.981   3.660  16.262  0.00  0.00    +0.000 C 
BRANCH  19  20
ATOM     20  C   UNL     1       6.412   3.971  15.817  0.00  0.00    +0.000 C 
BRANCH  20  21
ATOM     21  C   UNL     1       6.620   5.465  15.590  0.00  0.00    +0.000 C 
BRANCH  21  22
ATOM     22  N   UNL     1       7.490   6.058  16.585  0.00  0.00    +0.000 N 
ATOM     23  C   UNL     1       7.147   7.202  17.276  0.00  0.00    +0.000 C 
ATOM     24  O   UNL     1       6.093   7.808  17.094  0.00  0.00    +0.000 OA
ATOM     25  H   UNL     1       8.290   5.527  16.911  0.00  0.00    +0.000 HD
BRANCH  23  26
ATOM     26  C   UNL     1       8.209   7.698  18.240  0.00  0.00    +0.000 C 
BRANCH  26  27
ATOM     27  S   UNL     1       8.382   9.503  18.137  0.00  0.00    +0.000 S 
ATOM     28  H   UNL     1       8.815   9.534  16.867  0.00  0.00    +0.000 HD
ENDBRANCH  26  27
ENDBRANCH  23  26
ENDBRANCH  21  22
ENDBRANCH  20  21
ENDBRANCH  19  20
ENDBRANCH  17  19
ENDBRANCH   5  15
TORSDOF 9
ENDMDL
MODEL 8
REMARK VINA RESULT:      -6.2      4.563      7.631
REMARK  Name = 
REMARK  11 active torsions:
REMARK  status: ('A' for Active; 'I' for Inactive)
REMARK    1  A    between atoms: C_1  and  C_2
REMARK    2  A    between atoms: C_2  and  C_3
REMARK    3  A    between atoms: C_4  and  C_5
REMARK    4  A    between atoms: C_7  and  C_8
REMARK    5  A    between atoms: C_14  and  C_15
REMARK    6  A    between atoms: N_17  and  C_18
REMARK    7  A    between atoms: C_18  and  C_19
REMARK    8  A    between atoms: C_19  and  C_20
REMARK    9  A    between atoms: C_20  and  N_21
REMARK   10  A    between atoms: C_22  and  C_24
REMARK   11  A    between atoms: C_24  and  S_25
REMARK                            x       y       z     vdW  Elec       q    Type
REMARK                         _______ _______ _______ _____ _____    ______ ____
ROOT
ATOM      1  C   UNL     1       2.169   6.912  20.197  0.00  0.00    +0.000 A 
ATOM      2  S   UNL     1       1.249   8.125  20.990  0.00  0.00    +0.000 S 
ATOM      3  C   UNL     1       1.245   9.078  19.560  0.00  0.00    +0.000 A 
ATOM      4  N   UNL     1       1.883   8.552  18.531  0.00  0.00    +0.000 NA
ATOM      5  C   UNL     1       2.401   7.294  18.878  0.00  0.00    +0.000 A 
ENDROOT
BRANCH   3   6
ATOM      6  C   UNL     1       0.556  10.349  19.514  0.00  0.00    +0.000 A 
ATOM      7  N   UNL     1       1.106  11.493  19.882  0.00  0.00    +0.000 NA
ATOM      8  C   UNL     1       0.195  12.523  19.739  0.00  0.00    +0.000 A 
ATOM      9  C   UNL     1      -1.052  12.155  19.286  0.00  0.00    +0.000 A 
ATOM     10  S   UNL     1      -1.084  10.467  18.992  0.00  0.00    +0.000 S 
ENDBRANCH   3   6
BRANCH   1  14
ATOM     11  C   UNL     1       2.168   3.435  21.714  0.00  0.00    +0.000 C 
ATOM     12  C   UNL     1       1.785   4.595  20.837  0.00  0.00    +0.000 C 
ATOM     13  C   UNL     1       0.534   4.440  20.016  0.00  0.00    +0.000 C 
ATOM     14  C   UNL     1       2.535   5.715  20.871  0.00  0.00    +0.000 C 
ENDBRANCH   1  14
BRANCH   5  15
ATOM     15  C   UNL     1       3.116   6.469  17.894  0.00  0.00    +0.000 C 
ATOM     16  O   UNL     1       2.725   5.367  17.516  0.00  0.00    +0.000 OA
ATOM     17  N   UNL     1       4.266   7.046  17.404  0.00  0.00    +0.000 N 
ATOM     18  H   UNL     1       4.524   7.951  17.788  0.00  0.00    +0.000 HD
BRANCH  17  19
ATOM     19  C   UNL     1       5.106   6.380  16.430  0.00  0.00    +0.000 C 
BRANCH  19  20
ATOM     20  C   UNL     1       6.581   6.328  16.838  0.00  0.00    +0.000 C 
BRANCH  20  21
ATOM     21  C   UNL     1       7.060   4.894  17.036  0.00  0.00    +0.000 C 
BRANCH  21  22
ATOM     22  N   UNL     1       6.045   4.051  17.634  0.00  0.00    +0.000 N 
ATOM     23  C   UNL     1       5.737   4.109  18.978  0.00  0.00    +0.000 C 
ATOM     24  O   UNL     1       6.304   4.862  19.766  0.00  0.00    +0.000 OA
ATOM     25  H   UNL     1       5.422   3.533  17.025  0.00  0.00    +0.000 HD
BRANCH  23  26
ATOM     26  C   UNL     1       4.682   3.114  19.426  0.00  0.00    +0.000 C 
BRANCH  26  27
ATOM     27  S   UNL     1       3.834   2.385  17.994  0.00  0.00    +0.000 S 
ATOM     28  H   UNL     1       4.913   1.767  17.487  0.00  0.00    +0.000 HD
ENDBRANCH  26  27
ENDBRANCH  23  26
ENDBRANCH  21  22
ENDBRANCH  20  21
ENDBRANCH  19  20
ENDBRANCH  17  19
ENDBRANCH   5  15
TORSDOF 9
ENDMDL
MODEL 9
REMARK VINA RESULT:      -6.2      4.571      6.999
REMARK  Name = 
REMARK  11 active torsions:
REMARK  status: ('A' for Active; 'I' for Inactive)
REMARK    1  A    between atoms: C_1  and  C_2
REMARK    2  A    between atoms: C_2  and  C_3
REMARK    3  A    between atoms: C_4  and  C_5
REMARK    4  A    between atoms: C_7  and  C_8
REMARK    5  A    between atoms: C_14  and  C_15
REMARK    6  A    between atoms: N_17  and  C_18
REMARK    7  A    between atoms: C_18  and  C_19
REMARK    8  A    between atoms: C_19  and  C_20
REMARK    9  A    between atoms: C_20  and  N_21
REMARK   10  A    between atoms: C_22  and  C_24
REMARK   11  A    between atoms: C_24  and  S_25
REMARK                            x       y       z     vdW  Elec       q    Type
REMARK                         _______ _______ _______ _____ _____    ______ ____
ROOT
ATOM      1  C   UNL     1       3.270   4.622  19.779  0.00  0.00    +0.000 A 
ATOM      2  S   UNL     1       1.773   5.200  20.391  0.00  0.00    +0.000 S 
ATOM      3  C   UNL     1       2.246   6.819  20.062  0.00  0.00    +0.000 A 
ATOM      4  N   UNL     1       3.444   6.957  19.525  0.00  0.00    +0.000 NA
ATOM      5  C   UNL     1       4.036   5.698  19.337  0.00  0.00    +0.000 A 
ENDROOT
BRANCH   3   6
ATOM      6  C   UNL     1       1.357   7.925  20.337  0.00  0.00    +0.000 A 
ATOM      7  N   UNL     1       0.536   7.963  21.372  0.00  0.00    +0.000 NA
ATOM      8  C   UNL     1      -0.193   9.138  21.355  0.00  0.00    +0.000 A 
ATOM      9  C   UNL     1       0.058   9.977  20.293  0.00  0.00    +0.000 A 
ATOM     10  S   UNL     1       1.274   9.297  19.295  0.00  0.00    +0.000 S 
ENDBRANCH   3   6
BRANCH   1  14
ATOM     11  C   UNL     1       3.517   0.985  18.728  0.00  0.00    +0.000 C 
ATOM     12  C   UNL     1       3.348   2.477  18.632  0.00  0.00    +0.000 C 
ATOM     13  C   UNL     1       2.894   3.023  17.305  0.00  0.00    +0.000 C 
ATOM     14  C   UNL     1       3.552   3.230  19.732  0.00  0.00    +0.000 C 
ENDBRANCH   1  14
BRANCH   5  15
ATOM     15  C   UNL     1       5.357   5.566  18.706  0.00  0.00    +0.000 C 
ATOM     16  O   UNL     1       6.361   5.184  19.301  0.00  0.00    +0.000 OA
ATOM     17  N   UNL     1       5.377   5.892  17.368  0.00  0.00    +0.000 N 
ATOM     18  H   UNL     1       4.505   6.220  16.963  0.00  0.00    +0.000 HD
BRANCH  17  19
ATOM     19  C   UNL     1       6.591   5.829  16.579  0.00  0.00    +0.000 C 
BRANCH  19  20
ATOM     20  C   UNL     1       6.847   4.447  15.972  0.00  0.00    +0.000 C 
BRANCH  20  21
ATOM     21  C   UNL     1       7.092   4.529  14.469  0.00  0.00    +0.000 C 
BRANCH  21  22
ATOM     22  N   UNL     1       6.274   3.594  13.725  0.00  0.00    +0.000 N 
ATOM     23  C   UNL     1       6.374   3.457  12.355  0.00  0.00    +0.000 C 
ATOM     24  O   UNL     1       7.146   4.119  11.666  0.00  0.00    +0.000 OA
ATOM     25  H   UNL     1       5.743   2.898  14.235  0.00  0.00    +0.000 HD
BRANCH  23  26
ATOM     26  C   UNL     1       5.400   2.462  11.749  0.00  0.00    +0.000 C 
BRANCH  26  27
ATOM     27  S   UNL     1       3.962   3.317  11.041  0.00  0.00    +0.000 S 
ATOM     28  H   UNL     1       4.486   3.488   9.816  0.00  0.00    +0.000 HD
ENDBRANCH  26  27
ENDBRANCH  23  26
ENDBRANCH  21  22
ENDBRANCH  20  21
ENDBRANCH  19  20
ENDBRANCH  17  19
ENDBRANCH   5  15
TORSDOF 9
ENDMDL
