MODEL 1
REMARK VINA RESULT:      -7.2      0.000      0.000
REMARK  Name = 
REMARK  7 active torsions:
REMARK  status: ('A' for Active; 'I' for Inactive)
REMARK    1  A    between atoms: C_4  and  C_5
REMARK    2  A    between atoms: C_13  and  O_14
REMARK    3  A    between atoms: O_14  and  C_15
REMARK    4  A    between atoms: C_15  and  C_16
REMARK    5  A    between atoms: C_16  and  N_17
REMARK    6  A    between atoms: C_22  and  O_23
REMARK    7  A    between atoms: C_25  and  O_26
REMARK                            x       y       z     vdW  Elec       q    Type
REMARK                         _______ _______ _______ _____ _____    ______ ____
ROOT
ATOM      1  O   UNL     1       3.026   1.805  18.841  0.00  0.00    +0.000 OA
ATOM      2  C   UNL     1       3.258   2.951  18.462  0.00  0.00    +0.000 A 
ATOM      3  C   UNL     1       4.129   3.140  17.302  0.00  0.00    +0.000 A 
ATOM      4  C   UNL     1       4.409   4.377  16.890  0.00  0.00    +0.000 A 
ATOM      5  O   UNL     1       3.937   5.537  17.470  0.00  0.00    +0.000 OA
ATOM      6  C   UNL     1       3.097   5.427  18.564  0.00  0.00    +0.000 A 
ATOM      7  C   UNL     1       2.634   6.628  19.146  0.00  0.00    +0.000 A 
ATOM      8  C   UNL     1       1.775   6.538  20.256  0.00  0.00    +0.000 A 
ATOM      9  C   UNL     1       1.412   5.299  20.787  0.00  0.00    +0.000 A 
ATOM     10  C   UNL     1       1.878   4.125  20.209  0.00  0.00    +0.000 A 
ATOM     11  C   UNL     1       2.725   4.178  19.098  0.00  0.00    +0.000 A 
ENDROOT
BRANCH   4  12
ATOM     12  C   UNL     1       5.286   4.548  15.727  0.00  0.00    +0.000 A 
ATOM     13  C   UNL     1       4.983   3.904  14.522  0.00  0.00    +0.000 A 
ATOM     14  C   UNL     1       5.888   3.938  13.459  0.00  0.00    +0.000 A 
ATOM     15  C   UNL     1       7.097   4.619  13.595  0.00  0.00    +0.000 A 
ATOM     16  C   UNL     1       7.399   5.279  14.786  0.00  0.00    +0.000 A 
ATOM     17  C   UNL     1       6.496   5.243  15.851  0.00  0.00    +0.000 A 
ENDBRANCH   4  12
BRANCH   8  18
ATOM     18  O   UNL     1       1.208   7.593  20.914  0.00  0.00    +0.000 OA
ATOM     19  H   UNL     1       0.691   7.262  21.664  0.00  0.00    +0.000 HD
ENDBRANCH   8  18
BRANCH  10  20
ATOM     20  O   UNL     1       1.485   2.934  20.746  0.00  0.00    +0.000 OA
ATOM     21  H   UNL     1       0.901   3.078  21.508  0.00  0.00    +0.000 HD
ENDBRANCH  10  20
BRANCH   7  22
ATOM     22  O   UNL     1       3.077   7.785  18.540  0.00  0.00    +0.000 OA
BRANCH  22  23
ATOM     23  C   UNL     1       2.154   8.452  17.681  0.00  0.00    +0.000 C 
BRANCH  23  24
ATOM     24  C   UNL     1       1.886   9.906  18.110  0.00  0.00    +0.000 C 
BRANCH  24  25
ATOM     25  N   UNL     1       0.779   9.970  19.089  0.00  0.00    +0.000 NA
ATOM     26  C   UNL     1      -0.524  10.206  18.449  0.00  0.00    +0.000 C 
ATOM     27  C   UNL     1      -0.676  11.714  18.426  0.00  0.00    +0.000 C 
ATOM     28  C   UNL     1      -0.082  12.134  19.753  0.00  0.00    +0.000 C 
ATOM     29  C   UNL     1       0.938  11.055  20.076  0.00  0.00    +0.000 C 
ENDBRANCH  24  25
ENDBRANCH  23  24
ENDBRANCH  22  23
ENDBRANCH   7  22
TORSDOF 7
ENDMDL
MODEL 2
REMARK VINA RESULT:      -7.0      2.275      6.734
REMARK  Name = 
REMARK  7 active torsions:
REMARK  status: ('A' for Active; 'I' for Inactive)
REMARK    1  A    between atoms: C_4  and  C_5
REMARK    2  A    between atoms: C_13  and  O_14
REMARK    3  A    between atoms: O_14  and  C_15
REMARK    4  A    between atoms: C_15  and  C_16
REMARK    5  A    between atoms: C_16  and  N_17
REMARK    6  A    between atoms: C_22  and  O_23
REMARK    7  A    between atoms: C_25  and  O_26
REMARK                            x       y       z     vdW  Elec       q    Type
REMARK                         _______ _______ _______ _____ _____    ______ ____
ROOT
ATOM      1  O   UNL     1       1.785   3.661  21.521  0.00  0.00    +0.000 OA
ATOM      2  C   UNL     1       2.069   4.536  20.707  0.00  0.00    +0.000 A 
ATOM      3  C   UNL     1       1.653   5.911  20.985  0.00  0.00    +0.000 A 
ATOM      4  C   UNL     1       1.934   6.870  20.103  0.00  0.00    +0.000 A 
ATOM      5  O   UNL     1       2.607   6.686  18.911  0.00  0.00    +0.000 OA
ATOM      6  C   UNL     1       3.039   5.410  18.594  0.00  0.00    +0.000 A 
ATOM      7  C   UNL     1       3.716   5.246  17.365  0.00  0.00    +0.000 A 
ATOM      8  C   UNL     1       4.169   3.958  17.027  0.00  0.00    +0.000 A 
ATOM      9  C   UNL     1       3.931   2.867  17.865  0.00  0.00    +0.000 A 
ATOM     10  C   UNL     1       3.259   3.041  19.068  0.00  0.00    +0.000 A 
ATOM     11  C   UNL     1       2.806   4.310  19.441  0.00  0.00    +0.000 A 
ENDROOT
BRANCH   4  12
ATOM     12  C   UNL     1       1.507   8.242  20.396  0.00  0.00    +0.000 A 
ATOM     13  C   UNL     1       1.141   8.596  21.700  0.00  0.00    +0.000 A 
ATOM     14  C   UNL     1       0.591   9.853  21.960  0.00  0.00    +0.000 A 
ATOM     15  C   UNL     1       0.408  10.762  20.919  0.00  0.00    +0.000 A 
ATOM     16  C   UNL     1       0.786  10.424  19.619  0.00  0.00    +0.000 A 
ATOM     17  C   UNL     1       1.334   9.166  19.358  0.00  0.00    +0.000 A 
ENDBRANCH   4  12
BRANCH   8  18
ATOM     18  O   UNL     1       4.870   3.628  15.901  0.00  0.00    +0.000 OA
ATOM     19  H   UNL     1       5.789   3.920  15.999  0.00  0.00    +0.000 HD
ENDBRANCH   8  18
BRANCH  10  20
ATOM     20  O   UNL     1       3.063   1.953  19.868  0.00  0.00    +0.000 OA
ATOM     21  H   UNL     1       3.795   1.856  20.498  0.00  0.00    +0.000 HD
ENDBRANCH  10  20
BRANCH   7  22
ATOM     22  O   UNL     1       3.874   6.395  16.621  0.00  0.00    +0.000 OA
BRANCH  22  23
ATOM     23  C   UNL     1       5.187   6.671  16.137  0.00  0.00    +0.000 C 
BRANCH  23  24
ATOM     24  C   UNL     1       6.039   7.462  17.145  0.00  0.00    +0.000 C 
BRANCH  24  25
ATOM     25  N   UNL     1       7.414   6.922  17.208  0.00  0.00    +0.000 NA
ATOM     26  C   UNL     1       7.456   5.467  16.998  0.00  0.00    +0.000 C 
ATOM     27  C   UNL     1       7.334   4.871  18.387  0.00  0.00    +0.000 C 
ATOM     28  C   UNL     1       8.153   5.819  19.234  0.00  0.00    +0.000 C 
ATOM     29  C   UNL     1       8.070   7.153  18.511  0.00  0.00    +0.000 C 
ENDBRANCH  24  25
ENDBRANCH  23  24
ENDBRANCH  22  23
ENDBRANCH   7  22
TORSDOF 7
ENDMDL
MODEL 3
REMARK VINA RESULT:      -6.9      3.614      6.722
REMARK  Name = 
REMARK  7 active torsions:
REMARK  status: ('A' for Active; 'I' for Inactive)
REMARK    1  A    between atoms: C_4  and  C_5
REMARK    2  A    between atoms: C_13  and  O_14
REMARK    3  A    between atoms: O_14  and  C_15
REMARK    4  A    between atoms: C_15  and  C_16
REMARK    5  A    between atoms: C_16  and  N_17
REMARK    6  A    between atoms: C_22  and  O_23
REMARK    7  A    between atoms: C_25  and  O_26
REMARK                            x       y       z     vdW  Elec       q    Type
REMARK                         _______ _______ _______ _____ _____    ______ ____
ROOT
ATOM      1  O   UNL     1       2.107   3.511  18.083  0.00  0.00    +0.000 OA
ATOM      2  C   UNL     1       2.723   4.572  18.015  0.00  0.00    +0.000 A 
ATOM      3  C   UNL     1       2.091   5.783  18.540  0.00  0.00    +0.000 A 
ATOM      4  C   UNL     1       2.735   6.946  18.455  0.00  0.00    +0.000 A 
ATOM      5  O   UNL     1       3.988   7.126  17.903  0.00  0.00    +0.000 OA
ATOM      6  C   UNL     1       4.646   6.017  17.400  0.00  0.00    +0.000 A 
ATOM      7  C   UNL     1       5.922   6.228  16.832  0.00  0.00    +0.000 A 
ATOM      8  C   UNL     1       6.611   5.114  16.319  0.00  0.00    +0.000 A 
ATOM      9  C   UNL     1       6.039   3.840  16.343  0.00  0.00    +0.000 A 
ATOM     10  C   UNL     1       4.781   3.648  16.900  0.00  0.00    +0.000 A 
ATOM     11  C   UNL     1       4.074   4.731  17.429  0.00  0.00    +0.000 A 
ENDROOT
BRANCH   4  12
ATOM     12  C   UNL     1       2.086   8.150  18.984  0.00  0.00    +0.000 A 
ATOM     13  C   UNL     1       1.677   8.193  20.322  0.00  0.00    +0.000 A 
ATOM     14  C   UNL     1       0.926   9.272  20.794  0.00  0.00    +0.000 A 
ATOM     15  C   UNL     1       0.582  10.312  19.932  0.00  0.00    +0.000 A 
ATOM     16  C   UNL     1       1.000  10.285  18.601  0.00  0.00    +0.000 A 
ATOM     17  C   UNL     1       1.750   9.206  18.128  0.00  0.00    +0.000 A 
ENDBRANCH   4  12
BRANCH   8  18
ATOM     18  O   UNL     1       7.863   5.131  15.772  0.00  0.00    +0.000 OA
ATOM     19  H   UNL     1       8.253   4.246  15.836  0.00  0.00    +0.000 HD
ENDBRANCH   8  18
BRANCH  10  20
ATOM     20  O   UNL     1       4.265   2.384  16.921  0.00  0.00    +0.000 OA
ATOM     21  H   UNL     1       3.299   2.412  17.018  0.00  0.00    +0.000 HD
ENDBRANCH  10  20
BRANCH   7  22
ATOM     22  O   UNL     1       6.369   7.532  16.854  0.00  0.00    +0.000 OA
BRANCH  22  23
ATOM     23  C   UNL     1       7.414   7.837  17.776  0.00  0.00    +0.000 C 
BRANCH  23  24
ATOM     24  C   UNL     1       8.264   9.042  17.336  0.00  0.00    +0.000 C 
BRANCH  24  25
ATOM     25  N   UNL     1       8.199  10.125  18.341  0.00  0.00    +0.000 NA
ATOM     26  C   UNL     1       8.477  11.447  17.760  0.00  0.00    +0.000 C 
ATOM     27  C   UNL     1       9.975  11.627  17.906  0.00  0.00    +0.000 C 
ATOM     28  C   UNL     1      10.260  11.008  19.257  0.00  0.00    +0.000 C 
ATOM     29  C   UNL     1       9.173   9.961  19.437  0.00  0.00    +0.000 C 
ENDBRANCH  24  25
ENDBRANCH  23  24
ENDBRANCH  22  23
ENDBRANCH   7  22
TORSDOF 7
ENDMDL
MODEL 4
REMARK VINA RESULT:      -6.7      2.224      6.451
REMARK  Name = 
REMARK  7 active torsions:
REMARK  status: ('A' for Active; 'I' for Inactive)
REMARK    1  A    between atoms: C_4  and  C_5
REMARK    2  A    between atoms: C_13  and  O_14
REMARK    3  A    between atoms: O_14  and  C_15
REMARK    4  A    between atoms: C_15  and  C_16
REMARK    5  A    between atoms: C_16  and  N_17
REMARK    6  A    between atoms: C_22  and  O_23
REMARK    7  A    between atoms: C_25  and  O_26
REMARK                            x       y       z     vdW  Elec       q    Type
REMARK                         _______ _______ _______ _____ _____    ______ ____
ROOT
ATOM      1  O   UNL     1       1.958   4.140  22.054  0.00  0.00    +0.000 OA
ATOM      2  C   UNL     1       2.242   4.625  20.962  0.00  0.00    +0.000 A 
ATOM      3  C   UNL     1       1.943   6.037  20.725  0.00  0.00    +0.000 A 
ATOM      4  C   UNL     1       2.225   6.574  19.538  0.00  0.00    +0.000 A 
ATOM      5  O   UNL     1       2.795   5.904  18.474  0.00  0.00    +0.000 OA
ATOM      6  C   UNL     1       3.114   4.567  18.637  0.00  0.00    +0.000 A 
ATOM      7  C   UNL     1       3.687   3.901  17.531  0.00  0.00    +0.000 A 
ATOM      8  C   UNL     1       4.023   2.543  17.679  0.00  0.00    +0.000 A 
ATOM      9  C   UNL     1       3.772   1.864  18.872  0.00  0.00    +0.000 A 
ATOM     10  C   UNL     1       3.203   2.529  19.950  0.00  0.00    +0.000 A 
ATOM     11  C   UNL     1       2.867   3.882  19.842  0.00  0.00    +0.000 A 
ENDROOT
BRANCH   4  12
ATOM     12  C   UNL     1       1.917   7.991  19.316  0.00  0.00    +0.000 A 
ATOM     13  C   UNL     1       1.241   8.721  20.301  0.00  0.00    +0.000 A 
ATOM     14  C   UNL     1       0.810  10.024  20.039  0.00  0.00    +0.000 A 
ATOM     15  C   UNL     1       1.056  10.602  18.795  0.00  0.00    +0.000 A 
ATOM     16  C   UNL     1       1.744   9.888  17.814  0.00  0.00    +0.000 A 
ATOM     17  C   UNL     1       2.173   8.584  18.074  0.00  0.00    +0.000 A 
ENDBRANCH   4  12
BRANCH   8  18
ATOM     18  O   UNL     1       4.617   1.760  16.729  0.00  0.00    +0.000 OA
ATOM     19  H   UNL     1       5.565   1.958  16.697  0.00  0.00    +0.000 HD
ENDBRANCH   8  18
BRANCH  10  20
ATOM     20  O   UNL     1       2.990   1.835  21.106  0.00  0.00    +0.000 OA
ATOM     21  H   UNL     1       3.830   1.668  21.563  0.00  0.00    +0.000 HD
ENDBRANCH  10  20
BRANCH   7  22
ATOM     22  O   UNL     1       3.869   4.676  16.406  0.00  0.00    +0.000 OA
BRANCH  22  23
ATOM     23  C   UNL     1       5.179   4.689  15.841  0.00  0.00    +0.000 C 
BRANCH  23  24
ATOM     24  C   UNL     1       5.856   6.067  15.936  0.00  0.00    +0.000 C 
BRANCH  24  25
ATOM     25  N   UNL     1       7.236   5.940  16.452  0.00  0.00    +0.000 NA
ATOM     26  C   UNL     1       7.490   4.627  17.061  0.00  0.00    +0.000 C 
ATOM     27  C   UNL     1       7.135   4.804  18.525  0.00  0.00    +0.000 C 
ATOM     28  C   UNL     1       7.634   6.200  18.826  0.00  0.00    +0.000 C 
ATOM     29  C   UNL     1       7.559   6.932  17.497  0.00  0.00    +0.000 C 
ENDBRANCH  24  25
ENDBRANCH  23  24
ENDBRANCH  22  23
ENDBRANCH   7  22
TORSDOF 7
ENDMDL
MODEL 5
REMARK VINA RESULT:      -6.7      5.644      9.867
REMARK  Name = 
REMARK  7 active torsions:
REMARK  status: ('A' for Active; 'I' for Inactive)
REMARK    1  A    between atoms: C_4  and  C_5
REMARK    2  A    between atoms: C_13  and  O_14
REMARK    3  A    between atoms: O_14  and  C_15
REMARK    4  A    between atoms: C_15  and  C_16
REMARK    5  A    between atoms: C_16  and  N_17
REMARK    6  A    between atoms: C_22  and  O_23
REMARK    7  A    between atoms: C_25  and  O_26
REMARK                            x       y       z     vdW  Elec       q    Type
REMARK                         _______ _______ _______ _____ _____    ______ ____
ROOT
ATOM      1  O   UNL     1       0.164   9.599  23.776  0.00  0.00    +0.000 OA
ATOM      2  C   UNL     1      -0.364  10.276  22.898  0.00  0.00    +0.000 A 
ATOM      3  C   UNL     1      -1.389  11.246  23.285  0.00  0.00    +0.000 A 
ATOM      4  C   UNL     1      -1.989  11.974  22.343  0.00  0.00    +0.000 A 
ATOM      5  O   UNL     1      -1.725  11.902  20.990  0.00  0.00    +0.000 OA
ATOM      6  C   UNL     1      -0.756  11.013  20.559  0.00  0.00    +0.000 A 
ATOM      7  C   UNL     1      -0.510  10.950  19.169  0.00  0.00    +0.000 A 
ATOM      8  C   UNL     1       0.475  10.057  18.711  0.00  0.00    +0.000 A 
ATOM      9  C   UNL     1       1.169   9.233  19.598  0.00  0.00    +0.000 A 
ATOM     10  C   UNL     1       0.915   9.300  20.962  0.00  0.00    +0.000 A 
ATOM     11  C   UNL     1      -0.049  10.186  21.453  0.00  0.00    +0.000 A 
ENDROOT
BRANCH   4  12
ATOM     12  C   UNL     1      -3.016  12.939  22.748  0.00  0.00    +0.000 A 
ATOM     13  C   UNL     1      -3.982  12.575  23.694  0.00  0.00    +0.000 A 
ATOM     14  C   UNL     1      -5.050  13.431  23.974  0.00  0.00    +0.000 A 
ATOM     15  C   UNL     1      -5.155  14.654  23.312  0.00  0.00    +0.000 A 
ATOM     16  C   UNL     1      -4.187  15.031  22.381  0.00  0.00    +0.000 A 
ATOM     17  C   UNL     1      -3.120  14.175  22.099  0.00  0.00    +0.000 A 
ENDBRANCH   4  12
BRANCH   8  18
ATOM     18  O   UNL     1       0.864   9.896  17.410  0.00  0.00    +0.000 OA
ATOM     19  H   UNL     1       0.620   9.008  17.110  0.00  0.00    +0.000 HD
ENDBRANCH   8  18
BRANCH  10  20
ATOM     20  O   UNL     1       1.629   8.492  21.799  0.00  0.00    +0.000 OA
ATOM     21  H   UNL     1       1.102   7.720  22.060  0.00  0.00    +0.000 HD
ENDBRANCH  10  20
BRANCH   7  22
ATOM     22  O   UNL     1      -1.272  11.801  18.397  0.00  0.00    +0.000 OA
BRANCH  22  23
ATOM     23  C   UNL     1      -2.179  11.195  17.478  0.00  0.00    +0.000 C 
BRANCH  23  24
ATOM     24  C   UNL     1      -3.493  10.749  18.144  0.00  0.00    +0.000 C 
BRANCH  24  25
ATOM     25  N   UNL     1      -4.516  11.814  18.053  0.00  0.00    +0.000 NA
ATOM     26  C   UNL     1      -4.654  12.569  19.307  0.00  0.00    +0.000 C 
ATOM     27  C   UNL     1      -5.727  11.832  20.086  0.00  0.00    +0.000 C 
ATOM     28  C   UNL     1      -6.708  11.425  19.007  0.00  0.00    +0.000 C 
ATOM     29  C   UNL     1      -5.865  11.298  17.749  0.00  0.00    +0.000 C 
ENDBRANCH  24  25
ENDBRANCH  23  24
ENDBRANCH  22  23
ENDBRANCH   7  22
TORSDOF 7
ENDMDL
MODEL 6
REMARK VINA RESULT:      -6.7      2.312      6.500
REMARK  Name = 
REMARK  7 active torsions:
REMARK  status: ('A' for Active; 'I' for Inactive)
REMARK    1  A    between atoms: C_4  and  C_5
REMARK    2  A    between atoms: C_13  and  O_14
REMARK    3  A    between atoms: O_14  and  C_15
REMARK    4  A    between atoms: C_15  and  C_16
REMARK    5  A    between atoms: C_16  and  N_17
REMARK    6  A    between atoms: C_22  and  O_23
REMARK    7  A    between atoms: C_25  and  O_26
REMARK                            x       y       z     vdW  Elec       q    Type
REMARK                         _______ _______ _______ _____ _____    ______ ____
ROOT
ATOM      1  O   UNL     1       2.031   4.540  21.621  0.00  0.00    +0.000 OA
ATOM      2  C   UNL     1       2.324   5.120  20.578  0.00  0.00    +0.000 A 
ATOM      3  C   UNL     1       1.900   6.511  20.408  0.00  0.00    +0.000 A 
ATOM      4  C   UNL     1       2.191   7.148  19.274  0.00  0.00    +0.000 A 
ATOM      5  O   UNL     1       2.882   6.606  18.208  0.00  0.00    +0.000 OA
ATOM      6  C   UNL     1       3.322   5.298  18.311  0.00  0.00    +0.000 A 
ATOM      7  C   UNL     1       4.017   4.763  17.204  0.00  0.00    +0.000 A 
ATOM      8  C   UNL     1       4.478   3.437  17.290  0.00  0.00    +0.000 A 
ATOM      9  C   UNL     1       4.231   2.660  18.424  0.00  0.00    +0.000 A 
ATOM     10  C   UNL     1       3.541   3.197  19.503  0.00  0.00    +0.000 A 
ATOM     11  C   UNL     1       3.079   4.515  19.456  0.00  0.00    +0.000 A 
ENDROOT
BRANCH   4  12
ATOM     12  C   UNL     1       1.757   8.540  19.119  0.00  0.00    +0.000 A 
ATOM     13  C   UNL     1       2.170   9.281  18.006  0.00  0.00    +0.000 A 
ATOM     14  C   UNL     1       1.887  10.647  17.925  0.00  0.00    +0.000 A 
ATOM     15  C   UNL     1       1.189  11.275  18.954  0.00  0.00    +0.000 A 
ATOM     16  C   UNL     1       0.758  10.541  20.059  0.00  0.00    +0.000 A 
ATOM     17  C   UNL     1       1.042   9.176  20.142  0.00  0.00    +0.000 A 
ENDBRANCH   4  12
BRANCH   8  18
ATOM     18  O   UNL     1       5.197   2.777  16.333  0.00  0.00    +0.000 OA
ATOM     19  H   UNL     1       6.132   3.021  16.409  0.00  0.00    +0.000 HD
ENDBRANCH   8  18
BRANCH  10  20
ATOM     20  O   UNL     1       3.336   2.412  20.601  0.00  0.00    +0.000 OA
ATOM     21  H   UNL     1       2.456   2.574  20.978  0.00  0.00    +0.000 HD
ENDBRANCH  10  20
BRANCH   7  22
ATOM     22  O   UNL     1       4.183   5.624  16.140  0.00  0.00    +0.000 OA
BRANCH  22  23
ATOM     23  C   UNL     1       5.522   5.992  15.815  0.00  0.00    +0.000 C 
BRANCH  23  24
ATOM     24  C   UNL     1       6.164   6.903  16.876  0.00  0.00    +0.000 C 
BRANCH  24  25
ATOM     25  N   UNL     1       7.524   6.433  17.218  0.00  0.00    +0.000 NA
ATOM     26  C   UNL     1       7.578   4.980  17.435  0.00  0.00    +0.000 C 
ATOM     27  C   UNL     1       7.321   4.800  18.919  0.00  0.00    +0.000 C 
ATOM     28  C   UNL     1       8.061   5.969  19.533  0.00  0.00    +0.000 C 
ATOM     29  C   UNL     1       8.054   7.039  18.455  0.00  0.00    +0.000 C 
ENDBRANCH  24  25
ENDBRANCH  23  24
ENDBRANCH  22  23
ENDBRANCH   7  22
TORSDOF 7
ENDMDL
MODEL 7
REMARK VINA RESULT:      -6.6      2.515      6.875
REMARK  Name = 
REMARK  7 active torsions:
REMARK  status: ('A' for Active; 'I' for Inactive)
REMARK    1  A    between atoms: C_4  and  C_5
REMARK    2  A    between atoms: C_13  and  O_14
REMARK    3  A    between atoms: O_14  and  C_15
REMARK    4  A    between atoms: C_15  and  C_16
REMARK    5  A    between atoms: C_16  and  N_17
REMARK    6  A    between atoms: C_22  and  O_23
REMARK    7  A    between atoms: C_25  and  O_26
REMARK                            x       y       z     vdW  Elec       q    Type
REMARK                         _______ _______ _______ _____ _____    ______ ____
ROOT
ATOM      1  O   UNL     1       4.862   7.388  15.864  0.00  0.00    +0.000 OA
ATOM      2  C   UNL     1       4.266   7.140  16.909  0.00  0.00    +0.000 A 
ATOM      3  C   UNL     1       3.249   8.083  17.376  0.00  0.00    +0.000 A 
ATOM      4  C   UNL     1       2.608   7.840  18.519  0.00  0.00    +0.000 A 
ATOM      5  O   UNL     1       2.815   6.744  19.332  0.00  0.00    +0.000 OA
ATOM      6  C   UNL     1       3.754   5.806  18.941  0.00  0.00    +0.000 A 
ATOM      7  C   UNL     1       3.954   4.699  19.795  0.00  0.00    +0.000 A 
ATOM      8  C   UNL     1       4.901   3.731  19.412  0.00  0.00    +0.000 A 
ATOM      9  C   UNL     1       5.643   3.874  18.239  0.00  0.00    +0.000 A 
ATOM     10  C   UNL     1       5.441   4.971  17.411  0.00  0.00    +0.000 A 
ATOM     11  C   UNL     1       4.500   5.946  17.755  0.00  0.00    +0.000 A 
ENDROOT
BRANCH   4  12
ATOM     12  C   UNL     1       1.595   8.798  18.974  0.00  0.00    +0.000 A 
ATOM     13  C   UNL     1       1.179   8.793  20.310  0.00  0.00    +0.000 A 
ATOM     14  C   UNL     1       0.111   9.596  20.717  0.00  0.00    +0.000 A 
ATOM     15  C   UNL     1      -0.543  10.407  19.792  0.00  0.00    +0.000 A 
ATOM     16  C   UNL     1      -0.124  10.431  18.462  0.00  0.00    +0.000 A 
ATOM     17  C   UNL     1       0.943   9.628  18.053  0.00  0.00    +0.000 A 
ENDBRANCH   4  12
BRANCH   8  18
ATOM     18  O   UNL     1       5.192   2.584  20.097  0.00  0.00    +0.000 OA
ATOM     19  H   UNL     1       5.410   2.806  21.015  0.00  0.00    +0.000 HD
ENDBRANCH   8  18
BRANCH  10  20
ATOM     20  O   UNL     1       6.173   5.065  16.263  0.00  0.00    +0.000 OA
ATOM     21  H   UNL     1       6.233   4.201  15.824  0.00  0.00    +0.000 HD
ENDBRANCH  10  20
BRANCH   7  22
ATOM     22  O   UNL     1       3.172   4.681  20.930  0.00  0.00    +0.000 OA
BRANCH  22  23
ATOM     23  C   UNL     1       1.786   4.396  20.749  0.00  0.00    +0.000 C 
BRANCH  23  24
ATOM     24  C   UNL     1       1.503   2.892  20.593  0.00  0.00    +0.000 C 
BRANCH  24  25
ATOM     25  N   UNL     1       0.839   2.613  19.301  0.00  0.00    +0.000 NA
ATOM     26  C   UNL     1       1.427   1.459  18.605  0.00  0.00    +0.000 C 
ATOM     27  C   UNL     1       2.517   2.048  17.731  0.00  0.00    +0.000 C 
ATOM     28  C   UNL     1       1.901   3.344  17.251  0.00  0.00    +0.000 C 
ATOM     29  C   UNL     1       0.927   3.738  18.349  0.00  0.00    +0.000 C 
ENDBRANCH  24  25
ENDBRANCH  23  24
ENDBRANCH  22  23
ENDBRANCH   7  22
TORSDOF 7
ENDMDL
MODEL 8
REMARK VINA RESULT:      -6.6      5.557      9.854
REMARK  Name = 
REMARK  7 active torsions:
REMARK  status: ('A' for Active; 'I' for Inactive)
REMARK    1  A    between atoms: C_4  and  C_5
REMARK    2  A    between atoms: C_13  and  O_14
REMARK    3  A    between atoms: O_14  and  C_15
REMARK    4  A    between atoms: C_15  and  C_16
REMARK    5  A    between atoms: C_16  and  N_17
REMARK    6  A    between atoms: C_22  and  O_23
REMARK    7  A    between atoms: C_25  and  O_26
REMARK                            x       y       z     vdW  Elec       q    Type
REMARK                         _______ _______ _______ _____ _____    ______ ____
ROOT
ATOM      1  O   UNL     1       0.239   9.458  23.739  0.00  0.00    +0.000 OA
ATOM      2  C   UNL     1      -0.263  10.169  22.872  0.00  0.00    +0.000 A 
ATOM      3  C   UNL     1      -1.278  11.146  23.269  0.00  0.00    +0.000 A 
ATOM      4  C   UNL     1      -1.848  11.911  22.338  0.00  0.00    +0.000 A 
ATOM      5  O   UNL     1      -1.560  11.873  20.989  0.00  0.00    +0.000 OA
ATOM      6  C   UNL     1      -0.599  10.980  20.549  0.00  0.00    +0.000 A 
ATOM      7  C   UNL     1      -0.330  10.953  19.162  0.00  0.00    +0.000 A 
ATOM      8  C   UNL     1       0.647  10.056  18.696  0.00  0.00    +0.000 A 
ATOM      9  C   UNL     1       1.312   9.195  19.571  0.00  0.00    +0.000 A 
ATOM     10  C   UNL     1       1.034   9.227  20.931  0.00  0.00    +0.000 A 
ATOM     11  C   UNL     1       0.077  10.115  21.431  0.00  0.00    +0.000 A 
ENDROOT
BRANCH   4  12
ATOM     12  C   UNL     1      -2.865  12.882  22.753  0.00  0.00    +0.000 A 
ATOM     13  C   UNL     1      -2.567  13.826  23.744  0.00  0.00    +0.000 A 
ATOM     14  C   UNL     1      -3.571  14.654  24.251  0.00  0.00    +0.000 A 
ATOM     15  C   UNL     1      -4.875  14.544  23.770  0.00  0.00    +0.000 A 
ATOM     16  C   UNL     1      -5.176  13.618  22.771  0.00  0.00    +0.000 A 
ATOM     17  C   UNL     1      -4.174  12.788  22.264  0.00  0.00    +0.000 A 
ENDBRANCH   4  12
BRANCH   8  18
ATOM     18  O   UNL     1       1.057   9.925  17.398  0.00  0.00    +0.000 OA
ATOM     19  H   UNL     1       1.903  10.384  17.282  0.00  0.00    +0.000 HD
ENDBRANCH   8  18
BRANCH  10  20
ATOM     20  O   UNL     1       1.719   8.383  21.757  0.00  0.00    +0.000 OA
ATOM     21  H   UNL     1       1.765   7.493  21.373  0.00  0.00    +0.000 HD
ENDBRANCH  10  20
BRANCH   7  22
ATOM     22  O   UNL     1      -1.063  11.839  18.402  0.00  0.00    +0.000 OA
BRANCH  22  23
ATOM     23  C   UNL     1      -2.183  11.306  17.698  0.00  0.00    +0.000 C 
BRANCH  23  24
ATOM     24  C   UNL     1      -3.518  11.561  18.420  0.00  0.00    +0.000 C 
BRANCH  24  25
ATOM     25  N   UNL     1      -4.647  10.986  17.656  0.00  0.00    +0.000 NA
ATOM     26  C   UNL     1      -5.092  11.866  16.566  0.00  0.00    +0.000 C 
ATOM     27  C   UNL     1      -6.169  12.736  17.185  0.00  0.00    +0.000 C 
ATOM     28  C   UNL     1      -6.893  11.775  18.103  0.00  0.00    +0.000 C 
ATOM     29  C   UNL     1      -5.845  10.743  18.484  0.00  0.00    +0.000 C 
ENDBRANCH  24  25
ENDBRANCH  23  24
ENDBRANCH  22  23
ENDBRANCH   7  22
TORSDOF 7
ENDMDL
MODEL 9
REMARK VINA RESULT:      -6.6      2.192      6.982
REMARK  Name = 
REMARK  7 active torsions:
REMARK  status: ('A' for Active; 'I' for Inactive)
REMARK    1  A    between atoms: C_4  and  C_5
REMARK    2  A    between atoms: C_13  and  O_14
REMARK    3  A    between atoms: O_14  and  C_15
REMARK    4  A    between atoms: C_15  and  C_16
REMARK    5  A    between atoms: C_16  and  N_17
REMARK    6  A    between atoms: C_22  and  O_23
REMARK    7  A    between atoms: C_25  and  O_26
REMARK                            x       y       z     vdW  Elec       q    Type
REMARK                         _______ _______ _______ _____ _____    ______ ____
ROOT
ATOM      1  O   UNL     1       1.444   3.925  21.575  0.00  0.00    +0.000 OA
ATOM      2  C   UNL     1       1.996   4.772  20.877  0.00  0.00    +0.000 A 
ATOM      3  C   UNL     1       1.408   6.110  20.806  0.00  0.00    +0.000 A 
ATOM      4  C   UNL     1       1.982   7.035  20.036  0.00  0.00    +0.000 A 
ATOM      5  O   UNL     1       3.119   6.848  19.276  0.00  0.00    +0.000 OA
ATOM      6  C   UNL     1       3.732   5.608  19.310  0.00  0.00    +0.000 A 
ATOM      7  C   UNL     1       4.888   5.438  18.516  0.00  0.00    +0.000 A 
ATOM      8  C   UNL     1       5.529   4.186  18.540  0.00  0.00    +0.000 A 
ATOM      9  C   UNL     1       5.022   3.132  19.302  0.00  0.00    +0.000 A 
ATOM     10  C   UNL     1       3.881   3.310  20.074  0.00  0.00    +0.000 A 
ATOM     11  C   UNL     1       3.226   4.545  20.082  0.00  0.00    +0.000 A 
ENDROOT
BRANCH   4  12
ATOM     12  C   UNL     1       1.378   8.370  19.974  0.00  0.00    +0.000 A 
ATOM     13  C   UNL     1       0.608   8.839  21.045  0.00  0.00    +0.000 A 
ATOM     14  C   UNL     1      -0.093  10.042  20.934  0.00  0.00    +0.000 A 
ATOM     15  C   UNL     1      -0.026  10.781  19.754  0.00  0.00    +0.000 A 
ATOM     16  C   UNL     1       0.753  10.329  18.688  0.00  0.00    +0.000 A 
ATOM     17  C   UNL     1       1.453   9.126  18.798  0.00  0.00    +0.000 A 
ENDBRANCH   4  12
BRANCH   8  18
ATOM     18  O   UNL     1       6.673   3.862  17.867  0.00  0.00    +0.000 OA
ATOM     19  H   UNL     1       6.526   3.968  16.915  0.00  0.00    +0.000 HD
ENDBRANCH   8  18
BRANCH  10  20
ATOM     20  O   UNL     1       3.429   2.261  20.820  0.00  0.00    +0.000 OA
ATOM     21  H   UNL     1       2.458   2.249  20.839  0.00  0.00    +0.000 HD
ENDBRANCH  10  20
BRANCH   7  22
ATOM     22  O   UNL     1       5.278   6.548  17.798  0.00  0.00    +0.000 OA
BRANCH  22  23
ATOM     23  C   UNL     1       4.632   6.760  16.544  0.00  0.00    +0.000 C 
BRANCH  23  24
ATOM     24  C   UNL     1       5.567   6.528  15.345  0.00  0.00    +0.000 C 
BRANCH  24  25
ATOM     25  N   UNL     1       6.106   5.150  15.358  0.00  0.00    +0.000 NA
ATOM     26  C   UNL     1       7.416   5.053  14.698  0.00  0.00    +0.000 C 
ATOM     27  C   UNL     1       7.098   4.739  13.249  0.00  0.00    +0.000 C 
ATOM     28  C   UNL     1       5.921   3.795  13.359  0.00  0.00    +0.000 C 
ATOM     29  C   UNL     1       5.238   4.180  14.661  0.00  0.00    +0.000 C 
ENDBRANCH  24  25
ENDBRANCH  23  24
ENDBRANCH  22  23
ENDBRANCH   7  22
TORSDOF 7
ENDMDL
