MODEL 1
REMARK VINA RESULT:      -8.5      0.000      0.000
REMARK  Name = 
REMARK  8 active torsions:
REMARK  status: ('A' for Active; 'I' for Inactive)
REMARK    1  A    between atoms: C_1  and  N_2
REMARK    2  A    between atoms: C_6  and  C_7
REMARK    3  A    between atoms: C_7  and  O_8
REMARK    4  A    between atoms: C_7  and  C_9
REMARK    5  A    between atoms: C_7  and  C_16
REMARK    6  A    between atoms: N_22  and  C_23
REMARK    7  A    between atoms: C_23  and  C_24
REMARK    8  A    between atoms: N_33  and  C_34
REMARK                            x       y       z     vdW  Elec       q    Type
REMARK                         _______ _______ _______ _____ _____    ______ ____
ROOT
ATOM      1  C   UNL     1       3.644   4.538  18.098  0.00  0.00    +0.000 A 
ATOM      2  C   UNL     1       4.638   3.995  18.942  0.00  0.00    +0.000 A 
ATOM      3  C   UNL     1       5.723   3.352  18.382  0.00  0.00    +0.000 A 
ATOM      4  C   UNL     1       6.176   4.023  17.275  0.00  0.00    +0.000 A 
ATOM      5  C   UNL     1       5.324   4.390  16.241  0.00  0.00    +0.000 A 
ATOM      6  C   UNL     1       3.984   4.605  16.692  0.00  0.00    +0.000 A 
ATOM      7  N   UNL     1       5.990   5.397  15.411  0.00  0.00    +0.000 N 
ATOM      8  C   UNL     1       6.938   5.990  16.352  0.00  0.00    +0.000 A 
ATOM      9  O   UNL     1       7.523   7.055  16.229  0.00  0.00    +0.000 OA
ATOM     10  N   UNL     1       7.108   5.077  17.402  0.00  0.00    +0.000 N 
ATOM     11  C   UNL     1       7.683   5.441  18.674  0.00  0.00    +0.000 C 
ENDROOT
BRANCH   1  12
ATOM     12  C   UNL     1       2.318   4.941  18.836  0.00  0.00    +0.000 C 
BRANCH  12  13
ATOM     13  C   UNL     1       2.041   6.425  19.108  0.00  0.00    +0.000 A 
ATOM     14  C   UNL     1       2.246   7.401  18.125  0.00  0.00    +0.000 A 
ATOM     15  C   UNL     1       1.944   8.740  18.359  0.00  0.00    +0.000 A 
ATOM     16  C   UNL     1       1.514   9.148  19.617  0.00  0.00    +0.000 A 
ATOM     17 CL   UNL     1       1.120  10.797  19.889  0.00  0.00    +0.000 Cl
ATOM     18  C   UNL     1       1.414   8.228  20.651  0.00  0.00    +0.000 A 
ATOM     19  C   UNL     1       1.673   6.880  20.398  0.00  0.00    +0.000 A 
ENDBRANCH  12  13
BRANCH  12  25
ATOM     20  C   UNL     1       0.661   2.183  19.098  0.00  0.00    +0.000 C 
ATOM     21  N   UNL     1       1.280   2.930  20.164  0.00  0.00    +0.000 N 
ATOM     22  C   UNL     1       1.296   2.491  21.463  0.00  0.00    +0.000 A 
ATOM     23  N   UNL     1       1.940   3.317  22.246  0.00  0.00    +0.000 NA
ATOM     24  C   UNL     1       2.380   4.309  21.417  0.00  0.00    +0.000 A 
ATOM     25  C   UNL     1       1.975   4.123  20.096  0.00  0.00    +0.000 A 
ENDBRANCH  12  25
BRANCH  12  26
ATOM     26  O   UNL     1       1.337   4.542  17.840  0.00  0.00    +0.000 OA
ATOM     27  H   UNL     1       1.005   3.660  18.056  0.00  0.00    +0.000 HD
ENDBRANCH  12  26
ENDBRANCH   1  12
BRANCH   7  28
ATOM     28  C   UNL     1       6.849   5.000  14.275  0.00  0.00    +0.000 C 
BRANCH  28  29
ATOM     29  C   UNL     1       6.439   4.009  13.207  0.00  0.00    +0.000 A 
ATOM     30  C   UNL     1       7.468   3.315  12.518  0.00  0.00    +0.000 A 
ATOM     31  C   UNL     1       7.195   2.487  11.424  0.00  0.00    +0.000 A 
ATOM     32  C   UNL     1       5.884   2.345  10.984  0.00  0.00    +0.000 A 
ATOM     33  C   UNL     1       4.867   3.051  11.629  0.00  0.00    +0.000 A 
ATOM     34 CL   UNL     1       3.254   2.916  11.043  0.00  0.00    +0.000 Cl
ATOM     35  C   UNL     1       5.137   3.887  12.724  0.00  0.00    +0.000 A 
ENDBRANCH  28  29
ENDBRANCH   7  28
TORSDOF 6
ENDMDL
MODEL 2
REMARK VINA RESULT:      -8.3      0.896      1.215
REMARK  Name = 
REMARK  8 active torsions:
REMARK  status: ('A' for Active; 'I' for Inactive)
REMARK    1  A    between atoms: C_1  and  N_2
REMARK    2  A    between atoms: C_6  and  C_7
REMARK    3  A    between atoms: C_7  and  O_8
REMARK    4  A    between atoms: C_7  and  C_9
REMARK    5  A    between atoms: C_7  and  C_16
REMARK    6  A    between atoms: N_22  and  C_23
REMARK    7  A    between atoms: C_23  and  C_24
REMARK    8  A    between atoms: N_33  and  C_34
REMARK                            x       y       z     vdW  Elec       q    Type
REMARK                         _______ _______ _______ _____ _____    ______ ____
ROOT
ATOM      1  C   UNL     1       3.674   4.630  18.341  0.00  0.00    +0.000 A 
ATOM      2  C   UNL     1       4.687   4.181  19.216  0.00  0.00    +0.000 A 
ATOM      3  C   UNL     1       5.817   3.587  18.691  0.00  0.00    +0.000 A 
ATOM      4  C   UNL     1       6.243   4.245  17.567  0.00  0.00    +0.000 A 
ATOM      5  C   UNL     1       5.385   4.522  16.510  0.00  0.00    +0.000 A 
ATOM      6  C   UNL     1       4.028   4.669  16.937  0.00  0.00    +0.000 A 
ATOM      7  N   UNL     1       5.999   5.539  15.653  0.00  0.00    +0.000 N 
ATOM      8  C   UNL     1       6.895   6.223  16.583  0.00  0.00    +0.000 A 
ATOM      9  O   UNL     1       7.415   7.317  16.429  0.00  0.00    +0.000 OA
ATOM     10  N   UNL     1       7.107   5.359  17.667  0.00  0.00    +0.000 N 
ATOM     11  C   UNL     1       7.640   5.803  18.932  0.00  0.00    +0.000 C 
ENDROOT
BRANCH   1  12
ATOM     12  C   UNL     1       2.315   4.975  19.048  0.00  0.00    +0.000 C 
BRANCH  12  13
ATOM     13  C   UNL     1       1.997   6.441  19.372  0.00  0.00    +0.000 A 
ATOM     14  C   UNL     1       2.201   7.460  18.433  0.00  0.00    +0.000 A 
ATOM     15  C   UNL     1       1.863   8.782  18.713  0.00  0.00    +0.000 A 
ATOM     16  C   UNL     1       1.396   9.129  19.976  0.00  0.00    +0.000 A 
ATOM     17 CL   UNL     1       0.957  10.757  20.303  0.00  0.00    +0.000 Cl
ATOM     18  C   UNL     1       1.295   8.167  20.970  0.00  0.00    +0.000 A 
ATOM     19  C   UNL     1       1.591   6.836  20.671  0.00  0.00    +0.000 A 
ENDBRANCH  12  13
BRANCH  12  25
ATOM     20  C   UNL     1       0.604   2.240  19.151  0.00  0.00    +0.000 C 
ATOM     21  N   UNL     1       1.228   2.918  20.259  0.00  0.00    +0.000 N 
ATOM     22  C   UNL     1       1.225   2.409  21.533  0.00  0.00    +0.000 A 
ATOM     23  N   UNL     1       1.879   3.180  22.363  0.00  0.00    +0.000 NA
ATOM     24  C   UNL     1       2.344   4.206  21.592  0.00  0.00    +0.000 A 
ATOM     25  C   UNL     1       1.946   4.098  20.260  0.00  0.00    +0.000 A 
ENDBRANCH  12  25
BRANCH  12  26
ATOM     26  O   UNL     1       1.377   4.600  18.003  0.00  0.00    +0.000 OA
ATOM     27  H   UNL     1       1.248   5.351  17.407  0.00  0.00    +0.000 HD
ENDBRANCH  12  26
ENDBRANCH   1  12
BRANCH   7  28
ATOM     28  C   UNL     1       6.896   5.157  14.542  0.00  0.00    +0.000 C 
BRANCH  28  29
ATOM     29  C   UNL     1       6.466   4.332  13.349  0.00  0.00    +0.000 A 
ATOM     30  C   UNL     1       5.073   4.154  13.136  0.00  0.00    +0.000 A 
ATOM     31  C   UNL     1       4.582   3.297  12.145  0.00  0.00    +0.000 A 
ATOM     32  C   UNL     1       5.474   2.586  11.352  0.00  0.00    +0.000 A 
ATOM     33  C   UNL     1       6.845   2.722  11.576  0.00  0.00    +0.000 A 
ATOM     34 CL   UNL     1       7.944   1.795  10.629  0.00  0.00    +0.000 Cl
ATOM     35  C   UNL     1       7.343   3.578  12.572  0.00  0.00    +0.000 A 
ENDBRANCH  28  29
ENDBRANCH   7  28
TORSDOF 6
ENDMDL
MODEL 3
REMARK VINA RESULT:      -8.0      0.951      1.081
REMARK  Name = 
REMARK  8 active torsions:
REMARK  status: ('A' for Active; 'I' for Inactive)
REMARK    1  A    between atoms: C_1  and  N_2
REMARK    2  A    between atoms: C_6  and  C_7
REMARK    3  A    between atoms: C_7  and  O_8
REMARK    4  A    between atoms: C_7  and  C_9
REMARK    5  A    between atoms: C_7  and  C_16
REMARK    6  A    between atoms: N_22  and  C_23
REMARK    7  A    between atoms: C_23  and  C_24
REMARK    8  A    between atoms: N_33  and  C_34
REMARK                            x       y       z     vdW  Elec       q    Type
REMARK                         _______ _______ _______ _____ _____    ______ ____
ROOT
ATOM      1  C   UNL     1       3.950   4.789  18.389  0.00  0.00    +0.000 A 
ATOM      2  C   UNL     1       4.840   4.356  19.395  0.00  0.00    +0.000 A 
ATOM      3  C   UNL     1       6.050   3.800  19.033  0.00  0.00    +0.000 A 
ATOM      4  C   UNL     1       6.613   4.485  17.988  0.00  0.00    +0.000 A 
ATOM      5  C   UNL     1       5.908   4.753  16.821  0.00  0.00    +0.000 A 
ATOM      6  C   UNL     1       4.500   4.857  17.051  0.00  0.00    +0.000 A 
ATOM      7  N   UNL     1       6.608   5.798  16.070  0.00  0.00    +0.000 N 
ATOM      8  C   UNL     1       7.342   6.493  17.126  0.00  0.00    +0.000 A 
ATOM      9  O   UNL     1       7.846   7.603  17.058  0.00  0.00    +0.000 OA
ATOM     10  N   UNL     1       7.421   5.621  18.221  0.00  0.00    +0.000 N 
ATOM     11  C   UNL     1       7.755   6.062  19.553  0.00  0.00    +0.000 C 
ENDROOT
BRANCH   1  12
ATOM     12  C   UNL     1       2.494   5.087  18.897  0.00  0.00    +0.000 C 
BRANCH  12  13
ATOM     13  C   UNL     1       2.088   6.540  19.176  0.00  0.00    +0.000 A 
ATOM     14  C   UNL     1       2.202   7.534  18.197  0.00  0.00    +0.000 A 
ATOM     15  C   UNL     1       1.783   8.841  18.439  0.00  0.00    +0.000 A 
ATOM     16  C   UNL     1       1.325   9.204  19.700  0.00  0.00    +0.000 A 
ATOM     17 CL   UNL     1       0.787  10.811  19.980  0.00  0.00    +0.000 Cl
ATOM     18  C   UNL     1       1.311   8.275  20.730  0.00  0.00    +0.000 A 
ATOM     19  C   UNL     1       1.687   6.956  20.470  0.00  0.00    +0.000 A 
ENDBRANCH  12  13
BRANCH  12  25
ATOM     20  C   UNL     1       0.753   2.373  18.753  0.00  0.00    +0.000 C 
ATOM     21  N   UNL     1       1.259   3.020  19.937  0.00  0.00    +0.000 N 
ATOM     22  C   UNL     1       1.111   2.486  21.192  0.00  0.00    +0.000 A 
ATOM     23  N   UNL     1       1.678   3.230  22.105  0.00  0.00    +0.000 NA
ATOM     24  C   UNL     1       2.236   4.266  21.412  0.00  0.00    +0.000 A 
ATOM     25  C   UNL     1       1.986   4.191  20.042  0.00  0.00    +0.000 A 
ENDBRANCH  12  25
BRANCH  12  26
ATOM     26  O   UNL     1       1.726   4.691  17.728  0.00  0.00    +0.000 OA
ATOM     27  H   UNL     1       0.869   4.345  18.014  0.00  0.00    +0.000 HD
ENDBRANCH  12  26
ENDBRANCH   1  12
BRANCH   7  28
ATOM     28  C   UNL     1       7.666   5.455  15.096  0.00  0.00    +0.000 C 
BRANCH  28  29
ATOM     29  C   UNL     1       7.398   4.917  13.708  0.00  0.00    +0.000 A 
ATOM     30  C   UNL     1       7.972   5.607  12.608  0.00  0.00    +0.000 A 
ATOM     31  C   UNL     1       7.668   5.269  11.285  0.00  0.00    +0.000 A 
ATOM     32  C   UNL     1       6.771   4.239  11.031  0.00  0.00    +0.000 A 
ATOM     33  C   UNL     1       6.171   3.577  12.103  0.00  0.00    +0.000 A 
ATOM     34 CL   UNL     1       5.017   2.340  11.781  0.00  0.00    +0.000 Cl
ATOM     35  C   UNL     1       6.468   3.915  13.432  0.00  0.00    +0.000 A 
ENDBRANCH  28  29
ENDBRANCH   7  28
TORSDOF 6
ENDMDL
MODEL 4
REMARK VINA RESULT:      -7.9      1.158      1.418
REMARK  Name = 
REMARK  8 active torsions:
REMARK  status: ('A' for Active; 'I' for Inactive)
REMARK    1  A    between atoms: C_1  and  N_2
REMARK    2  A    between atoms: C_6  and  C_7
REMARK    3  A    between atoms: C_7  and  O_8
REMARK    4  A    between atoms: C_7  and  C_9
REMARK    5  A    between atoms: C_7  and  C_16
REMARK    6  A    between atoms: N_22  and  C_23
REMARK    7  A    between atoms: C_23  and  C_24
REMARK    8  A    between atoms: N_33  and  C_34
REMARK                            x       y       z     vdW  Elec       q    Type
REMARK                         _______ _______ _______ _____ _____    ______ ____
ROOT
ATOM      1  C   UNL     1       3.688   4.746  18.298  0.00  0.00    +0.000 A 
ATOM      2  C   UNL     1       4.848   5.089  19.027  0.00  0.00    +0.000 A 
ATOM      3  C   UNL     1       6.079   4.651  18.582  0.00  0.00    +0.000 A 
ATOM      4  C   UNL     1       6.175   4.753  17.219  0.00  0.00    +0.000 A 
ATOM      5  C   UNL     1       5.210   4.219  16.374  0.00  0.00    +0.000 A 
ATOM      6  C   UNL     1       3.917   4.179  16.985  0.00  0.00    +0.000 A 
ATOM      7  N   UNL     1       5.372   4.800  15.039  0.00  0.00    +0.000 N 
ATOM      8  C   UNL     1       6.029   6.071  15.336  0.00  0.00    +0.000 A 
ATOM      9  O   UNL     1       6.121   7.039  14.597  0.00  0.00    +0.000 OA
ATOM     10  N   UNL     1       6.598   5.957  16.612  0.00  0.00    +0.000 N 
ATOM     11  C   UNL     1       7.020   7.097  17.389  0.00  0.00    +0.000 C 
ENDROOT
BRANCH   1  12
ATOM     12  C   UNL     1       2.342   5.007  19.063  0.00  0.00    +0.000 C 
BRANCH  12  13
ATOM     13  C   UNL     1       1.970   6.446  19.443  0.00  0.00    +0.000 A 
ATOM     14  C   UNL     1       2.192   7.515  18.566  0.00  0.00    +0.000 A 
ATOM     15  C   UNL     1       1.805   8.813  18.895  0.00  0.00    +0.000 A 
ATOM     16  C   UNL     1       1.270   9.085  20.149  0.00  0.00    +0.000 A 
ATOM     17 CL   UNL     1       0.773  10.683  20.534  0.00  0.00    +0.000 Cl
ATOM     18  C   UNL     1       1.147   8.071  21.088  0.00  0.00    +0.000 A 
ATOM     19  C   UNL     1       1.492   6.764  20.738  0.00  0.00    +0.000 A 
ENDBRANCH  12  13
BRANCH  12  25
ATOM     20  C   UNL     1       0.655   2.256  19.167  0.00  0.00    +0.000 C 
ATOM     21  N   UNL     1       1.347   2.893  20.258  0.00  0.00    +0.000 N 
ATOM     22  C   UNL     1       1.432   2.334  21.507  0.00  0.00    +0.000 A 
ATOM     23  N   UNL     1       2.135   3.075  22.324  0.00  0.00    +0.000 NA
ATOM     24  C   UNL     1       2.543   4.135  21.566  0.00  0.00    +0.000 A 
ATOM     25  C   UNL     1       2.059   4.078  20.260  0.00  0.00    +0.000 A 
ENDBRANCH  12  25
BRANCH  12  26
ATOM     26  O   UNL     1       1.384   4.619  18.040  0.00  0.00    +0.000 OA
ATOM     27  H   UNL     1       0.768   3.973  18.412  0.00  0.00    +0.000 HD
ENDBRANCH  12  26
ENDBRANCH   1  12
BRANCH   7  28
ATOM     28  C   UNL     1       6.275   4.181  14.045  0.00  0.00    +0.000 C 
BRANCH  28  29
ATOM     29  C   UNL     1       5.800   3.440  12.814  0.00  0.00    +0.000 A 
ATOM     30  C   UNL     1       4.667   3.952  12.129  0.00  0.00    +0.000 A 
ATOM     31  C   UNL     1       4.072   3.262  11.068  0.00  0.00    +0.000 A 
ATOM     32  C   UNL     1       4.589   2.034  10.675  0.00  0.00    +0.000 A 
ATOM     33  C   UNL     1       5.679   1.500  11.365  0.00  0.00    +0.000 A 
ATOM     34 CL   UNL     1       6.280  -0.048  10.910  0.00  0.00    +0.000 Cl
ATOM     35  C   UNL     1       6.277   2.187  12.433  0.00  0.00    +0.000 A 
ENDBRANCH  28  29
ENDBRANCH   7  28
TORSDOF 6
ENDMDL
MODEL 5
REMARK VINA RESULT:      -7.9      6.809     10.240
REMARK  Name = 
REMARK  8 active torsions:
REMARK  status: ('A' for Active; 'I' for Inactive)
REMARK    1  A    between atoms: C_1  and  N_2
REMARK    2  A    between atoms: C_6  and  C_7
REMARK    3  A    between atoms: C_7  and  O_8
REMARK    4  A    between atoms: C_7  and  C_9
REMARK    5  A    between atoms: C_7  and  C_16
REMARK    6  A    between atoms: N_22  and  C_23
REMARK    7  A    between atoms: C_23  and  C_24
REMARK    8  A    between atoms: N_33  and  C_34
REMARK                            x       y       z     vdW  Elec       q    Type
REMARK                         _______ _______ _______ _____ _____    ______ ____
ROOT
ATOM      1  C   UNL     1      -1.574  12.371  22.109  0.00  0.00    +0.000 A 
ATOM      2  C   UNL     1      -0.808  13.416  21.547  0.00  0.00    +0.000 A 
ATOM      3  C   UNL     1       0.552  13.243  21.385  0.00  0.00    +0.000 A 
ATOM      4  C   UNL     1       0.839  11.980  20.937  0.00  0.00    +0.000 A 
ATOM      5  C   UNL     1       0.344  10.847  21.571  0.00  0.00    +0.000 A 
ATOM      6  C   UNL     1      -0.904  11.093  22.226  0.00  0.00    +0.000 A 
ATOM      7  N   UNL     1       0.488   9.698  20.674  0.00  0.00    +0.000 N 
ATOM      8  C   UNL     1       0.501  10.337  19.359  0.00  0.00    +0.000 A 
ATOM      9  O   UNL     1       0.317   9.795  18.280  0.00  0.00    +0.000 OA
ATOM     10  N   UNL     1       0.830  11.685  19.555  0.00  0.00    +0.000 N 
ATOM     11  C   UNL     1       0.602  12.702  18.557  0.00  0.00    +0.000 C 
ENDROOT
BRANCH   1  12
ATOM     12  C   UNL     1      -3.021  12.795  22.548  0.00  0.00    +0.000 C 
BRANCH  12  13
ATOM     13  C   UNL     1      -4.164  12.700  21.529  0.00  0.00    +0.000 A 
ATOM     14  C   UNL     1      -5.506  12.734  21.928  0.00  0.00    +0.000 A 
ATOM     15  C   UNL     1      -6.540  12.700  20.995  0.00  0.00    +0.000 A 
ATOM     16  C   UNL     1      -6.255  12.538  19.644  0.00  0.00    +0.000 A 
ATOM     17 CL   UNL     1      -7.536  12.523  18.499  0.00  0.00    +0.000 Cl
ATOM     18  C   UNL     1      -4.943  12.381  19.222  0.00  0.00    +0.000 A 
ATOM     19  C   UNL     1      -3.907  12.463  20.156  0.00  0.00    +0.000 A 
ENDBRANCH  12  13
BRANCH  12  25
ATOM     20  C   UNL     1      -3.362  15.787  21.383  0.00  0.00    +0.000 C 
ATOM     21  N   UNL     1      -3.297  15.395  22.768  0.00  0.00    +0.000 N 
ATOM     22  C   UNL     1      -3.454  16.288  23.797  0.00  0.00    +0.000 A 
ATOM     23  N   UNL     1      -3.389  15.700  24.963  0.00  0.00    +0.000 NA
ATOM     24  C   UNL     1      -3.211  14.377  24.676  0.00  0.00    +0.000 A 
ATOM     25  C   UNL     1      -3.129  14.133  23.306  0.00  0.00    +0.000 A 
ENDBRANCH  12  25
BRANCH  12  26
ATOM     26  O   UNL     1      -3.302  11.769  23.538  0.00  0.00    +0.000 OA
ATOM     27  H   UNL     1      -3.510  12.191  24.383  0.00  0.00    +0.000 HD
ENDBRANCH  12  26
ENDBRANCH   1  12
BRANCH   7  28
ATOM     28  C   UNL     1       1.726   8.890  20.666  0.00  0.00    +0.000 C 
BRANCH  28  29
ATOM     29  C   UNL     1       1.810   7.473  20.141  0.00  0.00    +0.000 A 
ATOM     30  C   UNL     1       1.271   6.436  20.948  0.00  0.00    +0.000 A 
ATOM     31  C   UNL     1       1.426   5.086  20.614  0.00  0.00    +0.000 A 
ATOM     32  C   UNL     1       2.136   4.741  19.471  0.00  0.00    +0.000 A 
ATOM     33  C   UNL     1       2.703   5.749  18.689  0.00  0.00    +0.000 A 
ATOM     34 CL   UNL     1       3.630   5.313  17.305  0.00  0.00    +0.000 Cl
ATOM     35  C   UNL     1       2.555   7.105  19.022  0.00  0.00    +0.000 A 
ENDBRANCH  28  29
ENDBRANCH   7  28
TORSDOF 6
ENDMDL
MODEL 6
REMARK VINA RESULT:      -7.9      6.681     10.270
REMARK  Name = 
REMARK  8 active torsions:
REMARK  status: ('A' for Active; 'I' for Inactive)
REMARK    1  A    between atoms: C_1  and  N_2
REMARK    2  A    between atoms: C_6  and  C_7
REMARK    3  A    between atoms: C_7  and  O_8
REMARK    4  A    between atoms: C_7  and  C_9
REMARK    5  A    between atoms: C_7  and  C_16
REMARK    6  A    between atoms: N_22  and  C_23
REMARK    7  A    between atoms: C_23  and  C_24
REMARK    8  A    between atoms: N_33  and  C_34
REMARK                            x       y       z     vdW  Elec       q    Type
REMARK                         _______ _______ _______ _____ _____    ______ ____
ROOT
ATOM      1  C   UNL     1       1.960  13.872  18.534  0.00  0.00    +0.000 A 
ATOM      2  C   UNL     1       0.592  14.182  18.698  0.00  0.00    +0.000 A 
ATOM      3  C   UNL     1      -0.354  13.208  18.454  0.00  0.00    +0.000 A 
ATOM      4  C   UNL     1       0.049  11.994  18.945  0.00  0.00    +0.000 A 
ATOM      5  C   UNL     1       1.293  11.456  18.639  0.00  0.00    +0.000 A 
ATOM      6  C   UNL     1       2.271  12.466  18.375  0.00  0.00    +0.000 A 
ATOM      7  N   UNL     1       1.591  10.376  19.583  0.00  0.00    +0.000 N 
ATOM      8  C   UNL     1       0.781  10.751  20.741  0.00  0.00    +0.000 A 
ATOM      9  O   UNL     1       0.896  10.332  21.882  0.00  0.00    +0.000 OA
ATOM     10  N   UNL     1      -0.207  11.636  20.288  0.00  0.00    +0.000 N 
ATOM     11  C   UNL     1      -0.967  12.485  21.173  0.00  0.00    +0.000 C 
ENDROOT
BRANCH   1  12
ATOM     12  C   UNL     1       2.909  15.123  18.513  0.00  0.00    +0.000 C 
BRANCH  12  13
ATOM     13  C   UNL     1       4.021  15.230  19.564  0.00  0.00    +0.000 A 
ATOM     14  C   UNL     1       5.168  16.002  19.341  0.00  0.00    +0.000 A 
ATOM     15  C   UNL     1       6.151  16.137  20.319  0.00  0.00    +0.000 A 
ATOM     16  C   UNL     1       6.052  15.428  21.510  0.00  0.00    +0.000 A 
ATOM     17 CL   UNL     1       7.256  15.622  22.719  0.00  0.00    +0.000 Cl
ATOM     18  C   UNL     1       4.990  14.559  21.718  0.00  0.00    +0.000 A 
ATOM     19  C   UNL     1       3.984  14.463  20.754  0.00  0.00    +0.000 A 
ENDBRANCH  12  13
BRANCH  12  25
ATOM     20  C   UNL     1       1.440  16.915  20.760  0.00  0.00    +0.000 C 
ATOM     21  N   UNL     1       1.613  17.239  19.367  0.00  0.00    +0.000 N 
ATOM     22  C   UNL     1       1.218  18.438  18.831  0.00  0.00    +0.000 A 
ATOM     23  N   UNL     1       1.506  18.519  17.558  0.00  0.00    +0.000 NA
ATOM     24  C   UNL     1       2.135  17.342  17.269  0.00  0.00    +0.000 A 
ATOM     25  C   UNL     1       2.213  16.491  18.371  0.00  0.00    +0.000 A 
ENDBRANCH  12  25
BRANCH  12  26
ATOM     26  O   UNL     1       3.593  14.907  17.248  0.00  0.00    +0.000 OA
ATOM     27  H   UNL     1       2.943  14.672  16.572  0.00  0.00    +0.000 HD
ENDBRANCH  12  26
ENDBRANCH   1  12
BRANCH   7  28
ATOM     28  C   UNL     1       1.163   8.988  19.310  0.00  0.00    +0.000 C 
BRANCH  28  29
ATOM     29  C   UNL     1       2.107   7.870  18.924  0.00  0.00    +0.000 A 
ATOM     30  C   UNL     1       2.323   6.831  19.866  0.00  0.00    +0.000 A 
ATOM     31  C   UNL     1       3.280   5.832  19.658  0.00  0.00    +0.000 A 
ATOM     32  C   UNL     1       4.055   5.858  18.505  0.00  0.00    +0.000 A 
ATOM     33  C   UNL     1       3.881   6.896  17.588  0.00  0.00    +0.000 A 
ATOM     34 CL   UNL     1       4.884   6.954  16.190  0.00  0.00    +0.000 Cl
ATOM     35  C   UNL     1       2.925   7.902  17.795  0.00  0.00    +0.000 A 
ENDBRANCH  28  29
ENDBRANCH   7  28
TORSDOF 6
ENDMDL
MODEL 7
REMARK VINA RESULT:      -7.9      6.453      9.909
REMARK  Name = 
REMARK  8 active torsions:
REMARK  status: ('A' for Active; 'I' for Inactive)
REMARK    1  A    between atoms: C_1  and  N_2
REMARK    2  A    between atoms: C_6  and  C_7
REMARK    3  A    between atoms: C_7  and  O_8
REMARK    4  A    between atoms: C_7  and  C_9
REMARK    5  A    between atoms: C_7  and  C_16
REMARK    6  A    between atoms: N_22  and  C_23
REMARK    7  A    between atoms: C_23  and  C_24
REMARK    8  A    between atoms: N_33  and  C_34
REMARK                            x       y       z     vdW  Elec       q    Type
REMARK                         _______ _______ _______ _____ _____    ______ ____
ROOT
ATOM      1  C   UNL     1       1.556  11.873  19.112  0.00  0.00    +0.000 A 
ATOM      2  C   UNL     1       1.414  12.283  20.456  0.00  0.00    +0.000 A 
ATOM      3  C   UNL     1       2.290  13.216  20.973  0.00  0.00    +0.000 A 
ATOM      4  C   UNL     1       2.542  14.211  20.065  0.00  0.00    +0.000 A 
ATOM      5  C   UNL     1       2.945  13.933  18.765  0.00  0.00    +0.000 A 
ATOM      6  C   UNL     1       2.455  12.670  18.304  0.00  0.00    +0.000 A 
ATOM      7  N   UNL     1       2.767  15.133  17.944  0.00  0.00    +0.000 N 
ATOM      8  C   UNL     1       1.716  15.845  18.668  0.00  0.00    +0.000 A 
ATOM      9  O   UNL     1       1.020  16.754  18.243  0.00  0.00    +0.000 OA
ATOM     10  N   UNL     1       1.694  15.338  19.975  0.00  0.00    +0.000 N 
ATOM     11  C   UNL     1       0.584  15.534  20.875  0.00  0.00    +0.000 C 
ENDROOT
BRANCH   1  12
ATOM     12  C   UNL     1       0.735  10.587  18.738  0.00  0.00    +0.000 C 
BRANCH  12  13
ATOM     13  C   UNL     1      -0.758  10.728  18.414  0.00  0.00    +0.000 A 
ATOM     14  C   UNL     1      -1.583  11.606  19.128  0.00  0.00    +0.000 A 
ATOM     15  C   UNL     1      -2.926  11.768  18.797  0.00  0.00    +0.000 A 
ATOM     16  C   UNL     1      -3.498  10.984  17.800  0.00  0.00    +0.000 A 
ATOM     17 CL   UNL     1      -5.149  11.210  17.382  0.00  0.00    +0.000 Cl
ATOM     18  C   UNL     1      -2.741  10.018  17.153  0.00  0.00    +0.000 A 
ATOM     19  C   UNL     1      -1.384   9.893  17.456  0.00  0.00    +0.000 A 
ENDBRANCH  12  13
BRANCH  12  25
ATOM     20  C   UNL     1       2.583   7.979  18.292  0.00  0.00    +0.000 C 
ATOM     21  N   UNL     1       1.762   8.277  19.437  0.00  0.00    +0.000 N 
ATOM     22  C   UNL     1       1.732   7.479  20.553  0.00  0.00    +0.000 A 
ATOM     23  N   UNL     1       0.942   7.966  21.475  0.00  0.00    +0.000 NA
ATOM     24  C   UNL     1       0.469   9.133  20.947  0.00  0.00    +0.000 A 
ATOM     25  C   UNL     1       0.942   9.367  19.656  0.00  0.00    +0.000 A 
ENDBRANCH  12  25
BRANCH  12  26
ATOM     26  O   UNL     1       1.370  10.233  17.479  0.00  0.00    +0.000 OA
ATOM     27  H   UNL     1       1.086   9.346  17.218  0.00  0.00    +0.000 HD
ENDBRANCH  12  26
ENDBRANCH   1  12
BRANCH   7  28
ATOM     28  C   UNL     1       3.840  16.143  17.831  0.00  0.00    +0.000 C 
BRANCH  28  29
ATOM     29  C   UNL     1       5.229  15.973  18.405  0.00  0.00    +0.000 A 
ATOM     30  C   UNL     1       5.712  16.981  19.280  0.00  0.00    +0.000 A 
ATOM     31  C   UNL     1       7.030  16.983  19.749  0.00  0.00    +0.000 A 
ATOM     32  C   UNL     1       7.902  15.981  19.341  0.00  0.00    +0.000 A 
ATOM     33  C   UNL     1       7.451  15.005  18.451  0.00  0.00    +0.000 A 
ATOM     34 CL   UNL     1       8.553  13.799  17.905  0.00  0.00    +0.000 Cl
ATOM     35  C   UNL     1       6.131  15.001  17.974  0.00  0.00    +0.000 A 
ENDBRANCH  28  29
ENDBRANCH   7  28
TORSDOF 6
ENDMDL
MODEL 8
REMARK VINA RESULT:      -7.8      6.768     10.459
REMARK  Name = 
REMARK  8 active torsions:
REMARK  status: ('A' for Active; 'I' for Inactive)
REMARK    1  A    between atoms: C_1  and  N_2
REMARK    2  A    between atoms: C_6  and  C_7
REMARK    3  A    between atoms: C_7  and  O_8
REMARK    4  A    between atoms: C_7  and  C_9
REMARK    5  A    between atoms: C_7  and  C_16
REMARK    6  A    between atoms: N_22  and  C_23
REMARK    7  A    between atoms: C_23  and  C_24
REMARK    8  A    between atoms: N_33  and  C_34
REMARK                            x       y       z     vdW  Elec       q    Type
REMARK                         _______ _______ _______ _____ _____    ______ ____
ROOT
ATOM      1  C   UNL     1       1.863  13.976  18.562  0.00  0.00    +0.000 A 
ATOM      2  C   UNL     1       0.494  14.293  18.705  0.00  0.00    +0.000 A 
ATOM      3  C   UNL     1      -0.453  13.314  18.479  0.00  0.00    +0.000 A 
ATOM      4  C   UNL     1      -0.056  12.113  19.007  0.00  0.00    +0.000 A 
ATOM      5  C   UNL     1       1.189  11.565  18.727  0.00  0.00    +0.000 A 
ATOM      6  C   UNL     1       2.172  12.566  18.445  0.00  0.00    +0.000 A 
ATOM      7  N   UNL     1       1.475  10.511  19.703  0.00  0.00    +0.000 N 
ATOM      8  C   UNL     1       0.655  10.919  20.843  0.00  0.00    +0.000 A 
ATOM      9  O   UNL     1       0.760  10.532  21.996  0.00  0.00    +0.000 OA
ATOM     10  N   UNL     1      -0.326  11.793  20.356  0.00  0.00    +0.000 N 
ATOM     11  C   UNL     1      -1.092  12.668  21.211  0.00  0.00    +0.000 C 
ENDROOT
BRANCH   1  12
ATOM     12  C   UNL     1       2.814  15.224  18.515  0.00  0.00    +0.000 C 
BRANCH  12  13
ATOM     13  C   UNL     1       3.966  15.318  19.524  0.00  0.00    +0.000 A 
ATOM     14  C   UNL     1       5.131  16.041  19.240  0.00  0.00    +0.000 A 
ATOM     15  C   UNL     1       6.152  16.166  20.180  0.00  0.00    +0.000 A 
ATOM     16  C   UNL     1       6.070  15.494  21.394  0.00  0.00    +0.000 A 
ATOM     17 CL   UNL     1       7.322  15.676  22.555  0.00  0.00    +0.000 Cl
ATOM     18  C   UNL     1       4.985  14.671  21.662  0.00  0.00    +0.000 A 
ATOM     19  C   UNL     1       3.943  14.586  20.737  0.00  0.00    +0.000 A 
ENDBRANCH  12  13
BRANCH  12  25
ATOM     20  C   UNL     1       1.499  17.033  20.843  0.00  0.00    +0.000 C 
ATOM     21  N   UNL     1       1.586  17.350  19.440  0.00  0.00    +0.000 N 
ATOM     22  C   UNL     1       1.164  18.549  18.925  0.00  0.00    +0.000 A 
ATOM     23  N   UNL     1       1.373  18.624  17.636  0.00  0.00    +0.000 NA
ATOM     24  C   UNL     1       1.976  17.442  17.313  0.00  0.00    +0.000 A 
ATOM     25  C   UNL     1       2.119  16.595  18.412  0.00  0.00    +0.000 A 
ENDBRANCH  12  25
BRANCH  12  26
ATOM     26  O   UNL     1       3.449  15.017  17.224  0.00  0.00    +0.000 OA
ATOM     27  H   UNL     1       3.321  14.098  16.952  0.00  0.00    +0.000 HD
ENDBRANCH  12  26
ENDBRANCH   1  12
BRANCH   7  28
ATOM     28  C   UNL     1       1.047   9.116  19.465  0.00  0.00    +0.000 C 
BRANCH  28  29
ATOM     29  C   UNL     1       2.001   7.962  19.245  0.00  0.00    +0.000 A 
ATOM     30  C   UNL     1       2.768   7.957  18.050  0.00  0.00    +0.000 A 
ATOM     31  C   UNL     1       3.571   6.868  17.693  0.00  0.00    +0.000 A 
ATOM     32  C   UNL     1       3.613   5.750  18.518  0.00  0.00    +0.000 A 
ATOM     33  C   UNL     1       2.834   5.727  19.676  0.00  0.00    +0.000 A 
ATOM     34 CL   UNL     1       2.847   4.317  20.664  0.00  0.00    +0.000 Cl
ATOM     35  C   UNL     1       2.024   6.815  20.036  0.00  0.00    +0.000 A 
ENDBRANCH  28  29
ENDBRANCH   7  28
TORSDOF 6
ENDMDL
MODEL 9
REMARK VINA RESULT:      -7.8      6.553     10.321
REMARK  Name = 
REMARK  8 active torsions:
REMARK  status: ('A' for Active; 'I' for Inactive)
REMARK    1  A    between atoms: C_1  and  N_2
REMARK    2  A    between atoms: C_6  and  C_7
REMARK    3  A    between atoms: C_7  and  O_8
REMARK    4  A    between atoms: C_7  and  C_9
REMARK    5  A    between atoms: C_7  and  C_16
REMARK    6  A    between atoms: N_22  and  C_23
REMARK    7  A    between atoms: C_23  and  C_24
REMARK    8  A    between atoms: N_33  and  C_34
REMARK                            x       y       z     vdW  Elec       q    Type
REMARK                         _______ _______ _______ _____ _____    ______ ____
ROOT
ATOM      1  C   UNL     1       0.731  13.486  20.053  0.00  0.00    +0.000 A 
ATOM      2  C   UNL     1      -0.671  13.553  20.201  0.00  0.00    +0.000 A 
ATOM      3  C   UNL     1      -1.427  12.416  19.995  0.00  0.00    +0.000 A 
ATOM      4  C   UNL     1      -0.818  11.314  20.539  0.00  0.00    +0.000 A 
ATOM      5  C   UNL     1       0.505  10.996  20.260  0.00  0.00    +0.000 A 
ATOM      6  C   UNL     1       1.290  12.153  19.956  0.00  0.00    +0.000 A 
ATOM      7  N   UNL     1       0.981  10.027  21.250  0.00  0.00    +0.000 N 
ATOM      8  C   UNL     1       0.105  10.298  22.388  0.00  0.00    +0.000 A 
ATOM      9  O   UNL     1       0.281   9.955  23.547  0.00  0.00    +0.000 OA
ATOM     10  N   UNL     1      -1.021  10.973  21.895  0.00  0.00    +0.000 N 
ATOM     11  C   UNL     1      -1.929  11.709  22.741  0.00  0.00    +0.000 C 
ENDROOT
BRANCH   1  12
ATOM     12  C   UNL     1       1.441  14.884  19.982  0.00  0.00    +0.000 C 
BRANCH  12  13
ATOM     13  C   UNL     1       2.876  14.963  19.442  0.00  0.00    +0.000 A 
ATOM     14  C   UNL     1       3.139  15.020  18.067  0.00  0.00    +0.000 A 
ATOM     15  C   UNL     1       4.439  15.144  17.584  0.00  0.00    +0.000 A 
ATOM     16  C   UNL     1       5.516  15.120  18.464  0.00  0.00    +0.000 A 
ATOM     17 CL   UNL     1       7.113  15.299  17.859  0.00  0.00    +0.000 Cl
ATOM     18  C   UNL     1       5.301  14.944  19.823  0.00  0.00    +0.000 A 
ATOM     19  C   UNL     1       3.993  14.867  20.307  0.00  0.00    +0.000 A 
ENDBRANCH  12  13
BRANCH  12  25
ATOM     20  C   UNL     1       1.607  18.096  20.265  0.00  0.00    +0.000 C 
ATOM     21  N   UNL     1       1.382  17.140  21.320  0.00  0.00    +0.000 N 
ATOM     22  C   UNL     1       1.127  17.514  22.614  0.00  0.00    +0.000 A 
ATOM     23  N   UNL     1       0.923  16.479  23.387  0.00  0.00    +0.000 NA
ATOM     24  C   UNL     1       1.021  15.400  22.555  0.00  0.00    +0.000 A 
ATOM     25  C   UNL     1       1.327  15.761  21.244  0.00  0.00    +0.000 A 
ENDBRANCH  12  25
BRANCH  12  26
ATOM     26  O   UNL     1       0.617  15.541  18.981  0.00  0.00    +0.000 OA
ATOM     27  H   UNL     1       1.021  16.387  18.742  0.00  0.00    +0.000 HD
ENDBRANCH  12  26
ENDBRANCH   1  12
BRANCH   7  28
ATOM     28  C   UNL     1       0.811   8.574  21.036  0.00  0.00    +0.000 C 
BRANCH  28  29
ATOM     29  C   UNL     1       1.722   7.733  20.168  0.00  0.00    +0.000 A 
ATOM     30  C   UNL     1       2.107   8.260  18.908  0.00  0.00    +0.000 A 
ATOM     31  C   UNL     1       2.830   7.501  17.981  0.00  0.00    +0.000 A 
ATOM     32  C   UNL     1       3.173   6.190  18.288  0.00  0.00    +0.000 A 
ATOM     33  C   UNL     1       2.767   5.647  19.508  0.00  0.00    +0.000 A 
ATOM     34 CL   UNL     1       3.145   4.004  19.860  0.00  0.00    +0.000 Cl
ATOM     35  C   UNL     1       2.038   6.402  20.440  0.00  0.00    +0.000 A 
ENDBRANCH  28  29
ENDBRANCH   7  28
TORSDOF 6
ENDMDL
