MODEL 1
REMARK VINA RESULT:      -7.1      0.000      0.000
REMARK  Name = 
REMARK  12 active torsions:
REMARK  status: ('A' for Active; 'I' for Inactive)
REMARK    1  A    between atoms: C_1  and  C_2
REMARK    2  A    between atoms: C_7  and  C_8
REMARK    3  A    between atoms: C_11  and  C_12
REMARK    4  A    between atoms: C_13  and  C_14
REMARK    5  A    between atoms: C_13  and  C_15
REMARK    6  A    between atoms: C_15  and  C_16
REMARK    7  A    between atoms: C_20  and  S_21
REMARK    8  A    between atoms: S_21  and  C_22
REMARK    9  A    between atoms: C_22  and  C_23
REMARK   10  A    between atoms: C_23  and  O_24
REMARK   11  A    between atoms: C_23  and  C_25
REMARK   12  A    between atoms: C_25  and  O_26
REMARK                            x       y       z     vdW  Elec       q    Type
REMARK                         _______ _______ _______ _____ _____    ______ ____
ROOT
ATOM      1  C   UNL     1       1.782   7.891  19.004  0.00  0.00    +0.000 C 
ATOM      2  C   UNL     1       1.629   7.955  20.334  0.00  0.00    +0.000 C 
ATOM      3  C   UNL     1       1.034   9.150  20.959  0.00  0.00    +0.000 C 
ATOM      4  O   UNL     1       0.519   8.992  22.056  0.00  0.00    +0.000 OA
ATOM      5  C   UNL     1       1.070  10.435  20.207  0.00  0.00    +0.000 C 
ATOM      6  C   UNL     1       1.417  10.421  18.928  0.00  0.00    +0.000 C 
ATOM      7  C   UNL     1       1.746   9.163  18.198  0.00  0.00    +0.000 C 
ATOM      8  O   UNL     1       1.997   9.202  17.029  0.00  0.00    +0.000 OA
ENDROOT
BRANCH   1   9
ATOM      9  C   UNL     1       1.886   6.595  18.254  0.00  0.00    +0.000 C 
BRANCH   9  22
ATOM     10  C   UNL     1       7.229   5.356  19.442  0.00  0.00    +0.000 C 
ATOM     11  C   UNL     1       6.740   5.112  18.029  0.00  0.00    +0.000 C 
ATOM     12  C   UNL     1       6.984   6.060  17.081  0.00  0.00    +0.000 C 
ATOM     13  C   UNL     1       6.232   7.362  17.259  0.00  0.00    +0.000 C 
ATOM     14  C   UNL     1       4.720   7.057  17.309  0.00  0.00    +0.000 C 
ATOM     15  C   UNL     1       4.408   5.761  18.115  0.00  0.00    +0.000 C 
ATOM     16  C   UNL     1       5.341   4.443  17.908  0.00  0.00    +0.000 C 
ATOM     17  C   UNL     1       5.384   3.657  16.555  0.00  0.00    +0.000 C 
ATOM     18  C   UNL     1       5.015   3.275  18.961  0.00  0.00    +0.000 C 
ATOM     19  C   UNL     1       3.685   3.311  19.749  0.00  0.00    +0.000 C 
ATOM     20  C   UNL     1       3.164   4.738  19.921  0.00  0.00    +0.000 C 
ATOM     21  C   UNL     1       2.288   4.896  21.161  0.00  0.00    +0.000 C 
ATOM     22  C   UNL     1       2.922   5.416  18.465  0.00  0.00    +0.000 C 
ATOM     23  C   UNL     1       2.423   4.409  17.373  0.00  0.00    +0.000 C 
ENDBRANCH   9  22
ENDBRANCH   1   9
BRANCH   5  24
ATOM     24  S   UNL     1       0.594  11.925  20.969  0.00  0.00    +0.000 S 
BRANCH  24  25
ATOM     25  C   UNL     1      -1.209  11.768  21.183  0.00  0.00    +0.000 C 
BRANCH  25  26
ATOM     26  C   UNL     1      -1.650  11.878  22.644  0.00  0.00    +0.000 C 
BRANCH  26  27
ATOM     27  O   UNL     1      -1.040  10.859  23.443  0.00  0.00    +0.000 OA
ATOM     28  H   UNL     1      -1.695  10.553  24.094  0.00  0.00    +0.000 HD
ENDBRANCH  26  27
BRANCH  26  29
ATOM     29  C   UNL     1      -1.309  13.266  23.207  0.00  0.00    +0.000 C 
BRANCH  29  30
ATOM     30  O   UNL     1      -2.427  14.148  23.124  0.00  0.00    +0.000 OA
ATOM     31  H   UNL     1      -2.593  14.333  22.183  0.00  0.00    +0.000 HD
ENDBRANCH  29  30
ENDBRANCH  26  29
ENDBRANCH  25  26
ENDBRANCH  24  25
ENDBRANCH   5  24
TORSDOF 8
ENDMDL
MODEL 2
REMARK VINA RESULT:      -7.0      1.384      1.843
REMARK  Name = 
REMARK  12 active torsions:
REMARK  status: ('A' for Active; 'I' for Inactive)
REMARK    1  A    between atoms: C_1  and  C_2
REMARK    2  A    between atoms: C_7  and  C_8
REMARK    3  A    between atoms: C_11  and  C_12
REMARK    4  A    between atoms: C_13  and  C_14
REMARK    5  A    between atoms: C_13  and  C_15
REMARK    6  A    between atoms: C_15  and  C_16
REMARK    7  A    between atoms: C_20  and  S_21
REMARK    8  A    between atoms: S_21  and  C_22
REMARK    9  A    between atoms: C_22  and  C_23
REMARK   10  A    between atoms: C_23  and  O_24
REMARK   11  A    between atoms: C_23  and  C_25
REMARK   12  A    between atoms: C_25  and  O_26
REMARK                            x       y       z     vdW  Elec       q    Type
REMARK                         _______ _______ _______ _____ _____    ______ ____
ROOT
ATOM      1  C   UNL     1       1.777   7.858  19.072  0.00  0.00    +0.000 C 
ATOM      2  C   UNL     1       1.619   7.855  20.403  0.00  0.00    +0.000 C 
ATOM      3  C   UNL     1       0.969   8.992  21.079  0.00  0.00    +0.000 C 
ATOM      4  O   UNL     1       0.459   8.761  22.166  0.00  0.00    +0.000 OA
ATOM      5  C   UNL     1       0.948  10.310  20.386  0.00  0.00    +0.000 C 
ATOM      6  C   UNL     1       1.298  10.371  19.110  0.00  0.00    +0.000 C 
ATOM      7  C   UNL     1       1.685   9.163  18.325  0.00  0.00    +0.000 C 
ATOM      8  O   UNL     1       1.937   9.266  17.160  0.00  0.00    +0.000 OA
ENDROOT
BRANCH   1   9
ATOM      9  C   UNL     1       1.941   6.604  18.264  0.00  0.00    +0.000 C 
BRANCH   9  22
ATOM     10  C   UNL     1       7.294   5.414  19.460  0.00  0.00    +0.000 C 
ATOM     11  C   UNL     1       6.814   5.183  18.042  0.00  0.00    +0.000 C 
ATOM     12  C   UNL     1       7.050   6.146  17.107  0.00  0.00    +0.000 C 
ATOM     13  C   UNL     1       6.282   7.437  17.299  0.00  0.00    +0.000 C 
ATOM     14  C   UNL     1       4.773   7.113  17.338  0.00  0.00    +0.000 C 
ATOM     15  C   UNL     1       4.473   5.802  18.125  0.00  0.00    +0.000 C 
ATOM     16  C   UNL     1       5.424   4.499  17.905  0.00  0.00    +0.000 C 
ATOM     17  C   UNL     1       5.482   3.732  16.542  0.00  0.00    +0.000 C 
ATOM     18  C   UNL     1       5.107   3.313  18.941  0.00  0.00    +0.000 C 
ATOM     19  C   UNL     1       3.774   3.321  19.724  0.00  0.00    +0.000 C 
ATOM     20  C   UNL     1       3.234   4.740  19.912  0.00  0.00    +0.000 C 
ATOM     21  C   UNL     1       2.351   4.870  21.151  0.00  0.00    +0.000 C 
ATOM     22  C   UNL     1       2.990   5.435  18.464  0.00  0.00    +0.000 C 
ATOM     23  C   UNL     1       2.508   4.437  17.357  0.00  0.00    +0.000 C 
ENDBRANCH   9  22
ENDBRANCH   1   9
BRANCH   5  24
ATOM     24  S   UNL     1       0.404  11.741  21.213  0.00  0.00    +0.000 S 
BRANCH  24  25
ATOM     25  C   UNL     1      -1.041  12.298  20.251  0.00  0.00    +0.000 C 
BRANCH  25  26
ATOM     26  C   UNL     1      -0.882  13.717  19.701  0.00  0.00    +0.000 C 
BRANCH  26  27
ATOM     27  O   UNL     1      -0.045  14.507  20.551  0.00  0.00    +0.000 OA
ATOM     28  H   UNL     1       0.863  14.466  20.204  0.00  0.00    +0.000 HD
ENDBRANCH  26  27
BRANCH  26  29
ATOM     29  C   UNL     1      -0.306  13.681  18.277  0.00  0.00    +0.000 C 
BRANCH  29  30
ATOM     30  O   UNL     1      -1.051  12.801  17.439  0.00  0.00    +0.000 OA
ATOM     31  H   UNL     1      -1.924  13.202  17.284  0.00  0.00    +0.000 HD
ENDBRANCH  29  30
ENDBRANCH  26  29
ENDBRANCH  25  26
ENDBRANCH  24  25
ENDBRANCH   5  24
TORSDOF 8
ENDMDL
MODEL 3
REMARK VINA RESULT:      -7.0      1.283      1.675
REMARK  Name = 
REMARK  12 active torsions:
REMARK  status: ('A' for Active; 'I' for Inactive)
REMARK    1  A    between atoms: C_1  and  C_2
REMARK    2  A    between atoms: C_7  and  C_8
REMARK    3  A    between atoms: C_11  and  C_12
REMARK    4  A    between atoms: C_13  and  C_14
REMARK    5  A    between atoms: C_13  and  C_15
REMARK    6  A    between atoms: C_15  and  C_16
REMARK    7  A    between atoms: C_20  and  S_21
REMARK    8  A    between atoms: S_21  and  C_22
REMARK    9  A    between atoms: C_22  and  C_23
REMARK   10  A    between atoms: C_23  and  O_24
REMARK   11  A    between atoms: C_23  and  C_25
REMARK   12  A    between atoms: C_25  and  O_26
REMARK                            x       y       z     vdW  Elec       q    Type
REMARK                         _______ _______ _______ _____ _____    ______ ____
ROOT
ATOM      1  C   UNL     1       1.789   7.893  18.999  0.00  0.00    +0.000 C 
ATOM      2  C   UNL     1       1.579   7.941  20.321  0.00  0.00    +0.000 C 
ATOM      3  C   UNL     1       0.954   9.127  20.933  0.00  0.00    +0.000 C 
ATOM      4  O   UNL     1       0.393   8.956  22.006  0.00  0.00    +0.000 OA
ATOM      5  C   UNL     1       1.019  10.421  20.199  0.00  0.00    +0.000 C 
ATOM      6  C   UNL     1       1.421  10.423  18.936  0.00  0.00    +0.000 C 
ATOM      7  C   UNL     1       1.784   9.174  18.206  0.00  0.00    +0.000 C 
ATOM      8  O   UNL     1       2.086   9.227  17.050  0.00  0.00    +0.000 OA
ENDROOT
BRANCH   1   9
ATOM      9  C   UNL     1       1.928   6.606  18.239  0.00  0.00    +0.000 C 
BRANCH   9  22
ATOM     10  C   UNL     1       7.267   5.412  19.492  0.00  0.00    +0.000 C 
ATOM     11  C   UNL     1       6.795   5.156  18.075  0.00  0.00    +0.000 C 
ATOM     12  C   UNL     1       7.042   6.100  17.123  0.00  0.00    +0.000 C 
ATOM     13  C   UNL     1       6.279   7.398  17.285  0.00  0.00    +0.000 C 
ATOM     14  C   UNL     1       4.769   7.083  17.321  0.00  0.00    +0.000 C 
ATOM     15  C   UNL     1       4.457   5.789  18.132  0.00  0.00    +0.000 C 
ATOM     16  C   UNL     1       5.402   4.477  17.943  0.00  0.00    +0.000 C 
ATOM     17  C   UNL     1       5.465   3.683  16.595  0.00  0.00    +0.000 C 
ATOM     18  C   UNL     1       5.073   3.313  18.999  0.00  0.00    +0.000 C 
ATOM     19  C   UNL     1       3.735   3.343  19.773  0.00  0.00    +0.000 C 
ATOM     20  C   UNL     1       3.201   4.768  19.930  0.00  0.00    +0.000 C 
ATOM     21  C   UNL     1       2.311   4.927  21.161  0.00  0.00    +0.000 C 
ATOM     22  C   UNL     1       2.970   5.436  18.468  0.00  0.00    +0.000 C 
ATOM     23  C   UNL     1       2.490   4.419  17.377  0.00  0.00    +0.000 C 
ENDBRANCH   9  22
ENDBRANCH   1   9
BRANCH   5  24
ATOM     24  S   UNL     1       0.508  11.901  20.957  0.00  0.00    +0.000 S 
BRANCH  24  25
ATOM     25  C   UNL     1       0.470  13.116  19.598  0.00  0.00    +0.000 C 
BRANCH  25  26
ATOM     26  C   UNL     1      -0.926  13.303  19.000  0.00  0.00    +0.000 C 
BRANCH  26  27
ATOM     27  O   UNL     1      -0.949  12.927  17.619  0.00  0.00    +0.000 OA
ATOM     28  H   UNL     1      -0.320  13.496  17.141  0.00  0.00    +0.000 HD
ENDBRANCH  26  27
BRANCH  26  29
ATOM     29  C   UNL     1      -1.962  12.487  19.787  0.00  0.00    +0.000 C 
BRANCH  29  30
ATOM     30  O   UNL     1      -2.797  13.332  20.576  0.00  0.00    +0.000 OA
ATOM     31  H   UNL     1      -3.721  13.063  20.427  0.00  0.00    +0.000 HD
ENDBRANCH  29  30
ENDBRANCH  26  29
ENDBRANCH  25  26
ENDBRANCH  24  25
ENDBRANCH   5  24
TORSDOF 8
ENDMDL
MODEL 4
REMARK VINA RESULT:      -7.0      1.296      1.907
REMARK  Name = 
REMARK  12 active torsions:
REMARK  status: ('A' for Active; 'I' for Inactive)
REMARK    1  A    between atoms: C_1  and  C_2
REMARK    2  A    between atoms: C_7  and  C_8
REMARK    3  A    between atoms: C_11  and  C_12
REMARK    4  A    between atoms: C_13  and  C_14
REMARK    5  A    between atoms: C_13  and  C_15
REMARK    6  A    between atoms: C_15  and  C_16
REMARK    7  A    between atoms: C_20  and  S_21
REMARK    8  A    between atoms: S_21  and  C_22
REMARK    9  A    between atoms: C_22  and  C_23
REMARK   10  A    between atoms: C_23  and  O_24
REMARK   11  A    between atoms: C_23  and  C_25
REMARK   12  A    between atoms: C_25  and  O_26
REMARK                            x       y       z     vdW  Elec       q    Type
REMARK                         _______ _______ _______ _____ _____    ______ ____
ROOT
ATOM      1  C   UNL     1       1.770   7.913  19.009  0.00  0.00    +0.000 C 
ATOM      2  C   UNL     1       1.541   7.928  20.329  0.00  0.00    +0.000 C 
ATOM      3  C   UNL     1       0.895   9.093  20.960  0.00  0.00    +0.000 C 
ATOM      4  O   UNL     1       0.321   8.891  22.020  0.00  0.00    +0.000 OA
ATOM      5  C   UNL     1       0.957  10.404  20.256  0.00  0.00    +0.000 C 
ATOM      6  C   UNL     1       1.376  10.440  19.000  0.00  0.00    +0.000 C 
ATOM      7  C   UNL     1       1.762   9.212  18.246  0.00  0.00    +0.000 C 
ATOM      8  O   UNL     1       2.079   9.295  17.096  0.00  0.00    +0.000 OA
ENDROOT
BRANCH   1   9
ATOM      9  C   UNL     1       1.932   6.646  18.221  0.00  0.00    +0.000 C 
BRANCH   9  22
ATOM     10  C   UNL     1       7.262   5.417  19.479  0.00  0.00    +0.000 C 
ATOM     11  C   UNL     1       6.788   5.160  18.062  0.00  0.00    +0.000 C 
ATOM     12  C   UNL     1       7.043   6.100  17.108  0.00  0.00    +0.000 C 
ATOM     13  C   UNL     1       6.289   7.404  17.267  0.00  0.00    +0.000 C 
ATOM     14  C   UNL     1       4.777   7.099  17.303  0.00  0.00    +0.000 C 
ATOM     15  C   UNL     1       4.455   5.810  18.117  0.00  0.00    +0.000 C 
ATOM     16  C   UNL     1       5.391   4.490  17.932  0.00  0.00    +0.000 C 
ATOM     17  C   UNL     1       5.449   3.693  16.586  0.00  0.00    +0.000 C 
ATOM     18  C   UNL     1       5.053   3.332  18.991  0.00  0.00    +0.000 C 
ATOM     19  C   UNL     1       3.715   3.374  19.764  0.00  0.00    +0.000 C 
ATOM     20  C   UNL     1       3.192   4.802  19.918  0.00  0.00    +0.000 C 
ATOM     21  C   UNL     1       2.302   4.971  21.147  0.00  0.00    +0.000 C 
ATOM     22  C   UNL     1       2.966   5.468  18.454  0.00  0.00    +0.000 C 
ATOM     23  C   UNL     1       2.479   4.452  17.365  0.00  0.00    +0.000 C 
ENDBRANCH   9  22
ENDBRANCH   1   9
BRANCH   5  24
ATOM     24  S   UNL     1       0.420  11.861  21.041  0.00  0.00    +0.000 S 
BRANCH  24  25
ATOM     25  C   UNL     1      -0.537  12.738  19.761  0.00  0.00    +0.000 C 
BRANCH  25  26
ATOM     26  C   UNL     1      -1.938  12.155  19.556  0.00  0.00    +0.000 C 
BRANCH  26  27
ATOM     27  O   UNL     1      -2.942  13.163  19.717  0.00  0.00    +0.000 OA
ATOM     28  H   UNL     1      -3.728  12.887  19.215  0.00  0.00    +0.000 HD
ENDBRANCH  26  27
BRANCH  26  29
ATOM     29  C   UNL     1      -2.054  11.509  18.168  0.00  0.00    +0.000 C 
BRANCH  29  30
ATOM     30  O   UNL     1      -2.087  10.086  18.259  0.00  0.00    +0.000 OA
ATOM     31  H   UNL     1      -2.408   9.851  19.147  0.00  0.00    +0.000 HD
ENDBRANCH  29  30
ENDBRANCH  26  29
ENDBRANCH  25  26
ENDBRANCH  24  25
ENDBRANCH   5  24
TORSDOF 8
ENDMDL
MODEL 5
REMARK VINA RESULT:      -7.0      3.227      8.948
REMARK  Name = 
REMARK  12 active torsions:
REMARK  status: ('A' for Active; 'I' for Inactive)
REMARK    1  A    between atoms: C_1  and  C_2
REMARK    2  A    between atoms: C_7  and  C_8
REMARK    3  A    between atoms: C_11  and  C_12
REMARK    4  A    between atoms: C_13  and  C_14
REMARK    5  A    between atoms: C_13  and  C_15
REMARK    6  A    between atoms: C_15  and  C_16
REMARK    7  A    between atoms: C_20  and  S_21
REMARK    8  A    between atoms: S_21  and  C_22
REMARK    9  A    between atoms: C_22  and  C_23
REMARK   10  A    between atoms: C_23  and  O_24
REMARK   11  A    between atoms: C_23  and  C_25
REMARK   12  A    between atoms: C_25  and  O_26
REMARK                            x       y       z     vdW  Elec       q    Type
REMARK                         _______ _______ _______ _____ _____    ______ ____
ROOT
ATOM      1  C   UNL     1       2.235   7.757  18.641  0.00  0.00    +0.000 C 
ATOM      2  C   UNL     1       3.213   7.954  17.747  0.00  0.00    +0.000 C 
ATOM      3  C   UNL     1       4.175   6.879  17.445  0.00  0.00    +0.000 C 
ATOM      4  O   UNL     1       4.733   6.935  16.359  0.00  0.00    +0.000 OA
ATOM      5  C   UNL     1       4.371   5.801  18.453  0.00  0.00    +0.000 C 
ATOM      6  C   UNL     1       3.524   5.709  19.468  0.00  0.00    +0.000 C 
ATOM      7  C   UNL     1       2.358   6.626  19.628  0.00  0.00    +0.000 C 
ATOM      8  O   UNL     1       1.592   6.462  20.531  0.00  0.00    +0.000 OA
ENDROOT
BRANCH   1   9
ATOM      9  C   UNL     1       0.958   8.546  18.645  0.00  0.00    +0.000 C 
BRANCH   9  22
ATOM     10  C   UNL     1      -2.984  12.033  20.595  0.00  0.00    +0.000 C 
ATOM     11  C   UNL     1      -2.344  12.358  19.261  0.00  0.00    +0.000 C 
ATOM     12  C   UNL     1      -2.987  11.984  18.119  0.00  0.00    +0.000 C 
ATOM     13  C   UNL     1      -3.054  10.491  17.875  0.00  0.00    +0.000 C 
ATOM     14  C   UNL     1      -1.617   9.926  17.868  0.00  0.00    +0.000 C 
ATOM     15  C   UNL     1      -0.722  10.584  18.961  0.00  0.00    +0.000 C 
ATOM     16  C   UNL     1      -0.799  12.193  19.198  0.00  0.00    +0.000 C 
ATOM     17  C   UNL     1      -0.325  13.218  18.114  0.00  0.00    +0.000 C 
ATOM     18  C   UNL     1       0.024  12.673  20.492  0.00  0.00    +0.000 C 
ATOM     19  C   UNL     1       1.074  11.729  21.119  0.00  0.00    +0.000 C 
ATOM     20  C   UNL     1       0.747  10.259  20.856  0.00  0.00    +0.000 C 
ATOM     21  C   UNL     1       1.319   9.331  21.925  0.00  0.00    +0.000 C 
ATOM     22  C   UNL     1       0.693   9.983  19.256  0.00  0.00    +0.000 C 
ATOM     23  C   UNL     1       1.723  10.829  18.433  0.00  0.00    +0.000 C 
ENDBRANCH   9  22
ENDBRANCH   1   9
BRANCH   5  24
ATOM     24  S   UNL     1       5.646   4.632  18.269  0.00  0.00    +0.000 S 
BRANCH  24  25
ATOM     25  C   UNL     1       5.128   3.617  16.846  0.00  0.00    +0.000 C 
BRANCH  25  26
ATOM     26  C   UNL     1       5.996   3.839  15.605  0.00  0.00    +0.000 C 
BRANCH  26  27
ATOM     27  O   UNL     1       5.297   4.607  14.620  0.00  0.00    +0.000 OA
ATOM     28  H   UNL     1       4.476   4.134  14.396  0.00  0.00    +0.000 HD
ENDBRANCH  26  27
BRANCH  26  29
ATOM     29  C   UNL     1       7.310   4.538  15.985  0.00  0.00    +0.000 C 
BRANCH  29  30
ATOM     30  O   UNL     1       7.382   5.846  15.423  0.00  0.00    +0.000 OA
ATOM     31  H   UNL     1       7.871   5.785  14.584  0.00  0.00    +0.000 HD
ENDBRANCH  29  30
ENDBRANCH  26  29
ENDBRANCH  25  26
ENDBRANCH  24  25
ENDBRANCH   5  24
TORSDOF 8
ENDMDL
MODEL 6
REMARK VINA RESULT:      -6.9      3.401      8.467
REMARK  Name = 
REMARK  12 active torsions:
REMARK  status: ('A' for Active; 'I' for Inactive)
REMARK    1  A    between atoms: C_1  and  C_2
REMARK    2  A    between atoms: C_7  and  C_8
REMARK    3  A    between atoms: C_11  and  C_12
REMARK    4  A    between atoms: C_13  and  C_14
REMARK    5  A    between atoms: C_13  and  C_15
REMARK    6  A    between atoms: C_15  and  C_16
REMARK    7  A    between atoms: C_20  and  S_21
REMARK    8  A    between atoms: S_21  and  C_22
REMARK    9  A    between atoms: C_22  and  C_23
REMARK   10  A    between atoms: C_23  and  O_24
REMARK   11  A    between atoms: C_23  and  C_25
REMARK   12  A    between atoms: C_25  and  O_26
REMARK                            x       y       z     vdW  Elec       q    Type
REMARK                         _______ _______ _______ _____ _____    ______ ____
ROOT
ATOM      1  C   UNL     1       2.507   7.445  18.147  0.00  0.00    +0.000 C 
ATOM      2  C   UNL     1       3.543   7.708  17.340  0.00  0.00    +0.000 C 
ATOM      3  C   UNL     1       4.497   6.645  16.980  0.00  0.00    +0.000 C 
ATOM      4  O   UNL     1       5.122   6.800  15.942  0.00  0.00    +0.000 OA
ATOM      5  C   UNL     1       4.605   5.458  17.874  0.00  0.00    +0.000 C 
ATOM      6  C   UNL     1       3.695   5.282  18.820  0.00  0.00    +0.000 C 
ATOM      7  C   UNL     1       2.542   6.210  19.010  0.00  0.00    +0.000 C 
ATOM      8  O   UNL     1       1.718   5.973  19.843  0.00  0.00    +0.000 OA
ENDROOT
BRANCH   1   9
ATOM      9  C   UNL     1       1.251   8.267  18.163  0.00  0.00    +0.000 C 
BRANCH   9  22
ATOM     10  C   UNL     1      -2.742  11.630  20.224  0.00  0.00    +0.000 C 
ATOM     11  C   UNL     1      -1.988  12.092  18.993  0.00  0.00    +0.000 C 
ATOM     12  C   UNL     1      -2.546  11.883  17.768  0.00  0.00    +0.000 C 
ATOM     13  C   UNL     1      -2.633  10.435  17.335  0.00  0.00    +0.000 C 
ATOM     14  C   UNL     1      -1.216   9.823  17.369  0.00  0.00    +0.000 C 
ATOM     15  C   UNL     1      -0.394  10.311  18.600  0.00  0.00    +0.000 C 
ATOM     16  C   UNL     1      -0.448  11.880  19.029  0.00  0.00    +0.000 C 
ATOM     17  C   UNL     1       0.138  13.012  18.120  0.00  0.00    +0.000 C 
ATOM     18  C   UNL     1       0.280  12.169  20.432  0.00  0.00    +0.000 C 
ATOM     19  C   UNL     1       1.252  11.117  21.016  0.00  0.00    +0.000 C 
ATOM     20  C   UNL     1       0.908   9.703  20.547  0.00  0.00    +0.000 C 
ATOM     21  C   UNL     1       1.367   8.632  21.533  0.00  0.00    +0.000 C 
ATOM     22  C   UNL     1       0.975   9.627  18.925  0.00  0.00    +0.000 C 
ATOM     23  C   UNL     1       2.091  10.529  18.296  0.00  0.00    +0.000 C 
ENDBRANCH   9  22
ENDBRANCH   1   9
BRANCH   5  24
ATOM     24  S   UNL     1       5.862   4.279  17.639  0.00  0.00    +0.000 S 
BRANCH  24  25
ATOM     25  C   UNL     1       7.401   5.256  17.619  0.00  0.00    +0.000 C 
BRANCH  25  26
ATOM     26  C   UNL     1       7.550   6.163  18.843  0.00  0.00    +0.000 C 
BRANCH  26  27
ATOM     27  O   UNL     1       8.355   5.539  19.849  0.00  0.00    +0.000 OA
ATOM     28  H   UNL     1       8.811   6.240  20.347  0.00  0.00    +0.000 HD
ENDBRANCH  26  27
BRANCH  26  29
ATOM     29  C   UNL     1       8.159   7.514  18.440  0.00  0.00    +0.000 C 
BRANCH  29  30
ATOM     30  O   UNL     1       7.737   7.905  17.136  0.00  0.00    +0.000 OA
ATOM     31  H   UNL     1       8.007   7.208  16.512  0.00  0.00    +0.000 HD
ENDBRANCH  29  30
ENDBRANCH  26  29
ENDBRANCH  25  26
ENDBRANCH  24  25
ENDBRANCH   5  24
TORSDOF 8
ENDMDL
MODEL 7
REMARK VINA RESULT:      -6.9      1.642      2.463
REMARK  Name = 
REMARK  12 active torsions:
REMARK  status: ('A' for Active; 'I' for Inactive)
REMARK    1  A    between atoms: C_1  and  C_2
REMARK    2  A    between atoms: C_7  and  C_8
REMARK    3  A    between atoms: C_11  and  C_12
REMARK    4  A    between atoms: C_13  and  C_14
REMARK    5  A    between atoms: C_13  and  C_15
REMARK    6  A    between atoms: C_15  and  C_16
REMARK    7  A    between atoms: C_20  and  S_21
REMARK    8  A    between atoms: S_21  and  C_22
REMARK    9  A    between atoms: C_22  and  C_23
REMARK   10  A    between atoms: C_23  and  O_24
REMARK   11  A    between atoms: C_23  and  C_25
REMARK   12  A    between atoms: C_25  and  O_26
REMARK                            x       y       z     vdW  Elec       q    Type
REMARK                         _______ _______ _______ _____ _____    ______ ____
ROOT
ATOM      1  C   UNL     1       1.761   7.870  19.026  0.00  0.00    +0.000 C 
ATOM      2  C   UNL     1       1.587   7.937  20.353  0.00  0.00    +0.000 C 
ATOM      3  C   UNL     1       0.984   9.134  20.966  0.00  0.00    +0.000 C 
ATOM      4  O   UNL     1       0.452   8.980  22.055  0.00  0.00    +0.000 OA
ATOM      5  C   UNL     1       1.033  10.417  20.211  0.00  0.00    +0.000 C 
ATOM      6  C   UNL     1       1.400  10.400  18.938  0.00  0.00    +0.000 C 
ATOM      7  C   UNL     1       1.738   9.139  18.216  0.00  0.00    +0.000 C 
ATOM      8  O   UNL     1       2.007   9.175  17.051  0.00  0.00    +0.000 OA
ENDROOT
BRANCH   1   9
ATOM      9  C   UNL     1       1.874   6.572  18.280  0.00  0.00    +0.000 C 
BRANCH   9  22
ATOM     10  C   UNL     1       7.234   5.392  19.455  0.00  0.00    +0.000 C 
ATOM     11  C   UNL     1       6.742   5.139  18.044  0.00  0.00    +0.000 C 
ATOM     12  C   UNL     1       6.973   6.086  17.092  0.00  0.00    +0.000 C 
ATOM     13  C   UNL     1       6.209   7.381  17.269  0.00  0.00    +0.000 C 
ATOM     14  C   UNL     1       4.700   7.060  17.325  0.00  0.00    +0.000 C 
ATOM     15  C   UNL     1       4.404   5.763  18.136  0.00  0.00    +0.000 C 
ATOM     16  C   UNL     1       5.350   4.455  17.930  0.00  0.00    +0.000 C 
ATOM     17  C   UNL     1       5.397   3.666  16.579  0.00  0.00    +0.000 C 
ATOM     18  C   UNL     1       5.039   3.287  18.987  0.00  0.00    +0.000 C 
ATOM     19  C   UNL     1       3.712   3.310  19.779  0.00  0.00    +0.000 C 
ATOM     20  C   UNL     1       3.176   4.732  19.949  0.00  0.00    +0.000 C 
ATOM     21  C   UNL     1       2.303   4.885  21.192  0.00  0.00    +0.000 C 
ATOM     22  C   UNL     1       2.923   5.404  18.492  0.00  0.00    +0.000 C 
ATOM     23  C   UNL     1       2.431   4.389  17.404  0.00  0.00    +0.000 C 
ENDBRANCH   9  22
ENDBRANCH   1   9
BRANCH   5  24
ATOM     24  S   UNL     1       0.548  11.910  20.962  0.00  0.00    +0.000 S 
BRANCH  24  25
ATOM     25  C   UNL     1       1.945  13.042  20.661  0.00  0.00    +0.000 C 
BRANCH  25  26
ATOM     26  C   UNL     1       1.710  13.980  19.475  0.00  0.00    +0.000 C 
BRANCH  26  27
ATOM     27  O   UNL     1       1.577  15.337  19.911  0.00  0.00    +0.000 OA
ATOM     28  H   UNL     1       2.467  15.683  20.097  0.00  0.00    +0.000 HD
ENDBRANCH  26  27
BRANCH  26  29
ATOM     29  C   UNL     1       2.857  13.861  18.460  0.00  0.00    +0.000 C 
BRANCH  29  30
ATOM     30  O   UNL     1       2.465  13.095  17.323  0.00  0.00    +0.000 OA
ATOM     31  H   UNL     1       2.126  13.711  16.650  0.00  0.00    +0.000 HD
ENDBRANCH  29  30
ENDBRANCH  26  29
ENDBRANCH  25  26
ENDBRANCH  24  25
ENDBRANCH   5  24
TORSDOF 8
ENDMDL
MODEL 8
REMARK VINA RESULT:      -6.9      1.646      2.073
REMARK  Name = 
REMARK  12 active torsions:
REMARK  status: ('A' for Active; 'I' for Inactive)
REMARK    1  A    between atoms: C_1  and  C_2
REMARK    2  A    between atoms: C_7  and  C_8
REMARK    3  A    between atoms: C_11  and  C_12
REMARK    4  A    between atoms: C_13  and  C_14
REMARK    5  A    between atoms: C_13  and  C_15
REMARK    6  A    between atoms: C_15  and  C_16
REMARK    7  A    between atoms: C_20  and  S_21
REMARK    8  A    between atoms: S_21  and  C_22
REMARK    9  A    between atoms: C_22  and  C_23
REMARK   10  A    between atoms: C_23  and  O_24
REMARK   11  A    between atoms: C_23  and  C_25
REMARK   12  A    between atoms: C_25  and  O_26
REMARK                            x       y       z     vdW  Elec       q    Type
REMARK                         _______ _______ _______ _____ _____    ______ ____
ROOT
ATOM      1  C   UNL     1       1.757   7.904  19.030  0.00  0.00    +0.000 C 
ATOM      2  C   UNL     1       1.572   7.960  20.356  0.00  0.00    +0.000 C 
ATOM      3  C   UNL     1       0.967   9.153  20.975  0.00  0.00    +0.000 C 
ATOM      4  O   UNL     1       0.425   8.990  22.058  0.00  0.00    +0.000 OA
ATOM      5  C   UNL     1       1.027  10.443  20.233  0.00  0.00    +0.000 C 
ATOM      6  C   UNL     1       1.405  10.437  18.963  0.00  0.00    +0.000 C 
ATOM      7  C   UNL     1       1.746   9.182  18.232  0.00  0.00    +0.000 C 
ATOM      8  O   UNL     1       2.026   9.228  17.070  0.00  0.00    +0.000 OA
ENDROOT
BRANCH   1   9
ATOM      9  C   UNL     1       1.873   6.614  18.273  0.00  0.00    +0.000 C 
BRANCH   9  22
ATOM     10  C   UNL     1       7.220   5.382  19.456  0.00  0.00    +0.000 C 
ATOM     11  C   UNL     1       6.727   5.129  18.046  0.00  0.00    +0.000 C 
ATOM     12  C   UNL     1       6.968   6.069  17.090  0.00  0.00    +0.000 C 
ATOM     13  C   UNL     1       6.217   7.373  17.261  0.00  0.00    +0.000 C 
ATOM     14  C   UNL     1       4.705   7.069  17.317  0.00  0.00    +0.000 C 
ATOM     15  C   UNL     1       4.395   5.778  18.133  0.00  0.00    +0.000 C 
ATOM     16  C   UNL     1       5.328   4.459  17.934  0.00  0.00    +0.000 C 
ATOM     17  C   UNL     1       5.367   3.664  16.585  0.00  0.00    +0.000 C 
ATOM     18  C   UNL     1       5.004   3.298  18.995  0.00  0.00    +0.000 C 
ATOM     19  C   UNL     1       3.677   3.339  19.787  0.00  0.00    +0.000 C 
ATOM     20  C   UNL     1       3.156   4.768  19.950  0.00  0.00    +0.000 C 
ATOM     21  C   UNL     1       2.283   4.934  21.191  0.00  0.00    +0.000 C 
ATOM     22  C   UNL     1       2.910   5.436  18.490  0.00  0.00    +0.000 C 
ATOM     23  C   UNL     1       2.408   4.421  17.406  0.00  0.00    +0.000 C 
ENDBRANCH   9  22
ENDBRANCH   1   9
BRANCH   5  24
ATOM     24  S   UNL     1       0.539  11.929  20.994  0.00  0.00    +0.000 S 
BRANCH  24  25
ATOM     25  C   UNL     1       1.833  13.124  20.522  0.00  0.00    +0.000 C 
BRANCH  25  26
ATOM     26  C   UNL     1       1.387  14.083  19.415  0.00  0.00    +0.000 C 
BRANCH  26  27
ATOM     27  O   UNL     1       2.107  13.838  18.202  0.00  0.00    +0.000 OA
ATOM     28  H   UNL     1       1.706  14.377  17.499  0.00  0.00    +0.000 HD
ENDBRANCH  26  27
BRANCH  26  29
ATOM     29  C   UNL     1      -0.123  13.954  19.167  0.00  0.00    +0.000 C 
BRANCH  29  30
ATOM     30  O   UNL     1      -0.670  15.169  18.658  0.00  0.00    +0.000 OA
ATOM     31  H   UNL     1       0.035  15.839  18.662  0.00  0.00    +0.000 HD
ENDBRANCH  29  30
ENDBRANCH  26  29
ENDBRANCH  25  26
ENDBRANCH  24  25
ENDBRANCH   5  24
TORSDOF 8
ENDMDL
MODEL 9
REMARK VINA RESULT:      -6.8      3.400      8.673
REMARK  Name = 
REMARK  12 active torsions:
REMARK  status: ('A' for Active; 'I' for Inactive)
REMARK    1  A    between atoms: C_1  and  C_2
REMARK    2  A    between atoms: C_7  and  C_8
REMARK    3  A    between atoms: C_11  and  C_12
REMARK    4  A    between atoms: C_13  and  C_14
REMARK    5  A    between atoms: C_13  and  C_15
REMARK    6  A    between atoms: C_15  and  C_16
REMARK    7  A    between atoms: C_20  and  S_21
REMARK    8  A    between atoms: S_21  and  C_22
REMARK    9  A    between atoms: C_22  and  C_23
REMARK   10  A    between atoms: C_23  and  O_24
REMARK   11  A    between atoms: C_23  and  C_25
REMARK   12  A    between atoms: C_25  and  O_26
REMARK                            x       y       z     vdW  Elec       q    Type
REMARK                         _______ _______ _______ _____ _____    ______ ____
ROOT
ATOM      1  C   UNL     1       2.230   7.701  18.647  0.00  0.00    +0.000 C 
ATOM      2  C   UNL     1       3.240   7.760  17.769  0.00  0.00    +0.000 C 
ATOM      3  C   UNL     1       4.140   6.607  17.591  0.00  0.00    +0.000 C 
ATOM      4  O   UNL     1       4.727   6.532  16.522  0.00  0.00    +0.000 OA
ATOM      5  C   UNL     1       4.243   5.611  18.694  0.00  0.00    +0.000 C 
ATOM      6  C   UNL     1       3.367   5.660  19.687  0.00  0.00    +0.000 C 
ATOM      7  C   UNL     1       2.257   6.656  19.731  0.00  0.00    +0.000 C 
ATOM      8  O   UNL     1       1.460   6.620  20.622  0.00  0.00    +0.000 OA
ENDROOT
BRANCH   1   9
ATOM      9  C   UNL     1       1.006   8.564  18.545  0.00  0.00    +0.000 C 
BRANCH   9  22
ATOM     10  C   UNL     1      -2.883  12.039  20.620  0.00  0.00    +0.000 C 
ATOM     11  C   UNL     1      -2.276  12.374  19.272  0.00  0.00    +0.000 C 
ATOM     12  C   UNL     1      -2.948  12.008  18.144  0.00  0.00    +0.000 C 
ATOM     13  C   UNL     1      -3.022  10.517  17.890  0.00  0.00    +0.000 C 
ATOM     14  C   UNL     1      -1.587   9.952  17.843  0.00  0.00    +0.000 C 
ATOM     15  C   UNL     1      -0.664  10.601  18.918  0.00  0.00    +0.000 C 
ATOM     16  C   UNL     1      -0.733  12.208  19.170  0.00  0.00    +0.000 C 
ATOM     17  C   UNL     1      -0.286  13.241  18.082  0.00  0.00    +0.000 C 
ATOM     18  C   UNL     1       0.122  12.677  20.446  0.00  0.00    +0.000 C 
ATOM     19  C   UNL     1       1.187  11.728  21.040  0.00  0.00    +0.000 C 
ATOM     20  C   UNL     1       0.852  10.260  20.773  0.00  0.00    +0.000 C 
ATOM     21  C   UNL     1       1.449   9.323  21.821  0.00  0.00    +0.000 C 
ATOM     22  C   UNL     1       0.757   9.997  19.173  0.00  0.00    +0.000 C 
ATOM     23  C   UNL     1       1.768  10.848  18.331  0.00  0.00    +0.000 C 
ENDBRANCH   9  22
ENDBRANCH   1   9
BRANCH   5  24
ATOM     24  S   UNL     1       5.446   4.355  18.650  0.00  0.00    +0.000 S 
BRANCH  24  25
ATOM     25  C   UNL     1       4.680   2.964  19.545  0.00  0.00    +0.000 C 
BRANCH  25  26
ATOM     26  C   UNL     1       3.697   2.167  18.684  0.00  0.00    +0.000 C 
BRANCH  26  27
ATOM     27  O   UNL     1       4.193   0.850  18.422  0.00  0.00    +0.000 OA
ATOM     28  H   UNL     1       3.999   0.295  19.198  0.00  0.00    +0.000 HD
ENDBRANCH  26  27
BRANCH  26  29
ATOM     29  C   UNL     1       2.324   2.089  19.369  0.00  0.00    +0.000 C 
BRANCH  29  30
ATOM     30  O   UNL     1       1.306   1.707  18.446  0.00  0.00    +0.000 OA
ATOM     31  H   UNL     1       0.699   2.460  18.341  0.00  0.00    +0.000 HD
ENDBRANCH  29  30
ENDBRANCH  26  29
ENDBRANCH  25  26
ENDBRANCH  24  25
ENDBRANCH   5  24
TORSDOF 8
ENDMDL
