MODEL 1
REMARK VINA RESULT:      -7.9      0.000      0.000
REMARK  Name = 
REMARK  10 active torsions:
REMARK  status: ('A' for Active; 'I' for Inactive)
REMARK    1  A    between atoms: C_1  and  C_2
REMARK    2  A    between atoms: C_5  and  C_6
REMARK    3  A    between atoms: C_7  and  C_8
REMARK    4  A    between atoms: C_8  and  C_10
REMARK    5  A    between atoms: C_10  and  O_11
REMARK    6  A    between atoms: O_11  and  C_12
REMARK    7  A    between atoms: C_12  and  C_14
REMARK    8  A    between atoms: C_14  and  N_15
REMARK    9  A    between atoms: N_15  and  S_16
REMARK   10  A    between atoms: S_16  and  C_19
REMARK                            x       y       z     vdW  Elec       q    Type
REMARK                         _______ _______ _______ _____ _____    ______ ____
ROOT
ATOM      1  C   UNL     1       4.719   2.983  19.177  0.00  0.00    +0.000 C 
ATOM      2  O   UNL     1       5.048   2.196  20.057  0.00  0.00    +0.000 OA
ENDROOT
BRANCH   1   3
ATOM      3  O   UNL     1       3.964   2.647  18.091  0.00  0.00    +0.000 OA
BRANCH   3   4
ATOM      4  C   UNL     1       2.839   1.809  18.392  0.00  0.00    +0.000 C 
BRANCH   4   5
ATOM      5  C   UNL     1       1.600   2.692  18.557  0.00  0.00    +0.000 C 
ATOM      6  O   UNL     1       0.489   2.259  18.246  0.00  0.00    +0.000 OA
BRANCH   5  13
ATOM      7  C   UNL     1       2.355   7.608  17.686  0.00  0.00    +0.000 C 
ATOM      8  C   UNL     1       2.128   6.483  18.656  0.00  0.00    +0.000 A 
ATOM      9  C   UNL     1       2.069   6.737  20.024  0.00  0.00    +0.000 A 
ATOM     10  C   UNL     1       1.859   5.692  20.921  0.00  0.00    +0.000 A 
ATOM     11  C   UNL     1       1.701   4.368  20.475  0.00  0.00    +0.000 A 
ATOM     12  C   UNL     1       1.477   3.309  21.523  0.00  0.00    +0.000 C 
ATOM     13  C   UNL     1       1.761   4.094  19.088  0.00  0.00    +0.000 A 
ATOM     14  C   UNL     1       1.972   5.165  18.195  0.00  0.00    +0.000 A 
ENDBRANCH   5  13
ENDBRANCH   4   5
ENDBRANCH   3   4
ENDBRANCH   1   3
BRANCH   1  15
ATOM     15  C   UNL     1       5.202   4.415  19.102  0.00  0.00    +0.000 C 
BRANCH  15  16
ATOM     16  N   UNL     1       6.607   4.588  19.506  0.00  0.00    +0.000 NA
ATOM     17  H   UNL     1       7.023   3.838  20.061  0.00  0.00    +0.000 HD
BRANCH  16  18
ATOM     18  S   UNL     1       7.673   5.149  18.344  0.00  0.00    +0.000 S 
ATOM     19  O   UNL     1       8.070   6.469  18.796  0.00  0.00    +0.000 OA
ATOM     20  O   UNL     1       8.643   4.105  18.101  0.00  0.00    +0.000 OA
BRANCH  18  21
ATOM     21  C   UNL     1       6.733   5.374  16.860  0.00  0.00    +0.000 A 
ATOM     22  C   UNL     1       5.869   6.455  16.672  0.00  0.00    +0.000 A 
ATOM     23  C   UNL     1       5.126   6.541  15.489  0.00  0.00    +0.000 A 
ATOM     24  C   UNL     1       5.253   5.557  14.505  0.00  0.00    +0.000 A 
ATOM     25  C   UNL     1       6.125   4.487  14.692  0.00  0.00    +0.000 A 
ATOM     26  C   UNL     1       6.866   4.392  15.869  0.00  0.00    +0.000 A 
ENDBRANCH  18  21
ENDBRANCH  16  18
ENDBRANCH  15  16
ENDBRANCH   1  15
TORSDOF 8
ENDMDL
MODEL 2
REMARK VINA RESULT:      -7.7      0.730      1.247
REMARK  Name = 
REMARK  10 active torsions:
REMARK  status: ('A' for Active; 'I' for Inactive)
REMARK    1  A    between atoms: C_1  and  C_2
REMARK    2  A    between atoms: C_5  and  C_6
REMARK    3  A    between atoms: C_7  and  C_8
REMARK    4  A    between atoms: C_8  and  C_10
REMARK    5  A    between atoms: C_10  and  O_11
REMARK    6  A    between atoms: O_11  and  C_12
REMARK    7  A    between atoms: C_12  and  C_14
REMARK    8  A    between atoms: C_14  and  N_15
REMARK    9  A    between atoms: N_15  and  S_16
REMARK   10  A    between atoms: S_16  and  C_19
REMARK                            x       y       z     vdW  Elec       q    Type
REMARK                         _______ _______ _______ _____ _____    ______ ____
ROOT
ATOM      1  C   UNL     1       4.868   3.317  19.380  0.00  0.00    +0.000 C 
ATOM      2  O   UNL     1       5.172   2.491  20.232  0.00  0.00    +0.000 OA
ENDROOT
BRANCH   1   3
ATOM      3  O   UNL     1       4.224   3.015  18.215  0.00  0.00    +0.000 OA
BRANCH   3   4
ATOM      4  C   UNL     1       2.859   2.606  18.384  0.00  0.00    +0.000 C 
BRANCH   4   5
ATOM      5  C   UNL     1       1.946   3.746  17.925  0.00  0.00    +0.000 C 
ATOM      6  O   UNL     1       1.212   3.591  16.947  0.00  0.00    +0.000 OA
BRANCH   5  13
ATOM      7  C   UNL     1       2.629   8.748  17.902  0.00  0.00    +0.000 C 
ATOM      8  C   UNL     1       2.303   7.488  18.652  0.00  0.00    +0.000 A 
ATOM      9  C   UNL     1       2.031   7.534  20.018  0.00  0.00    +0.000 A 
ATOM     10  C   UNL     1       1.729   6.363  20.710  0.00  0.00    +0.000 A 
ATOM     11  C   UNL     1       1.692   5.118  20.058  0.00  0.00    +0.000 A 
ATOM     12  C   UNL     1       1.355   3.911  20.894  0.00  0.00    +0.000 C 
ATOM     13  C   UNL     1       1.970   5.055  18.672  0.00  0.00    +0.000 A 
ATOM     14  C   UNL     1       2.270   6.251  17.986  0.00  0.00    +0.000 A 
ENDBRANCH   5  13
ENDBRANCH   4   5
ENDBRANCH   3   4
ENDBRANCH   1   3
BRANCH   1  15
ATOM     15  C   UNL     1       5.265   4.776  19.438  0.00  0.00    +0.000 C 
BRANCH  15  16
ATOM     16  N   UNL     1       6.683   4.989  19.773  0.00  0.00    +0.000 NA
ATOM     17  H   UNL     1       7.118   4.309  20.397  0.00  0.00    +0.000 HD
BRANCH  16  18
ATOM     18  S   UNL     1       7.710   5.405  18.517  0.00  0.00    +0.000 S 
ATOM     19  O   UNL     1       8.066   6.790  18.760  0.00  0.00    +0.000 OA
ATOM     20  O   UNL     1       8.713   4.370  18.412  0.00  0.00    +0.000 OA
BRANCH  18  21
ATOM     21  C   UNL     1       6.739   5.374  17.036  0.00  0.00    +0.000 A 
ATOM     22  C   UNL     1       6.792   4.319  16.123  0.00  0.00    +0.000 A 
ATOM     23  C   UNL     1       6.027   4.387  14.953  0.00  0.00    +0.000 A 
ATOM     24  C   UNL     1       5.217   5.498  14.706  0.00  0.00    +0.000 A 
ATOM     25  C   UNL     1       5.159   6.543  15.625  0.00  0.00    +0.000 A 
ATOM     26  C   UNL     1       5.920   6.484  16.791  0.00  0.00    +0.000 A 
ENDBRANCH  18  21
ENDBRANCH  16  18
ENDBRANCH  15  16
ENDBRANCH   1  15
TORSDOF 8
ENDMDL
MODEL 3
REMARK VINA RESULT:      -7.4      2.327      3.819
REMARK  Name = 
REMARK  10 active torsions:
REMARK  status: ('A' for Active; 'I' for Inactive)
REMARK    1  A    between atoms: C_1  and  C_2
REMARK    2  A    between atoms: C_5  and  C_6
REMARK    3  A    between atoms: C_7  and  C_8
REMARK    4  A    between atoms: C_8  and  C_10
REMARK    5  A    between atoms: C_10  and  O_11
REMARK    6  A    between atoms: O_11  and  C_12
REMARK    7  A    between atoms: C_12  and  C_14
REMARK    8  A    between atoms: C_14  and  N_15
REMARK    9  A    between atoms: N_15  and  S_16
REMARK   10  A    between atoms: S_16  and  C_19
REMARK                            x       y       z     vdW  Elec       q    Type
REMARK                         _______ _______ _______ _____ _____    ______ ____
ROOT
ATOM      1  C   UNL     1       3.429   2.573  18.444  0.00  0.00    +0.000 C 
ATOM      2  O   UNL     1       3.584   1.365  18.570  0.00  0.00    +0.000 OA
ENDROOT
BRANCH   1   3
ATOM      3  O   UNL     1       2.829   3.371  19.375  0.00  0.00    +0.000 OA
BRANCH   3   4
ATOM      4  C   UNL     1       2.260   4.576  18.840  0.00  0.00    +0.000 C 
BRANCH   4   5
ATOM      5  C   UNL     1       2.989   5.775  19.450  0.00  0.00    +0.000 C 
ATOM      6  O   UNL     1       4.150   5.653  19.845  0.00  0.00    +0.000 OA
BRANCH   5  13
ATOM      7  C   UNL     1       0.051   8.883  22.133  0.00  0.00    +0.000 C 
ATOM      8  C   UNL     1       0.837   8.598  20.885  0.00  0.00    +0.000 A 
ATOM      9  C   UNL     1       0.891   9.539  19.859  0.00  0.00    +0.000 A 
ATOM     10  C   UNL     1       1.620   9.271  18.703  0.00  0.00    +0.000 A 
ATOM     11  C   UNL     1       2.314   8.058  18.541  0.00  0.00    +0.000 A 
ATOM     12  C   UNL     1       3.075   7.865  17.255  0.00  0.00    +0.000 C 
ATOM     13  C   UNL     1       2.265   7.092  19.574  0.00  0.00    +0.000 A 
ATOM     14  C   UNL     1       1.525   7.381  20.738  0.00  0.00    +0.000 A 
ENDBRANCH   5  13
ENDBRANCH   4   5
ENDBRANCH   3   4
ENDBRANCH   1   3
BRANCH   1  15
ATOM     15  C   UNL     1       3.774   3.342  17.187  0.00  0.00    +0.000 C 
BRANCH  15  16
ATOM     16  N   UNL     1       5.194   3.250  16.809  0.00  0.00    +0.000 NA
ATOM     17  H   UNL     1       5.519   2.353  16.448  0.00  0.00    +0.000 HD
BRANCH  16  18
ATOM     18  S   UNL     1       5.836   4.526  15.934  0.00  0.00    +0.000 S 
ATOM     19  O   UNL     1       6.770   3.918  15.006  0.00  0.00    +0.000 OA
ATOM     20  O   UNL     1       4.733   5.342  15.479  0.00  0.00    +0.000 OA
BRANCH  18  21
ATOM     21  C   UNL     1       6.793   5.490  17.071  0.00  0.00    +0.000 A 
ATOM     22  C   UNL     1       7.346   4.952  18.235  0.00  0.00    +0.000 A 
ATOM     23  C   UNL     1       8.053   5.788  19.107  0.00  0.00    +0.000 A 
ATOM     24  C   UNL     1       8.207   7.145  18.810  0.00  0.00    +0.000 A 
ATOM     25  C   UNL     1       7.664   7.673  17.642  0.00  0.00    +0.000 A 
ATOM     26  C   UNL     1       6.955   6.849  16.770  0.00  0.00    +0.000 A 
ENDBRANCH  18  21
ENDBRANCH  16  18
ENDBRANCH  15  16
ENDBRANCH   1  15
TORSDOF 8
ENDMDL
MODEL 4
REMARK VINA RESULT:      -7.2      2.754      4.632
REMARK  Name = 
REMARK  10 active torsions:
REMARK  status: ('A' for Active; 'I' for Inactive)
REMARK    1  A    between atoms: C_1  and  C_2
REMARK    2  A    between atoms: C_5  and  C_6
REMARK    3  A    between atoms: C_7  and  C_8
REMARK    4  A    between atoms: C_8  and  C_10
REMARK    5  A    between atoms: C_10  and  O_11
REMARK    6  A    between atoms: O_11  and  C_12
REMARK    7  A    between atoms: C_12  and  C_14
REMARK    8  A    between atoms: C_14  and  N_15
REMARK    9  A    between atoms: N_15  and  S_16
REMARK   10  A    between atoms: S_16  and  C_19
REMARK                            x       y       z     vdW  Elec       q    Type
REMARK                         _______ _______ _______ _____ _____    ______ ____
ROOT
ATOM      1  C   UNL     1       1.204   3.937  19.680  0.00  0.00    +0.000 C 
ATOM      2  O   UNL     1       1.118   3.926  18.458  0.00  0.00    +0.000 OA
ENDROOT
BRANCH   1   3
ATOM      3  O   UNL     1       1.007   5.045  20.452  0.00  0.00    +0.000 OA
BRANCH   3   4
ATOM      4  C   UNL     1       2.186   5.839  20.655  0.00  0.00    +0.000 C 
BRANCH   4   5
ATOM      5  C   UNL     1       2.135   7.040  19.707  0.00  0.00    +0.000 C 
ATOM      6  O   UNL     1       2.676   6.975  18.601  0.00  0.00    +0.000 OA
BRANCH   5  13
ATOM      7  C   UNL     1      -0.205   9.666  23.329  0.00  0.00    +0.000 C 
ATOM      8  C   UNL     1       0.296   9.569  21.916  0.00  0.00    +0.000 A 
ATOM      9  C   UNL     1       0.110  10.629  21.031  0.00  0.00    +0.000 A 
ATOM     10  C   UNL     1       0.576  10.536  19.721  0.00  0.00    +0.000 A 
ATOM     11  C   UNL     1       1.239   9.384  19.262  0.00  0.00    +0.000 A 
ATOM     12  C   UNL     1       1.707   9.382  17.830  0.00  0.00    +0.000 C 
ATOM     13  C   UNL     1       1.433   8.298  20.149  0.00  0.00    +0.000 A 
ATOM     14  C   UNL     1       0.957   8.411  21.472  0.00  0.00    +0.000 A 
ENDBRANCH   5  13
ENDBRANCH   4   5
ENDBRANCH   3   4
ENDBRANCH   1   3
BRANCH   1  15
ATOM     15  C   UNL     1       1.657   2.753  20.506  0.00  0.00    +0.000 C 
BRANCH  15  16
ATOM     16  N   UNL     1       3.099   2.757  20.805  0.00  0.00    +0.000 NA
ATOM     17  H   UNL     1       3.378   2.444  21.735  0.00  0.00    +0.000 HD
BRANCH  16  18
ATOM     18  S   UNL     1       4.125   2.156  19.626  0.00  0.00    +0.000 S 
ATOM     19  O   UNL     1       5.262   1.620  20.350  0.00  0.00    +0.000 OA
ATOM     20  O   UNL     1       3.335   1.336  18.736  0.00  0.00    +0.000 OA
BRANCH  18  21
ATOM     21  C   UNL     1       4.712   3.550  18.705  0.00  0.00    +0.000 A 
ATOM     22  C   UNL     1       5.448   4.583  19.289  0.00  0.00    +0.000 A 
ATOM     23  C   UNL     1       5.840   5.673  18.504  0.00  0.00    +0.000 A 
ATOM     24  C   UNL     1       5.501   5.724  17.150  0.00  0.00    +0.000 A 
ATOM     25  C   UNL     1       4.776   4.685  16.570  0.00  0.00    +0.000 A 
ATOM     26  C   UNL     1       4.379   3.597  17.345  0.00  0.00    +0.000 A 
ENDBRANCH  18  21
ENDBRANCH  16  18
ENDBRANCH  15  16
ENDBRANCH   1  15
TORSDOF 8
ENDMDL
MODEL 5
REMARK VINA RESULT:      -7.2      2.128      3.027
REMARK  Name = 
REMARK  10 active torsions:
REMARK  status: ('A' for Active; 'I' for Inactive)
REMARK    1  A    between atoms: C_1  and  C_2
REMARK    2  A    between atoms: C_5  and  C_6
REMARK    3  A    between atoms: C_7  and  C_8
REMARK    4  A    between atoms: C_8  and  C_10
REMARK    5  A    between atoms: C_10  and  O_11
REMARK    6  A    between atoms: O_11  and  C_12
REMARK    7  A    between atoms: C_12  and  C_14
REMARK    8  A    between atoms: C_14  and  N_15
REMARK    9  A    between atoms: N_15  and  S_16
REMARK   10  A    between atoms: S_16  and  C_19
REMARK                            x       y       z     vdW  Elec       q    Type
REMARK                         _______ _______ _______ _____ _____    ______ ____
ROOT
ATOM      1  C   UNL     1       6.839   5.447  19.168  0.00  0.00    +0.000 C 
ATOM      2  O   UNL     1       7.938   5.150  19.622  0.00  0.00    +0.000 OA
ENDROOT
BRANCH   1   3
ATOM      3  O   UNL     1       5.652   5.065  19.722  0.00  0.00    +0.000 OA
BRANCH   3   4
ATOM      4  C   UNL     1       5.152   3.809  19.239  0.00  0.00    +0.000 C 
BRANCH   4   5
ATOM      5  C   UNL     1       3.660   3.959  18.937  0.00  0.00    +0.000 C 
ATOM      6  O   UNL     1       3.046   3.040  18.393  0.00  0.00    +0.000 OA
BRANCH   5  13
ATOM      7  C   UNL     1       2.429   8.714  17.765  0.00  0.00    +0.000 C 
ATOM      8  C   UNL     1       2.367   7.557  18.722  0.00  0.00    +0.000 A 
ATOM      9  C   UNL     1       1.673   7.676  19.924  0.00  0.00    +0.000 A 
ATOM     10  C   UNL     1       1.617   6.602  20.809  0.00  0.00    +0.000 A 
ATOM     11  C   UNL     1       2.250   5.381  20.515  0.00  0.00    +0.000 A 
ATOM     12  C   UNL     1       2.130   4.279  21.535  0.00  0.00    +0.000 C 
ATOM     13  C   UNL     1       2.961   5.246  19.299  0.00  0.00    +0.000 A 
ATOM     14  C   UNL     1       3.005   6.343  18.415  0.00  0.00    +0.000 A 
ENDBRANCH   5  13
ENDBRANCH   4   5
ENDBRANCH   3   4
ENDBRANCH   1   3
BRANCH   1  15
ATOM     15  C   UNL     1       6.636   6.179  17.859  0.00  0.00    +0.000 C 
BRANCH  15  16
ATOM     16  N   UNL     1       6.776   5.319  16.672  0.00  0.00    +0.000 NA
ATOM     17  H   UNL     1       7.099   4.364  16.830  0.00  0.00    +0.000 HD
BRANCH  16  18
ATOM     18  S   UNL     1       5.540   5.366  15.544  0.00  0.00    +0.000 S 
ATOM     19  O   UNL     1       4.568   4.393  16.006  0.00  0.00    +0.000 OA
ATOM     20  O   UNL     1       5.189   6.753  15.338  0.00  0.00    +0.000 OA
BRANCH  18  21
ATOM     21  C   UNL     1       6.212   4.743  14.028  0.00  0.00    +0.000 A 
ATOM     22  C   UNL     1       7.376   5.258  13.453  0.00  0.00    +0.000 A 
ATOM     23  C   UNL     1       7.821   4.743  12.230  0.00  0.00    +0.000 A 
ATOM     24  C   UNL     1       7.109   3.721  11.596  0.00  0.00    +0.000 A 
ATOM     25  C   UNL     1       5.955   3.203  12.180  0.00  0.00    +0.000 A 
ATOM     26  C   UNL     1       5.503   3.713  13.396  0.00  0.00    +0.000 A 
ENDBRANCH  18  21
ENDBRANCH  16  18
ENDBRANCH  15  16
ENDBRANCH   1  15
TORSDOF 8
ENDMDL
MODEL 6
REMARK VINA RESULT:      -7.1      2.928      4.764
REMARK  Name = 
REMARK  10 active torsions:
REMARK  status: ('A' for Active; 'I' for Inactive)
REMARK    1  A    between atoms: C_1  and  C_2
REMARK    2  A    between atoms: C_5  and  C_6
REMARK    3  A    between atoms: C_7  and  C_8
REMARK    4  A    between atoms: C_8  and  C_10
REMARK    5  A    between atoms: C_10  and  O_11
REMARK    6  A    between atoms: O_11  and  C_12
REMARK    7  A    between atoms: C_12  and  C_14
REMARK    8  A    between atoms: C_14  and  N_15
REMARK    9  A    between atoms: N_15  and  S_16
REMARK   10  A    between atoms: S_16  and  C_19
REMARK                            x       y       z     vdW  Elec       q    Type
REMARK                         _______ _______ _______ _____ _____    ______ ____
ROOT
ATOM      1  C   UNL     1       2.195   3.404  21.364  0.00  0.00    +0.000 C 
ATOM      2  O   UNL     1       2.578   2.649  22.250  0.00  0.00    +0.000 OA
ENDROOT
BRANCH   1   3
ATOM      3  O   UNL     1       2.277   4.765  21.428  0.00  0.00    +0.000 OA
BRANCH   3   4
ATOM      4  C   UNL     1       1.401   5.452  20.522  0.00  0.00    +0.000 C 
BRANCH   4   5
ATOM      5  C   UNL     1       2.096   6.729  20.044  0.00  0.00    +0.000 C 
ATOM      6  O   UNL     1       3.189   6.661  19.480  0.00  0.00    +0.000 OA
BRANCH   5  13
ATOM      7  C   UNL     1      -0.322   9.878  23.165  0.00  0.00    +0.000 C 
ATOM      8  C   UNL     1       0.259   9.587  21.809  0.00  0.00    +0.000 A 
ATOM      9  C   UNL     1       0.183  10.538  20.795  0.00  0.00    +0.000 A 
ATOM     10  C   UNL     1       0.721  10.266  19.539  0.00  0.00    +0.000 A 
ATOM     11  C   UNL     1       1.351   9.039  19.265  0.00  0.00    +0.000 A 
ATOM     12  C   UNL     1       1.904   8.841  17.878  0.00  0.00    +0.000 C 
ATOM     13  C   UNL     1       1.433   8.062  20.286  0.00  0.00    +0.000 A 
ATOM     14  C   UNL     1       0.885   8.356  21.551  0.00  0.00    +0.000 A 
ENDBRANCH   5  13
ENDBRANCH   4   5
ENDBRANCH   3   4
ENDBRANCH   1   3
BRANCH   1  15
ATOM     15  C   UNL     1       1.467   2.946  20.120  0.00  0.00    +0.000 C 
BRANCH  15  16
ATOM     16  N   UNL     1       2.342   2.301  19.126  0.00  0.00    +0.000 NA
ATOM     17  H   UNL     1       2.278   1.286  19.045  0.00  0.00    +0.000 HD
BRANCH  16  18
ATOM     18  S   UNL     1       2.453   3.027  17.622  0.00  0.00    +0.000 S 
ATOM     19  O   UNL     1       2.430   1.933  16.669  0.00  0.00    +0.000 OA
ATOM     20  O   UNL     1       1.479   4.094  17.578  0.00  0.00    +0.000 OA
BRANCH  18  21
ATOM     21  C   UNL     1       4.064   3.756  17.528  0.00  0.00    +0.000 A 
ATOM     22  C   UNL     1       4.644   4.149  16.319  0.00  0.00    +0.000 A 
ATOM     23  C   UNL     1       5.939   4.679  16.322  0.00  0.00    +0.000 A 
ATOM     24  C   UNL     1       6.642   4.816  17.522  0.00  0.00    +0.000 A 
ATOM     25  C   UNL     1       6.054   4.433  18.725  0.00  0.00    +0.000 A 
ATOM     26  C   UNL     1       4.766   3.902  18.732  0.00  0.00    +0.000 A 
ENDBRANCH  18  21
ENDBRANCH  16  18
ENDBRANCH  15  16
ENDBRANCH   1  15
TORSDOF 8
ENDMDL
MODEL 7
REMARK VINA RESULT:      -7.1      4.614      7.244
REMARK  Name = 
REMARK  10 active torsions:
REMARK  status: ('A' for Active; 'I' for Inactive)
REMARK    1  A    between atoms: C_1  and  C_2
REMARK    2  A    between atoms: C_5  and  C_6
REMARK    3  A    between atoms: C_7  and  C_8
REMARK    4  A    between atoms: C_8  and  C_10
REMARK    5  A    between atoms: C_10  and  O_11
REMARK    6  A    between atoms: O_11  and  C_12
REMARK    7  A    between atoms: C_12  and  C_14
REMARK    8  A    between atoms: C_14  and  N_15
REMARK    9  A    between atoms: N_15  and  S_16
REMARK   10  A    between atoms: S_16  and  C_19
REMARK                            x       y       z     vdW  Elec       q    Type
REMARK                         _______ _______ _______ _____ _____    ______ ____
ROOT
ATOM      1  C   UNL     1       2.823   7.313  18.434  0.00  0.00    +0.000 C 
ATOM      2  O   UNL     1       3.530   7.624  17.483  0.00  0.00    +0.000 OA
ENDROOT
BRANCH   1   3
ATOM      3  O   UNL     1       2.752   6.055  18.958  0.00  0.00    +0.000 OA
BRANCH   3   4
ATOM      4  C   UNL     1       2.480   5.028  17.992  0.00  0.00    +0.000 C 
BRANCH   4   5
ATOM      5  C   UNL     1       3.625   4.013  18.022  0.00  0.00    +0.000 C 
ATOM      6  O   UNL     1       3.525   2.992  18.704  0.00  0.00    +0.000 OA
BRANCH   5  13
ATOM      7  C   UNL     1       6.077   3.866  13.610  0.00  0.00    +0.000 C 
ATOM      8  C   UNL     1       6.058   4.213  15.073  0.00  0.00    +0.000 A 
ATOM      9  C   UNL     1       7.181   4.777  15.675  0.00  0.00    +0.000 A 
ATOM     10  C   UNL     1       7.161   5.096  17.030  0.00  0.00    +0.000 A 
ATOM     11  C   UNL     1       6.019   4.862  17.819  0.00  0.00    +0.000 A 
ATOM     12  C   UNL     1       6.096   5.244  19.274  0.00  0.00    +0.000 C 
ATOM     13  C   UNL     1       4.873   4.287  17.221  0.00  0.00    +0.000 A 
ATOM     14  C   UNL     1       4.911   3.972  15.847  0.00  0.00    +0.000 A 
ENDBRANCH   5  13
ENDBRANCH   4   5
ENDBRANCH   3   4
ENDBRANCH   1   3
BRANCH   1  15
ATOM     15  C   UNL     1       1.833   8.250  19.093  0.00  0.00    +0.000 C 
BRANCH  15  16
ATOM     16  N   UNL     1       1.455   9.397  18.251  0.00  0.00    +0.000 NA
ATOM     17  H   UNL     1       0.966   9.190  17.380  0.00  0.00    +0.000 HD
BRANCH  16  18
ATOM     18  S   UNL     1       0.786  10.724  19.024  0.00  0.00    +0.000 S 
ATOM     19  O   UNL     1       0.777  10.378  20.433  0.00  0.00    +0.000 OA
ATOM     20  O   UNL     1       1.465  11.902  18.535  0.00  0.00    +0.000 OA
BRANCH  18  21
ATOM     21  C   UNL     1      -0.905  10.814  18.505  0.00  0.00    +0.000 A 
ATOM     22  C   UNL     1      -1.813  11.723  19.052  0.00  0.00    +0.000 A 
ATOM     23  C   UNL     1      -3.144  11.704  18.621  0.00  0.00    +0.000 A 
ATOM     24  C   UNL     1      -3.557  10.788  17.650  0.00  0.00    +0.000 A 
ATOM     25  C   UNL     1      -2.644   9.892  17.099  0.00  0.00    +0.000 A 
ATOM     26  C   UNL     1      -1.317   9.901  17.525  0.00  0.00    +0.000 A 
ENDBRANCH  18  21
ENDBRANCH  16  18
ENDBRANCH  15  16
ENDBRANCH   1  15
TORSDOF 8
ENDMDL
MODEL 8
REMARK VINA RESULT:      -7.1      4.310      7.438
REMARK  Name = 
REMARK  10 active torsions:
REMARK  status: ('A' for Active; 'I' for Inactive)
REMARK    1  A    between atoms: C_1  and  C_2
REMARK    2  A    between atoms: C_5  and  C_6
REMARK    3  A    between atoms: C_7  and  C_8
REMARK    4  A    between atoms: C_8  and  C_10
REMARK    5  A    between atoms: C_10  and  O_11
REMARK    6  A    between atoms: O_11  and  C_12
REMARK    7  A    between atoms: C_12  and  C_14
REMARK    8  A    between atoms: C_14  and  N_15
REMARK    9  A    between atoms: N_15  and  S_16
REMARK   10  A    between atoms: S_16  and  C_19
REMARK                            x       y       z     vdW  Elec       q    Type
REMARK                         _______ _______ _______ _____ _____    ______ ____
ROOT
ATOM      1  C   UNL     1       3.244   7.420  17.854  0.00  0.00    +0.000 C 
ATOM      2  O   UNL     1       4.225   7.568  17.135  0.00  0.00    +0.000 OA
ENDROOT
BRANCH   1   3
ATOM      3  O   UNL     1       3.087   6.389  18.734  0.00  0.00    +0.000 OA
BRANCH   3   4
ATOM      4  C   UNL     1       2.585   5.180  18.143  0.00  0.00    +0.000 C 
BRANCH   4   5
ATOM      5  C   UNL     1       3.692   4.124  18.175  0.00  0.00    +0.000 C 
ATOM      6  O   UNL     1       3.578   3.134  18.899  0.00  0.00    +0.000 OA
BRANCH   5  13
ATOM      7  C   UNL     1       5.959   3.803  13.674  0.00  0.00    +0.000 C 
ATOM      8  C   UNL     1       6.017   4.162  15.132  0.00  0.00    +0.000 A 
ATOM      9  C   UNL     1       7.192   4.666  15.685  0.00  0.00    +0.000 A 
ATOM     10  C   UNL     1       7.243   4.997  17.037  0.00  0.00    +0.000 A 
ATOM     11  C   UNL     1       6.121   4.834  17.871  0.00  0.00    +0.000 A 
ATOM     12  C   UNL     1       6.276   5.223  19.319  0.00  0.00    +0.000 C 
ATOM     13  C   UNL     1       4.922   4.320  17.324  0.00  0.00    +0.000 A 
ATOM     14  C   UNL     1       4.888   3.993  15.953  0.00  0.00    +0.000 A 
ENDBRANCH   5  13
ENDBRANCH   4   5
ENDBRANCH   3   4
ENDBRANCH   1   3
BRANCH   1  15
ATOM     15  C   UNL     1       2.009   8.292  17.788  0.00  0.00    +0.000 C 
BRANCH  15  16
ATOM     16  N   UNL     1       1.608   8.849  19.090  0.00  0.00    +0.000 NA
ATOM     17  H   UNL     1       2.322   8.877  19.820  0.00  0.00    +0.000 HD
BRANCH  16  18
ATOM     18  S   UNL     1       0.700  10.256  19.073  0.00  0.00    +0.000 S 
ATOM     19  O   UNL     1       1.664  11.328  18.908  0.00  0.00    +0.000 OA
ATOM     20  O   UNL     1      -0.388  10.062  18.141  0.00  0.00    +0.000 OA
BRANCH  18  21
ATOM     21  C   UNL     1       0.005  10.432  20.692  0.00  0.00    +0.000 A 
ATOM     22  C   UNL     1       0.154   9.461  21.685  0.00  0.00    +0.000 A 
ATOM     23  C   UNL     1      -0.462   9.652  22.927  0.00  0.00    +0.000 A 
ATOM     24  C   UNL     1      -1.212  10.806  23.170  0.00  0.00    +0.000 A 
ATOM     25  C   UNL     1      -1.347  11.776  22.181  0.00  0.00    +0.000 A 
ATOM     26  C   UNL     1      -0.740  11.592  20.940  0.00  0.00    +0.000 A 
ENDBRANCH  18  21
ENDBRANCH  16  18
ENDBRANCH  15  16
ENDBRANCH   1  15
TORSDOF 8
ENDMDL
MODEL 9
REMARK VINA RESULT:      -7.0      2.768      4.484
REMARK  Name = 
REMARK  10 active torsions:
REMARK  status: ('A' for Active; 'I' for Inactive)
REMARK    1  A    between atoms: C_1  and  C_2
REMARK    2  A    between atoms: C_5  and  C_6
REMARK    3  A    between atoms: C_7  and  C_8
REMARK    4  A    between atoms: C_8  and  C_10
REMARK    5  A    between atoms: C_10  and  O_11
REMARK    6  A    between atoms: O_11  and  C_12
REMARK    7  A    between atoms: C_12  and  C_14
REMARK    8  A    between atoms: C_14  and  N_15
REMARK    9  A    between atoms: N_15  and  S_16
REMARK   10  A    between atoms: S_16  and  C_19
REMARK                            x       y       z     vdW  Elec       q    Type
REMARK                         _______ _______ _______ _____ _____    ______ ____
ROOT
ATOM      1  C   UNL     1       2.040   3.522  21.337  0.00  0.00    +0.000 C 
ATOM      2  O   UNL     1       1.994   2.868  22.372  0.00  0.00    +0.000 OA
ENDROOT
BRANCH   1   3
ATOM      3  O   UNL     1       2.040   4.885  21.290  0.00  0.00    +0.000 OA
BRANCH   3   4
ATOM      4  C   UNL     1       1.564   5.433  20.051  0.00  0.00    +0.000 C 
BRANCH   4   5
ATOM      5  C   UNL     1       2.278   6.763  19.798  0.00  0.00    +0.000 C 
ATOM      6  O   UNL     1       3.413   6.771  19.320  0.00  0.00    +0.000 OA
BRANCH   5  13
ATOM      7  C   UNL     1      -0.033   9.645  23.241  0.00  0.00    +0.000 C 
ATOM      8  C   UNL     1       0.460   9.448  21.835  0.00  0.00    +0.000 A 
ATOM      9  C   UNL     1       0.272  10.443  20.879  0.00  0.00    +0.000 A 
ATOM     10  C   UNL     1       0.729  10.257  19.576  0.00  0.00    +0.000 A 
ATOM     11  C   UNL     1       1.386   9.073  19.195  0.00  0.00    +0.000 A 
ATOM     12  C   UNL     1       1.845   8.969  17.764  0.00  0.00    +0.000 C 
ATOM     13  C   UNL     1       1.581   8.052  20.155  0.00  0.00    +0.000 A 
ATOM     14  C   UNL     1       1.114   8.259  21.469  0.00  0.00    +0.000 A 
ENDBRANCH   5  13
ENDBRANCH   4   5
ENDBRANCH   3   4
ENDBRANCH   1   3
BRANCH   1  15
ATOM     15  C   UNL     1       1.985   2.915  19.951  0.00  0.00    +0.000 C 
BRANCH  15  16
ATOM     16  N   UNL     1       3.312   2.648  19.370  0.00  0.00    +0.000 NA
ATOM     17  H   UNL     1       3.777   1.786  19.657  0.00  0.00    +0.000 HD
BRANCH  16  18
ATOM     18  S   UNL     1       3.495   2.920  17.728  0.00  0.00    +0.000 S 
ATOM     19  O   UNL     1       4.018   1.677  17.193  0.00  0.00    +0.000 OA
ATOM     20  O   UNL     1       2.263   3.499  17.241  0.00  0.00    +0.000 OA
BRANCH  18  21
ATOM     21  C   UNL     1       4.773   4.133  17.554  0.00  0.00    +0.000 A 
ATOM     22  C   UNL     1       5.686   4.418  18.572  0.00  0.00    +0.000 A 
ATOM     23  C   UNL     1       6.640   5.422  18.376  0.00  0.00    +0.000 A 
ATOM     24  C   UNL     1       6.682   6.127  17.170  0.00  0.00    +0.000 A 
ATOM     25  C   UNL     1       5.778   5.831  16.153  0.00  0.00    +0.000 A 
ATOM     26  C   UNL     1       4.821   4.835  16.342  0.00  0.00    +0.000 A 
ENDBRANCH  18  21
ENDBRANCH  16  18
ENDBRANCH  15  16
ENDBRANCH   1  15
TORSDOF 8
ENDMDL
