MODEL 1
REMARK VINA RESULT:      -8.0      0.000      0.000
REMARK  Name = 
REMARK  4 active torsions:
REMARK  status: ('A' for Active; 'I' for Inactive)
REMARK    1  A    between atoms: C_1  and  C_2
REMARK    2  A    between atoms: C_7  and  C_9
REMARK    3  A    between atoms: N_12  and  C_13
REMARK    4  A    between atoms: C_22  and  N_23
REMARK                            x       y       z     vdW  Elec       q    Type
REMARK                         _______ _______ _______ _____ _____    ______ ____
ROOT
ATOM      1  C   UNL     1       7.168   6.925  17.951  0.00  0.00    +0.000 A 
ATOM      2  S   UNL     1       7.456   5.685  19.105  0.00  0.00    +0.000 S 
ATOM      3  C   UNL     1       6.054   4.843  18.550  0.00  0.00    +0.000 A 
ATOM      4  N   UNL     1       5.663   3.695  19.149  0.00  0.00    +0.000 N 
ATOM      5  N   UNL     1       5.451   5.412  17.532  0.00  0.00    +0.000 NA
ATOM      6  C   UNL     1       6.074   6.571  17.194  0.00  0.00    +0.000 A 
ATOM      7  H   UNL     1       6.316   3.201  19.746  0.00  0.00    +0.000 HD
ENDROOT
BRANCH   1  14
ATOM      8  C   UNL     1      10.777  12.420  17.335  0.00  0.00    +0.000 C 
ATOM      9  C   UNL     1      10.252  11.516  18.368  0.00  0.00    +0.000 A 
ATOM     10  C   UNL     1      10.341  11.419  19.736  0.00  0.00    +0.000 A 
ATOM     11  N   UNL     1       9.592  10.354  20.179  0.00  0.00    +0.000 NA
ATOM     12  C   UNL     1       9.120   9.823  19.071  0.00  0.00    +0.000 A 
ATOM     13  N   UNL     1       8.336   8.713  19.002  0.00  0.00    +0.000 N 
ATOM     14  C   UNL     1       8.000   8.104  17.813  0.00  0.00    +0.000 C 
ATOM     15  O   UNL     1       8.354   8.500  16.704  0.00  0.00    +0.000 OA
ATOM     16  O   UNL     1       9.473  10.485  17.936  0.00  0.00    +0.000 OA
ATOM     17  H   UNL     1       8.050   8.323  19.886  0.00  0.00    +0.000 HD
ENDBRANCH   1  14
BRANCH   4  18
ATOM     18  C   UNL     1       4.353   3.163  19.169  0.00  0.00    +0.000 A 
ATOM     19  C   UNL     1       3.536   3.170  20.310  0.00  0.00    +0.000 A 
ATOM     20  C   UNL     1       2.237   2.661  20.265  0.00  0.00    +0.000 A 
ATOM     21 CL   UNL     1       1.269   2.671  21.691  0.00  0.00    +0.000 Cl
ATOM     22  C   UNL     1       1.718   2.145  19.082  0.00  0.00    +0.000 A 
ATOM     23  C   UNL     1       2.510   2.134  17.933  0.00  0.00    +0.000 A 
ATOM     24  C   UNL     1       3.807   2.643  17.988  0.00  0.00    +0.000 A 
ATOM     25  F   UNL     1       4.555   2.622  16.871  0.00  0.00    +0.000 F 
ENDBRANCH   4  18
BRANCH   6  26
ATOM     26  N   UNL     1       5.554   7.264  16.173  0.00  0.00    +0.000 N 
ATOM     27  H   UNL     1       4.877   7.989  16.386  0.00  0.00    +0.000 HD
ATOM     28  H   UNL     1       5.410   6.811  15.271  0.00  0.00    +0.000 HD
ENDBRANCH   6  26
TORSDOF 3
ENDMDL
MODEL 2
REMARK VINA RESULT:      -8.0      7.383      8.067
REMARK  Name = 
REMARK  4 active torsions:
REMARK  status: ('A' for Active; 'I' for Inactive)
REMARK    1  A    between atoms: C_1  and  C_2
REMARK    2  A    between atoms: C_7  and  C_9
REMARK    3  A    between atoms: N_12  and  C_13
REMARK    4  A    between atoms: C_22  and  N_23
REMARK                            x       y       z     vdW  Elec       q    Type
REMARK                         _______ _______ _______ _____ _____    ______ ____
ROOT
ATOM      1  C   UNL     1       0.767   9.281  19.870  0.00  0.00    +0.000 A 
ATOM      2  S   UNL     1       1.248   7.994  20.903  0.00  0.00    +0.000 S 
ATOM      3  C   UNL     1       2.326   7.417  19.681  0.00  0.00    +0.000 A 
ATOM      4  N   UNL     1       3.039   6.285  19.878  0.00  0.00    +0.000 N 
ATOM      5  N   UNL     1       2.373   8.168  18.606  0.00  0.00    +0.000 NA
ATOM      6  C   UNL     1       1.506   9.210  18.712  0.00  0.00    +0.000 A 
ATOM      7  H   UNL     1       3.135   5.917  20.817  0.00  0.00    +0.000 HD
ENDROOT
BRANCH   1  14
ATOM      8  C   UNL     1      -3.873  13.644  21.613  0.00  0.00    +0.000 C 
ATOM      9  C   UNL     1      -2.612  13.070  22.104  0.00  0.00    +0.000 A 
ATOM     10  C   UNL     1      -1.801  13.253  23.198  0.00  0.00    +0.000 A 
ATOM     11  N   UNL     1      -0.736  12.386  23.141  0.00  0.00    +0.000 NA
ATOM     12  C   UNL     1      -0.914  11.747  22.004  0.00  0.00    +0.000 A 
ATOM     13  N   UNL     1      -0.084  10.796  21.497  0.00  0.00    +0.000 N 
ATOM     14  C   UNL     1      -0.227  10.272  20.231  0.00  0.00    +0.000 C 
ATOM     15  O   UNL     1      -1.114  10.592  19.442  0.00  0.00    +0.000 OA
ATOM     16  O   UNL     1      -2.040  12.106  21.329  0.00  0.00    +0.000 OA
ATOM     17  H   UNL     1       0.686  10.525  22.088  0.00  0.00    +0.000 HD
ENDBRANCH   1  14
BRANCH   4  18
ATOM     18  C   UNL     1       3.555   5.435  18.873  0.00  0.00    +0.000 A 
ATOM     19  C   UNL     1       4.910   5.408  18.509  0.00  0.00    +0.000 A 
ATOM     20  C   UNL     1       5.373   4.523  17.533  0.00  0.00    +0.000 A 
ATOM     21 CL   UNL     1       7.040   4.531  17.099  0.00  0.00    +0.000 Cl
ATOM     22  C   UNL     1       4.500   3.639  16.906  0.00  0.00    +0.000 A 
ATOM     23  C   UNL     1       3.151   3.643  17.257  0.00  0.00    +0.000 A 
ATOM     24  C   UNL     1       2.697   4.532  18.232  0.00  0.00    +0.000 A 
ATOM     25  F   UNL     1       1.392   4.522  18.556  0.00  0.00    +0.000 F 
ENDBRANCH   4  18
BRANCH   6  26
ATOM     26  N   UNL     1       1.443  10.054  17.674  0.00  0.00    +0.000 N 
ATOM     27  H   UNL     1       2.106  10.821  17.644  0.00  0.00    +0.000 HD
ATOM     28  H   UNL     1       0.544  10.263  17.241  0.00  0.00    +0.000 HD
ENDBRANCH   6  26
TORSDOF 3
ENDMDL
MODEL 3
REMARK VINA RESULT:      -7.9      7.588      8.138
REMARK  Name = 
REMARK  4 active torsions:
REMARK  status: ('A' for Active; 'I' for Inactive)
REMARK    1  A    between atoms: C_1  and  C_2
REMARK    2  A    between atoms: C_7  and  C_9
REMARK    3  A    between atoms: N_12  and  C_13
REMARK    4  A    between atoms: C_22  and  N_23
REMARK                            x       y       z     vdW  Elec       q    Type
REMARK                         _______ _______ _______ _____ _____    ______ ____
ROOT
ATOM      1  C   UNL     1       0.868   9.748  20.235  0.00  0.00    +0.000 A 
ATOM      2  S   UNL     1       1.267   8.470  21.311  0.00  0.00    +0.000 S 
ATOM      3  C   UNL     1       1.924   7.566  19.993  0.00  0.00    +0.000 A 
ATOM      4  N   UNL     1       2.405   6.319  20.192  0.00  0.00    +0.000 N 
ATOM      5  N   UNL     1       1.907   8.200  18.844  0.00  0.00    +0.000 NA
ATOM      6  C   UNL     1       1.321   9.419  18.978  0.00  0.00    +0.000 A 
ATOM      7  H   UNL     1       2.613   6.012  21.136  0.00  0.00    +0.000 HD
ENDROOT
BRANCH   1  14
ATOM      8  C   UNL     1      -2.327  15.257  21.981  0.00  0.00    +0.000 C 
ATOM      9  C   UNL     1      -2.192  13.849  22.378  0.00  0.00    +0.000 A 
ATOM     10  C   UNL     1      -2.688  13.051  23.380  0.00  0.00    +0.000 A 
ATOM     11  N   UNL     1      -2.228  11.764  23.226  0.00  0.00    +0.000 NA
ATOM     12  C   UNL     1      -1.441  11.839  22.174  0.00  0.00    +0.000 A 
ATOM     13  N   UNL     1      -0.728  10.806  21.649  0.00  0.00    +0.000 N 
ATOM     14  C   UNL     1       0.202  10.969  20.647  0.00  0.00    +0.000 C 
ATOM     15  O   UNL     1       0.473  12.045  20.117  0.00  0.00    +0.000 OA
ATOM     16  O   UNL     1      -1.382  13.073  21.603  0.00  0.00    +0.000 OA
ATOM     17  H   UNL     1      -0.882   9.906  22.075  0.00  0.00    +0.000 HD
ENDBRANCH   1  14
BRANCH   4  18
ATOM     18  C   UNL     1       2.513   5.296  19.222  0.00  0.00    +0.000 A 
ATOM     19  C   UNL     1       3.532   5.252  18.259  0.00  0.00    +0.000 A 
ATOM     20  C   UNL     1       3.611   4.199  17.344  0.00  0.00    +0.000 A 
ATOM     21 CL   UNL     1       4.866   4.189  16.165  0.00  0.00    +0.000 Cl
ATOM     22  C   UNL     1       2.683   3.163  17.375  0.00  0.00    +0.000 A 
ATOM     23  C   UNL     1       1.665   3.182  18.328  0.00  0.00    +0.000 A 
ATOM     24  C   UNL     1       1.594   4.238  19.236  0.00  0.00    +0.000 A 
ATOM     25  F   UNL     1       0.604   4.240  20.147  0.00  0.00    +0.000 F 
ENDBRANCH   4  18
BRANCH   6  26
ATOM     26  N   UNL     1       1.227  10.171  17.874  0.00  0.00    +0.000 N 
ATOM     27  H   UNL     1       0.680   9.812  17.100  0.00  0.00    +0.000 HD
ATOM     28  H   UNL     1       2.008  10.764  17.594  0.00  0.00    +0.000 HD
ENDBRANCH   6  26
TORSDOF 3
ENDMDL
MODEL 4
REMARK VINA RESULT:      -7.7      7.578      8.197
REMARK  Name = 
REMARK  4 active torsions:
REMARK  status: ('A' for Active; 'I' for Inactive)
REMARK    1  A    between atoms: C_1  and  C_2
REMARK    2  A    between atoms: C_7  and  C_9
REMARK    3  A    between atoms: N_12  and  C_13
REMARK    4  A    between atoms: C_22  and  N_23
REMARK                            x       y       z     vdW  Elec       q    Type
REMARK                         _______ _______ _______ _____ _____    ______ ____
ROOT
ATOM      1  C   UNL     1       0.882   9.846  20.297  0.00  0.00    +0.000 A 
ATOM      2  S   UNL     1       1.256   8.569  21.384  0.00  0.00    +0.000 S 
ATOM      3  C   UNL     1       1.886   7.637  20.072  0.00  0.00    +0.000 A 
ATOM      4  N   UNL     1       2.340   6.381  20.282  0.00  0.00    +0.000 N 
ATOM      5  N   UNL     1       1.880   8.260  18.917  0.00  0.00    +0.000 NA
ATOM      6  C   UNL     1       1.323   9.494  19.041  0.00  0.00    +0.000 A 
ATOM      7  H   UNL     1       2.544   6.079  21.228  0.00  0.00    +0.000 HD
ENDROOT
BRANCH   1  14
ATOM      8  C   UNL     1      -1.959  15.576  21.941  0.00  0.00    +0.000 C 
ATOM      9  C   UNL     1      -2.278  14.293  21.298  0.00  0.00    +0.000 A 
ATOM     10  C   UNL     1      -3.401  13.704  20.770  0.00  0.00    +0.000 A 
ATOM     11  N   UNL     1      -3.084  12.466  20.261  0.00  0.00    +0.000 NA
ATOM     12  C   UNL     1      -1.805  12.333  20.538  0.00  0.00    +0.000 A 
ATOM     13  N   UNL     1      -1.045  11.241  20.249  0.00  0.00    +0.000 N 
ATOM     14  C   UNL     1       0.246  11.085  20.700  0.00  0.00    +0.000 C 
ATOM     15  O   UNL     1       0.848  11.907  21.388  0.00  0.00    +0.000 OA
ATOM     16  O   UNL     1      -1.249  13.410  21.157  0.00  0.00    +0.000 OA
ATOM     17  H   UNL     1      -1.504  10.517  19.720  0.00  0.00    +0.000 HD
ENDBRANCH   1  14
BRANCH   4  18
ATOM     18  C   UNL     1       2.421   5.347  19.321  0.00  0.00    +0.000 A 
ATOM     19  C   UNL     1       3.426   5.279  18.345  0.00  0.00    +0.000 A 
ATOM     20  C   UNL     1       3.478   4.216  17.441  0.00  0.00    +0.000 A 
ATOM     21 CL   UNL     1       4.717   4.176  16.245  0.00  0.00    +0.000 Cl
ATOM     22  C   UNL     1       2.536   3.193  17.495  0.00  0.00    +0.000 A 
ATOM     23  C   UNL     1       1.532   3.236  18.461  0.00  0.00    +0.000 A 
ATOM     24  C   UNL     1       1.488   4.302  19.359  0.00  0.00    +0.000 A 
ATOM     25  F   UNL     1       0.510   4.327  20.282  0.00  0.00    +0.000 F 
ENDBRANCH   4  18
BRANCH   6  26
ATOM     26  N   UNL     1       1.241  10.237  17.930  0.00  0.00    +0.000 N 
ATOM     27  H   UNL     1       1.925  10.076  17.200  0.00  0.00    +0.000 HD
ATOM     28  H   UNL     1       0.908  11.200  17.985  0.00  0.00    +0.000 HD
ENDBRANCH   6  26
TORSDOF 3
ENDMDL
MODEL 5
REMARK VINA RESULT:      -7.6      8.257      8.646
REMARK  Name = 
REMARK  4 active torsions:
REMARK  status: ('A' for Active; 'I' for Inactive)
REMARK    1  A    between atoms: C_1  and  C_2
REMARK    2  A    between atoms: C_7  and  C_9
REMARK    3  A    between atoms: N_12  and  C_13
REMARK    4  A    between atoms: C_22  and  N_23
REMARK                            x       y       z     vdW  Elec       q    Type
REMARK                         _______ _______ _______ _____ _____    ______ ____
ROOT
ATOM      1  C   UNL     1       0.132  10.224  20.426  0.00  0.00    +0.000 A 
ATOM      2  S   UNL     1       0.751   9.053  21.521  0.00  0.00    +0.000 S 
ATOM      3  C   UNL     1       1.556   8.258  20.214  0.00  0.00    +0.000 A 
ATOM      4  N   UNL     1       2.249   7.118  20.430  0.00  0.00    +0.000 N 
ATOM      5  N   UNL     1       1.427   8.861  19.055  0.00  0.00    +0.000 NA
ATOM      6  C   UNL     1       0.636   9.960  19.173  0.00  0.00    +0.000 A 
ATOM      7  H   UNL     1       2.508   6.867  21.378  0.00  0.00    +0.000 HD
ENDROOT
BRANCH   1  14
ATOM      8  C   UNL     1      -3.937  15.053  22.358  0.00  0.00    +0.000 C 
ATOM      9  C   UNL     1      -2.661  14.425  22.731  0.00  0.00    +0.000 A 
ATOM     10  C   UNL     1      -1.701  14.632  23.691  0.00  0.00    +0.000 A 
ATOM     11  N   UNL     1      -0.711  13.684  23.575  0.00  0.00    +0.000 NA
ATOM     12  C   UNL     1      -1.082  12.973  22.531  0.00  0.00    +0.000 A 
ATOM     13  N   UNL     1      -0.391  11.924  22.008  0.00  0.00    +0.000 N 
ATOM     14  C   UNL     1      -0.737  11.315  20.823  0.00  0.00    +0.000 C 
ATOM     15  O   UNL     1      -1.699  11.638  20.129  0.00  0.00    +0.000 OA
ATOM     16  O   UNL     1      -2.262  13.362  21.978  0.00  0.00    +0.000 OA
ATOM     17  H   UNL     1       0.432  11.643  22.517  0.00  0.00    +0.000 HD
ENDBRANCH   1  14
BRANCH   4  18
ATOM     18  C   UNL     1       2.535   6.116  19.475  0.00  0.00    +0.000 A 
ATOM     19  C   UNL     1       3.511   6.258  18.476  0.00  0.00    +0.000 A 
ATOM     20  C   UNL     1       3.775   5.222  17.579  0.00  0.00    +0.000 A 
ATOM     21 CL   UNL     1       4.969   5.440  16.355  0.00  0.00    +0.000 Cl
ATOM     22  C   UNL     1       3.082   4.018  17.661  0.00  0.00    +0.000 A 
ATOM     23  C   UNL     1       2.113   3.851  18.649  0.00  0.00    +0.000 A 
ATOM     24  C   UNL     1       1.854   4.892  19.541  0.00  0.00    +0.000 A 
ATOM     25  F   UNL     1       0.914   4.713  20.486  0.00  0.00    +0.000 F 
ENDBRANCH   4  18
BRANCH   6  26
ATOM     26  N   UNL     1       0.411  10.668  18.058  0.00  0.00    +0.000 N 
ATOM     27  H   UNL     1      -0.253  10.298  17.387  0.00  0.00    +0.000 HD
ATOM     28  H   UNL     1       1.163  11.216  17.642  0.00  0.00    +0.000 HD
ENDBRANCH   6  26
TORSDOF 3
ENDMDL
MODEL 6
REMARK VINA RESULT:      -7.6      7.348      7.632
REMARK  Name = 
REMARK  4 active torsions:
REMARK  status: ('A' for Active; 'I' for Inactive)
REMARK    1  A    between atoms: C_1  and  C_2
REMARK    2  A    between atoms: C_7  and  C_9
REMARK    3  A    between atoms: N_12  and  C_13
REMARK    4  A    between atoms: C_22  and  N_23
REMARK                            x       y       z     vdW  Elec       q    Type
REMARK                         _______ _______ _______ _____ _____    ______ ____
ROOT
ATOM      1  C   UNL     1       0.807   9.806  20.153  0.00  0.00    +0.000 A 
ATOM      2  S   UNL     1       1.195   8.547  21.256  0.00  0.00    +0.000 S 
ATOM      3  C   UNL     1       1.885   7.628  19.966  0.00  0.00    +0.000 A 
ATOM      4  N   UNL     1       2.372   6.388  20.194  0.00  0.00    +0.000 N 
ATOM      5  N   UNL     1       1.886   8.244  18.807  0.00  0.00    +0.000 NA
ATOM      6  C   UNL     1       1.289   9.460  18.910  0.00  0.00    +0.000 A 
ATOM      7  H   UNL     1       2.562   6.098  21.147  0.00  0.00    +0.000 HD
ENDROOT
BRANCH   1  14
ATOM      8  C   UNL     1      -2.323  15.290  22.084  0.00  0.00    +0.000 C 
ATOM      9  C   UNL     1      -0.967  14.733  21.979  0.00  0.00    +0.000 A 
ATOM     10  C   UNL     1       0.308  15.182  22.225  0.00  0.00    +0.000 A 
ATOM     11  N   UNL     1       1.214  14.180  21.967  0.00  0.00    +0.000 NA
ATOM     12  C   UNL     1       0.467  13.187  21.535  0.00  0.00    +0.000 A 
ATOM     13  N   UNL     1       0.929  11.974  21.125  0.00  0.00    +0.000 N 
ATOM     14  C   UNL     1       0.125  11.027  20.532  0.00  0.00    +0.000 C 
ATOM     15  O   UNL     1      -1.080  11.166  20.327  0.00  0.00    +0.000 OA
ATOM     16  O   UNL     1      -0.868  13.451  21.527  0.00  0.00    +0.000 OA
ATOM     17  H   UNL     1       1.919  11.823  21.234  0.00  0.00    +0.000 HD
ENDBRANCH   1  14
BRANCH   4  18
ATOM     18  C   UNL     1       2.507   5.351  19.242  0.00  0.00    +0.000 A 
ATOM     19  C   UNL     1       3.524   5.321  18.275  0.00  0.00    +0.000 A 
ATOM     20  C   UNL     1       3.631   4.255  17.380  0.00  0.00    +0.000 A 
ATOM     21 CL   UNL     1       4.882   4.261  16.196  0.00  0.00    +0.000 Cl
ATOM     22  C   UNL     1       2.735   3.191  17.433  0.00  0.00    +0.000 A 
ATOM     23  C   UNL     1       1.721   3.197  18.390  0.00  0.00    +0.000 A 
ATOM     24  C   UNL     1       1.621   4.266  19.280  0.00  0.00    +0.000 A 
ATOM     25  F   UNL     1       0.634   4.254  20.194  0.00  0.00    +0.000 F 
ENDBRANCH   4  18
BRANCH   6  26
ATOM     26  N   UNL     1       1.212  10.195  17.793  0.00  0.00    +0.000 N 
ATOM     27  H   UNL     1       1.733  11.064  17.759  0.00  0.00    +0.000 HD
ATOM     28  H   UNL     1       0.350  10.203  17.248  0.00  0.00    +0.000 HD
ENDBRANCH   6  26
TORSDOF 3
ENDMDL
MODEL 7
REMARK VINA RESULT:      -7.5      7.419      7.740
REMARK  Name = 
REMARK  4 active torsions:
REMARK  status: ('A' for Active; 'I' for Inactive)
REMARK    1  A    between atoms: C_1  and  C_2
REMARK    2  A    between atoms: C_7  and  C_9
REMARK    3  A    between atoms: N_12  and  C_13
REMARK    4  A    between atoms: C_22  and  N_23
REMARK                            x       y       z     vdW  Elec       q    Type
REMARK                         _______ _______ _______ _____ _____    ______ ____
ROOT
ATOM      1  C   UNL     1       0.803   9.817  20.144  0.00  0.00    +0.000 A 
ATOM      2  S   UNL     1       1.101   8.695  21.411  0.00  0.00    +0.000 S 
ATOM      3  C   UNL     1       1.864   7.629  20.285  0.00  0.00    +0.000 A 
ATOM      4  N   UNL     1       2.320   6.421  20.689  0.00  0.00    +0.000 N 
ATOM      5  N   UNL     1       1.950   8.104  19.065  0.00  0.00    +0.000 NA
ATOM      6  C   UNL     1       1.361   9.327  18.986  0.00  0.00    +0.000 A 
ATOM      7  H   UNL     1       2.443   6.244  21.679  0.00  0.00    +0.000 HD
ENDROOT
BRANCH   1  14
ATOM      8  C   UNL     1      -2.530  15.446  21.049  0.00  0.00    +0.000 C 
ATOM      9  C   UNL     1      -1.713  14.477  21.794  0.00  0.00    +0.000 A 
ATOM     10  C   UNL     1      -1.242  14.362  23.079  0.00  0.00    +0.000 A 
ATOM     11  N   UNL     1      -0.535  13.190  23.215  0.00  0.00    +0.000 NA
ATOM     12  C   UNL     1      -0.565  12.666  22.008  0.00  0.00    +0.000 A 
ATOM     13  N   UNL     1       0.035  11.501  21.640  0.00  0.00    +0.000 N 
ATOM     14  C   UNL     1       0.111  11.077  20.333  0.00  0.00    +0.000 C 
ATOM     15  O   UNL     1      -0.360  11.687  19.374  0.00  0.00    +0.000 OA
ATOM     16  O   UNL     1      -1.273  13.390  21.099  0.00  0.00    +0.000 OA
ATOM     17  H   UNL     1       0.473  10.980  22.383  0.00  0.00    +0.000 HD
ENDBRANCH   1  14
BRANCH   4  18
ATOM     18  C   UNL     1       2.506   5.280  19.875  0.00  0.00    +0.000 A 
ATOM     19  C   UNL     1       1.512   4.311  19.669  0.00  0.00    +0.000 A 
ATOM     20  C   UNL     1       1.737   3.220  18.827  0.00  0.00    +0.000 A 
ATOM     21 CL   UNL     1       0.500   2.041  18.613  0.00  0.00    +0.000 Cl
ATOM     22  C   UNL     1       2.952   3.075  18.164  0.00  0.00    +0.000 A 
ATOM     23  C   UNL     1       3.952   4.030  18.348  0.00  0.00    +0.000 A 
ATOM     24  C   UNL     1       3.718   5.115  19.192  0.00  0.00    +0.000 A 
ATOM     25  F   UNL     1       4.695   6.024  19.358  0.00  0.00    +0.000 F 
ENDBRANCH   4  18
BRANCH   6  26
ATOM     26  N   UNL     1       1.366   9.926  17.788  0.00  0.00    +0.000 N 
ATOM     27  H   UNL     1       1.266  10.934  17.761  0.00  0.00    +0.000 HD
ATOM     28  H   UNL     1       0.977   9.445  16.977  0.00  0.00    +0.000 HD
ENDBRANCH   6  26
TORSDOF 3
ENDMDL
MODEL 8
REMARK VINA RESULT:      -7.4      8.593      9.238
REMARK  Name = 
REMARK  4 active torsions:
REMARK  status: ('A' for Active; 'I' for Inactive)
REMARK    1  A    between atoms: C_1  and  C_2
REMARK    2  A    between atoms: C_7  and  C_9
REMARK    3  A    between atoms: N_12  and  C_13
REMARK    4  A    between atoms: C_22  and  N_23
REMARK                            x       y       z     vdW  Elec       q    Type
REMARK                         _______ _______ _______ _____ _____    ______ ____
ROOT
ATOM      1  C   UNL     1       0.103  10.477  21.558  0.00  0.00    +0.000 A 
ATOM      2  S   UNL     1       1.156   9.402  22.388  0.00  0.00    +0.000 S 
ATOM      3  C   UNL     1       1.403   8.515  20.926  0.00  0.00    +0.000 A 
ATOM      4  N   UNL     1       2.172   7.403  20.922  0.00  0.00    +0.000 N 
ATOM      5  N   UNL     1       0.797   9.024  19.879  0.00  0.00    +0.000 NA
ATOM      6  C   UNL     1       0.075  10.120  20.229  0.00  0.00    +0.000 A 
ATOM      7  H   UNL     1       2.798   7.231  21.701  0.00  0.00    +0.000 HD
ENDROOT
BRANCH   1  14
ATOM      8  C   UNL     1      -3.115  15.563  24.275  0.00  0.00    +0.000 C 
ATOM      9  C   UNL     1      -3.234  14.109  24.095  0.00  0.00    +0.000 A 
ATOM     10  C   UNL     1      -4.118  13.133  24.486  0.00  0.00    +0.000 A 
ATOM     11  N   UNL     1      -3.724  11.915  23.981  0.00  0.00    +0.000 NA
ATOM     12  C   UNL     1      -2.603  12.188  23.348  0.00  0.00    +0.000 A 
ATOM     13  N   UNL     1      -1.821  11.279  22.704  0.00  0.00    +0.000 N 
ATOM     14  C   UNL     1      -0.579  11.585  22.195  0.00  0.00    +0.000 C 
ATOM     15  O   UNL     1      -0.058  12.698  22.253  0.00  0.00    +0.000 OA
ATOM     16  O   UNL     1      -2.253  13.503  23.368  0.00  0.00    +0.000 OA
ATOM     17  H   UNL     1      -2.184  10.341  22.663  0.00  0.00    +0.000 HD
ENDBRANCH   1  14
BRANCH   4  18
ATOM     18  C   UNL     1       2.093   6.332  20.003  0.00  0.00    +0.000 A 
ATOM     19  C   UNL     1       1.451   5.117  20.289  0.00  0.00    +0.000 A 
ATOM     20  C   UNL     1       1.372   4.104  19.331  0.00  0.00    +0.000 A 
ATOM     21 CL   UNL     1       0.591   2.620  19.725  0.00  0.00    +0.000 Cl
ATOM     22  C   UNL     1       1.922   4.281  18.066  0.00  0.00    +0.000 A 
ATOM     23  C   UNL     1       2.559   5.482  17.757  0.00  0.00    +0.000 A 
ATOM     24  C   UNL     1       2.634   6.488  18.720  0.00  0.00    +0.000 A 
ATOM     25  F   UNL     1       3.254   7.639  18.404  0.00  0.00    +0.000 F 
ENDBRANCH   4  18
BRANCH   6  26
ATOM     26  N   UNL     1      -0.607  10.734  19.254  0.00  0.00    +0.000 N 
ATOM     27  H   UNL     1      -1.504  10.346  18.984  0.00  0.00    +0.000 HD
ATOM     28  H   UNL     1      -0.106  11.195  18.494  0.00  0.00    +0.000 HD
ENDBRANCH   6  26
TORSDOF 3
ENDMDL
MODEL 9
REMARK VINA RESULT:      -7.3      7.529      8.081
REMARK  Name = 
REMARK  4 active torsions:
REMARK  status: ('A' for Active; 'I' for Inactive)
REMARK    1  A    between atoms: C_1  and  C_2
REMARK    2  A    between atoms: C_7  and  C_9
REMARK    3  A    between atoms: N_12  and  C_13
REMARK    4  A    between atoms: C_22  and  N_23
REMARK                            x       y       z     vdW  Elec       q    Type
REMARK                         _______ _______ _______ _____ _____    ______ ____
ROOT
ATOM      1  C   UNL     1       0.582   9.560  19.973  0.00  0.00    +0.000 A 
ATOM      2  S   UNL     1       1.243   8.379  21.031  0.00  0.00    +0.000 S 
ATOM      3  C   UNL     1       2.121   7.690  19.712  0.00  0.00    +0.000 A 
ATOM      4  N   UNL     1       2.875   6.582  19.897  0.00  0.00    +0.000 N 
ATOM      5  N   UNL     1       1.984   8.335  18.578  0.00  0.00    +0.000 NA
ATOM      6  C   UNL     1       1.128   9.381  18.723  0.00  0.00    +0.000 A 
ATOM      7  H   UNL     1       3.126   6.305  20.839  0.00  0.00    +0.000 HD
ENDROOT
BRANCH   1  14
ATOM      8  C   UNL     1      -3.800  14.061  22.010  0.00  0.00    +0.000 C 
ATOM      9  C   UNL     1      -2.493  13.499  22.380  0.00  0.00    +0.000 A 
ATOM     10  C   UNL     1      -1.559  13.731  23.360  0.00  0.00    +0.000 A 
ATOM     11  N   UNL     1      -0.511  12.850  23.225  0.00  0.00    +0.000 NA
ATOM     12  C   UNL     1      -0.825  12.155  22.153  0.00  0.00    +0.000 A 
ATOM     13  N   UNL     1      -0.065  11.168  21.604  0.00  0.00    +0.000 N 
ATOM     14  C   UNL     1      -0.358  10.581  20.394  0.00  0.00    +0.000 C 
ATOM     15  O   UNL     1      -1.330  10.868  19.698  0.00  0.00    +0.000 OA
ATOM     16  O   UNL     1      -2.020  12.489  21.596  0.00  0.00    +0.000 OA
ATOM     17  H   UNL     1       0.768  10.921  22.115  0.00  0.00    +0.000 HD
ENDBRANCH   1  14
BRANCH   4  18
ATOM     18  C   UNL     1       3.239   5.641  18.907  0.00  0.00    +0.000 A 
ATOM     19  C   UNL     1       2.645   4.375  18.791  0.00  0.00    +0.000 A 
ATOM     20  C   UNL     1       3.019   3.497  17.773  0.00  0.00    +0.000 A 
ATOM     21 CL   UNL     1       2.280   1.943  17.674  0.00  0.00    +0.000 Cl
ATOM     22  C   UNL     1       3.985   3.863  16.840  0.00  0.00    +0.000 A 
ATOM     23  C   UNL     1       4.584   5.119  16.931  0.00  0.00    +0.000 A 
ATOM     24  C   UNL     1       4.204   5.989  17.953  0.00  0.00    +0.000 A 
ATOM     25  F   UNL     1       4.795   7.195  18.024  0.00  0.00    +0.000 F 
ENDBRANCH   4  18
BRANCH   6  26
ATOM     26  N   UNL     1       0.887  10.123  17.634  0.00  0.00    +0.000 N 
ATOM     27  H   UNL     1       0.156   9.815  17.002  0.00  0.00    +0.000 HD
ATOM     28  H   UNL     1       1.651  10.621  17.178  0.00  0.00    +0.000 HD
ENDBRANCH   6  26
TORSDOF 3
ENDMDL
