MODEL 1
REMARK VINA RESULT:      -4.6      0.000      0.000
REMARK  Name = 
REMARK  8 active torsions:
REMARK  status: ('A' for Active; 'I' for Inactive)
REMARK    1  A    between atoms: C_2  and  O_3
REMARK    2  A    between atoms: C_2  and  C_4
REMARK    3  A    between atoms: C_4  and  C_5
REMARK    4  A    between atoms: C_5  and  S_6
REMARK    5  A    between atoms: S_6  and  C_7
REMARK    6  A    between atoms: C_7  and  C_8
REMARK    7  A    between atoms: C_8  and  C_9
REMARK    8  A    between atoms: C_9  and  O_11
REMARK                            x       y       z     vdW  Elec       q    Type
REMARK                         _______ _______ _______ _____ _____    ______ ____
ROOT
ATOM      1  S   UNL     1       4.976   5.175  18.984  0.00  0.00    +0.000 S 
ENDROOT
BRANCH   1   2
ATOM      2  C   UNL     1       3.573   4.116  19.491  0.00  0.00    +0.000 C 
BRANCH   2   3
ATOM      3  C   UNL     1       4.078   2.683  19.636  0.00  0.00    +0.000 C 
BRANCH   3   5
ATOM      4  O   UNL     1       2.686   2.089  17.741  0.00  0.00    +0.000 OA
ATOM      5  C   UNL     1       3.594   1.812  18.507  0.00  0.00    +0.000 C 
BRANCH   5   6
ATOM      6  O   UNL     1       4.285   0.648  18.420  0.00  0.00    +0.000 OA
ATOM      7  H   UNL     1       4.081   0.010  19.129  0.00  0.00    +0.000 HD
ENDBRANCH   5   6
ENDBRANCH   3   5
ENDBRANCH   2   3
ENDBRANCH   1   2
BRANCH   1   8
ATOM      8  C   UNL     1       4.735   5.157  17.173  0.00  0.00    +0.000 C 
BRANCH   8   9
ATOM      9  C   UNL     1       5.775   4.231  16.546  0.00  0.00    +0.000 C 
BRANCH   9  10
ATOM     10  C   UNL     1       7.141   4.866  16.553  0.00  0.00    +0.000 C 
ATOM     11  O   UNL     1       7.425   5.933  16.032  0.00  0.00    +0.000 OA
BRANCH  10  12
ATOM     12  O   UNL     1       8.055   4.118  17.213  0.00  0.00    +0.000 OA
ATOM     13  H   UNL     1       8.949   4.139  16.821  0.00  0.00    +0.000 HD
ENDBRANCH  10  12
ENDBRANCH   9  10
ENDBRANCH   8   9
ENDBRANCH   1   8
TORSDOF 8
ENDMDL
MODEL 2
REMARK VINA RESULT:      -4.5      2.315      5.576
REMARK  Name = 
REMARK  8 active torsions:
REMARK  status: ('A' for Active; 'I' for Inactive)
REMARK    1  A    between atoms: C_2  and  O_3
REMARK    2  A    between atoms: C_2  and  C_4
REMARK    3  A    between atoms: C_4  and  C_5
REMARK    4  A    between atoms: C_5  and  S_6
REMARK    5  A    between atoms: S_6  and  C_7
REMARK    6  A    between atoms: C_7  and  C_8
REMARK    7  A    between atoms: C_8  and  C_9
REMARK    8  A    between atoms: C_9  and  O_11
REMARK                            x       y       z     vdW  Elec       q    Type
REMARK                         _______ _______ _______ _____ _____    ______ ____
ROOT
ATOM      1  S   UNL     1       3.768   3.875  18.679  0.00  0.00    +0.000 S 
ENDROOT
BRANCH   1   2
ATOM      2  C   UNL     1       5.513   4.309  18.344  0.00  0.00    +0.000 C 
BRANCH   2   3
ATOM      3  C   UNL     1       5.698   4.434  16.835  0.00  0.00    +0.000 C 
BRANCH   3   5
ATOM      4  O   UNL     1       7.452   5.574  15.607  0.00  0.00    +0.000 OA
ATOM      5  C   UNL     1       7.118   4.790  16.480  0.00  0.00    +0.000 C 
BRANCH   5   6
ATOM      6  O   UNL     1       8.022   4.134  17.249  0.00  0.00    +0.000 OA
ATOM      7  H   UNL     1       8.513   4.709  17.865  0.00  0.00    +0.000 HD
ENDBRANCH   5   6
ENDBRANCH   3   5
ENDBRANCH   2   3
ENDBRANCH   1   2
BRANCH   1   8
ATOM      8  C   UNL     1       3.368   5.151  19.924  0.00  0.00    +0.000 C 
BRANCH   8   9
ATOM      9  C   UNL     1       1.894   5.023  20.304  0.00  0.00    +0.000 C 
BRANCH   9  10
ATOM     10  C   UNL     1       1.637   3.743  21.056  0.00  0.00    +0.000 C 
ATOM     11  O   UNL     1       2.246   3.375  22.047  0.00  0.00    +0.000 OA
BRANCH  10  12
ATOM     12  O   UNL     1       0.633   3.017  20.513  0.00  0.00    +0.000 OA
ATOM     13  H   UNL     1       0.425   3.251  19.588  0.00  0.00    +0.000 HD
ENDBRANCH  10  12
ENDBRANCH   9  10
ENDBRANCH   8   9
ENDBRANCH   1   8
TORSDOF 8
ENDMDL
MODEL 3
REMARK VINA RESULT:      -4.5      2.018      2.332
REMARK  Name = 
REMARK  8 active torsions:
REMARK  status: ('A' for Active; 'I' for Inactive)
REMARK    1  A    between atoms: C_2  and  O_3
REMARK    2  A    between atoms: C_2  and  C_4
REMARK    3  A    between atoms: C_4  and  C_5
REMARK    4  A    between atoms: C_5  and  S_6
REMARK    5  A    between atoms: S_6  and  C_7
REMARK    6  A    between atoms: C_7  and  C_8
REMARK    7  A    between atoms: C_8  and  C_9
REMARK    8  A    between atoms: C_9  and  O_11
REMARK                            x       y       z     vdW  Elec       q    Type
REMARK                         _______ _______ _______ _____ _____    ______ ____
ROOT
ATOM      1  S   UNL     1       5.050   4.523  19.018  0.00  0.00    +0.000 S 
ENDROOT
BRANCH   1   2
ATOM      2  C   UNL     1       3.344   4.537  19.679  0.00  0.00    +0.000 C 
BRANCH   2   3
ATOM      3  C   UNL     1       2.958   3.108  20.048  0.00  0.00    +0.000 C 
BRANCH   3   5
ATOM      4  O   UNL     1       1.870   2.748  22.185  0.00  0.00    +0.000 OA
ATOM      5  C   UNL     1       1.803   3.081  21.013  0.00  0.00    +0.000 C 
BRANCH   5   6
ATOM      6  O   UNL     1       0.639   3.473  20.438  0.00  0.00    +0.000 OA
ATOM      7  H   UNL     1      -0.158   3.242  20.952  0.00  0.00    +0.000 HD
ENDBRANCH   5   6
ENDBRANCH   3   5
ENDBRANCH   2   3
ENDBRANCH   1   2
BRANCH   1   8
ATOM      8  C   UNL     1       4.694   4.769  17.243  0.00  0.00    +0.000 C 
BRANCH   8   9
ATOM      9  C   UNL     1       5.800   4.110  16.422  0.00  0.00    +0.000 C 
BRANCH   9  10
ATOM     10  C   UNL     1       7.103   4.850  16.574  0.00  0.00    +0.000 C 
ATOM     11  O   UNL     1       7.319   5.984  16.178  0.00  0.00    +0.000 OA
BRANCH  10  12
ATOM     12  O   UNL     1       8.043   4.116  17.213  0.00  0.00    +0.000 OA
ATOM     13  H   UNL     1       8.959   4.308  16.935  0.00  0.00    +0.000 HD
ENDBRANCH  10  12
ENDBRANCH   9  10
ENDBRANCH   8   9
ENDBRANCH   1   8
TORSDOF 8
ENDMDL
MODEL 4
REMARK VINA RESULT:      -4.4      2.872      5.261
REMARK  Name = 
REMARK  8 active torsions:
REMARK  status: ('A' for Active; 'I' for Inactive)
REMARK    1  A    between atoms: C_2  and  O_3
REMARK    2  A    between atoms: C_2  and  C_4
REMARK    3  A    between atoms: C_4  and  C_5
REMARK    4  A    between atoms: C_5  and  S_6
REMARK    5  A    between atoms: S_6  and  C_7
REMARK    6  A    between atoms: C_7  and  C_8
REMARK    7  A    between atoms: C_8  and  C_9
REMARK    8  A    between atoms: C_9  and  O_11
REMARK                            x       y       z     vdW  Elec       q    Type
REMARK                         _______ _______ _______ _____ _____    ______ ____
ROOT
ATOM      1  S   UNL     1       2.183   3.309  17.688  0.00  0.00    +0.000 S 
ENDROOT
BRANCH   1   2
ATOM      2  C   UNL     1       3.738   4.192  17.300  0.00  0.00    +0.000 C 
BRANCH   2   3
ATOM      3  C   UNL     1       4.173   4.968  18.539  0.00  0.00    +0.000 C 
BRANCH   3   5
ATOM      4  O   UNL     1       6.446   5.048  19.382  0.00  0.00    +0.000 OA
ATOM      5  C   UNL     1       5.441   4.405  19.125  0.00  0.00    +0.000 C 
BRANCH   5   6
ATOM      6  O   UNL     1       5.359   3.070  19.346  0.00  0.00    +0.000 OA
ATOM      7  H   UNL     1       5.481   2.525  18.545  0.00  0.00    +0.000 HD
ENDBRANCH   5   6
ENDBRANCH   3   5
ENDBRANCH   2   3
ENDBRANCH   1   2
BRANCH   1   8
ATOM      8  C   UNL     1       1.721   4.165  19.235  0.00  0.00    +0.000 C 
BRANCH   8   9
ATOM      9  C   UNL     1       0.962   3.189  20.131  0.00  0.00    +0.000 C 
BRANCH   9  10
ATOM     10  C   UNL     1       1.811   2.749  21.296  0.00  0.00    +0.000 C 
ATOM     11  O   UNL     1       1.400   2.537  22.425  0.00  0.00    +0.000 OA
BRANCH  10  12
ATOM     12  O   UNL     1       3.114   2.607  20.962  0.00  0.00    +0.000 OA
ATOM     13  H   UNL     1       3.738   2.846  21.673  0.00  0.00    +0.000 HD
ENDBRANCH  10  12
ENDBRANCH   9  10
ENDBRANCH   8   9
ENDBRANCH   1   8
TORSDOF 8
ENDMDL
MODEL 5
REMARK VINA RESULT:      -4.4      1.855      5.483
REMARK  Name = 
REMARK  8 active torsions:
REMARK  status: ('A' for Active; 'I' for Inactive)
REMARK    1  A    between atoms: C_2  and  O_3
REMARK    2  A    between atoms: C_2  and  C_4
REMARK    3  A    between atoms: C_4  and  C_5
REMARK    4  A    between atoms: C_5  and  S_6
REMARK    5  A    between atoms: S_6  and  C_7
REMARK    6  A    between atoms: C_7  and  C_8
REMARK    7  A    between atoms: C_8  and  C_9
REMARK    8  A    between atoms: C_9  and  O_11
REMARK                            x       y       z     vdW  Elec       q    Type
REMARK                         _______ _______ _______ _____ _____    ______ ____
ROOT
ATOM      1  S   UNL     1       4.225   3.838  18.043  0.00  0.00    +0.000 S 
ENDROOT
BRANCH   1   2
ATOM      2  C   UNL     1       4.748   4.655  16.492  0.00  0.00    +0.000 C 
BRANCH   2   3
ATOM      3  C   UNL     1       6.021   3.977  15.996  0.00  0.00    +0.000 C 
BRANCH   3   5
ATOM      4  O   UNL     1       7.524   5.880  15.945  0.00  0.00    +0.000 OA
ATOM      5  C   UNL     1       7.248   4.769  16.366  0.00  0.00    +0.000 C 
BRANCH   5   6
ATOM      6  O   UNL     1       8.045   4.107  17.240  0.00  0.00    +0.000 OA
ATOM      7  H   UNL     1       8.383   3.255  16.905  0.00  0.00    +0.000 HD
ENDBRANCH   5   6
ENDBRANCH   3   5
ENDBRANCH   2   3
ENDBRANCH   1   2
BRANCH   1   8
ATOM      8  C   UNL     1       2.705   4.790  18.394  0.00  0.00    +0.000 C 
BRANCH   8   9
ATOM      9  C   UNL     1       1.493   3.913  18.092  0.00  0.00    +0.000 C 
BRANCH   9  10
ATOM     10  C   UNL     1       1.170   3.013  19.257  0.00  0.00    +0.000 C 
ATOM     11  O   UNL     1       1.507   1.844  19.358  0.00  0.00    +0.000 OA
BRANCH  10  12
ATOM     12  O   UNL     1       0.448   3.643  20.213  0.00  0.00    +0.000 OA
ATOM     13  H   UNL     1       0.670   4.588  20.323  0.00  0.00    +0.000 HD
ENDBRANCH  10  12
ENDBRANCH   9  10
ENDBRANCH   8   9
ENDBRANCH   1   8
TORSDOF 8
ENDMDL
MODEL 6
REMARK VINA RESULT:      -4.4      1.424      4.928
REMARK  Name = 
REMARK  8 active torsions:
REMARK  status: ('A' for Active; 'I' for Inactive)
REMARK    1  A    between atoms: C_2  and  O_3
REMARK    2  A    between atoms: C_2  and  C_4
REMARK    3  A    between atoms: C_4  and  C_5
REMARK    4  A    between atoms: C_5  and  S_6
REMARK    5  A    between atoms: S_6  and  C_7
REMARK    6  A    between atoms: C_7  and  C_8
REMARK    7  A    between atoms: C_8  and  C_9
REMARK    8  A    between atoms: C_9  and  O_11
REMARK                            x       y       z     vdW  Elec       q    Type
REMARK                         _______ _______ _______ _____ _____    ______ ____
ROOT
ATOM      1  S   UNL     1       3.999   4.962  19.150  0.00  0.00    +0.000 S 
ENDROOT
BRANCH   1   2
ATOM      2  C   UNL     1       5.658   4.426  18.598  0.00  0.00    +0.000 C 
BRANCH   2   3
ATOM      3  C   UNL     1       5.742   4.599  17.084  0.00  0.00    +0.000 C 
BRANCH   3   5
ATOM      4  O   UNL     1       7.481   5.657  15.767  0.00  0.00    +0.000 OA
ATOM      5  C   UNL     1       7.155   4.868  16.637  0.00  0.00    +0.000 C 
BRANCH   5   6
ATOM      6  O   UNL     1       8.062   4.121  17.315  0.00  0.00    +0.000 OA
ATOM      7  H   UNL     1       8.856   4.615  17.593  0.00  0.00    +0.000 HD
ENDBRANCH   5   6
ENDBRANCH   3   5
ENDBRANCH   2   3
ENDBRANCH   1   2
BRANCH   1   8
ATOM      8  C   UNL     1       3.043   4.617  17.632  0.00  0.00    +0.000 C 
BRANCH   8   9
ATOM      9  C   UNL     1       1.724   3.954  18.020  0.00  0.00    +0.000 C 
BRANCH   9  10
ATOM     10  C   UNL     1       1.952   2.568  18.566  0.00  0.00    +0.000 C 
ATOM     11  O   UNL     1       1.678   2.203  19.698  0.00  0.00    +0.000 OA
BRANCH  10  12
ATOM     12  O   UNL     1       2.508   1.738  17.653  0.00  0.00    +0.000 OA
ATOM     13  H   UNL     1       2.775   2.177  16.823  0.00  0.00    +0.000 HD
ENDBRANCH  10  12
ENDBRANCH   9  10
ENDBRANCH   8   9
ENDBRANCH   1   8
TORSDOF 8
ENDMDL
MODEL 7
REMARK VINA RESULT:      -4.4      0.826      4.573
REMARK  Name = 
REMARK  8 active torsions:
REMARK  status: ('A' for Active; 'I' for Inactive)
REMARK    1  A    between atoms: C_2  and  O_3
REMARK    2  A    between atoms: C_2  and  C_4
REMARK    3  A    between atoms: C_4  and  C_5
REMARK    4  A    between atoms: C_5  and  S_6
REMARK    5  A    between atoms: S_6  and  C_7
REMARK    6  A    between atoms: C_7  and  C_8
REMARK    7  A    between atoms: C_8  and  C_9
REMARK    8  A    between atoms: C_9  and  O_11
REMARK                            x       y       z     vdW  Elec       q    Type
REMARK                         _______ _______ _______ _____ _____    ______ ____
ROOT
ATOM      1  S   UNL     1       4.587   5.267  18.872  0.00  0.00    +0.000 S 
ENDROOT
BRANCH   1   2
ATOM      2  C   UNL     1       4.752   5.329  17.051  0.00  0.00    +0.000 C 
BRANCH   2   3
ATOM      3  C   UNL     1       5.779   4.285  16.624  0.00  0.00    +0.000 C 
BRANCH   3   5
ATOM      4  O   UNL     1       7.533   5.866  16.074  0.00  0.00    +0.000 OA
ATOM      5  C   UNL     1       7.176   4.846  16.640  0.00  0.00    +0.000 C 
BRANCH   5   6
ATOM      6  O   UNL     1       8.030   4.084  17.366  0.00  0.00    +0.000 OA
ATOM      7  H   UNL     1       8.330   4.502  18.196  0.00  0.00    +0.000 HD
ENDBRANCH   5   6
ENDBRANCH   3   5
ENDBRANCH   2   3
ENDBRANCH   1   2
BRANCH   1   8
ATOM      8  C   UNL     1       3.057   4.278  19.008  0.00  0.00    +0.000 C 
BRANCH   8   9
ATOM      9  C   UNL     1       3.298   3.129  19.985  0.00  0.00    +0.000 C 
BRANCH   9  10
ATOM     10  C   UNL     1       4.026   1.992  19.317  0.00  0.00    +0.000 C 
ATOM     11  O   UNL     1       3.615   1.362  18.355  0.00  0.00    +0.000 OA
BRANCH  10  12
ATOM     12  O   UNL     1       5.217   1.726  19.900  0.00  0.00    +0.000 OA
ATOM     13  H   UNL     1       5.239   0.889  20.402  0.00  0.00    +0.000 HD
ENDBRANCH  10  12
ENDBRANCH   9  10
ENDBRANCH   8   9
ENDBRANCH   1   8
TORSDOF 8
ENDMDL
MODEL 8
REMARK VINA RESULT:      -4.4      1.675      2.095
REMARK  Name = 
REMARK  8 active torsions:
REMARK  status: ('A' for Active; 'I' for Inactive)
REMARK    1  A    between atoms: C_2  and  O_3
REMARK    2  A    between atoms: C_2  and  C_4
REMARK    3  A    between atoms: C_4  and  C_5
REMARK    4  A    between atoms: C_5  and  S_6
REMARK    5  A    between atoms: S_6  and  C_7
REMARK    6  A    between atoms: C_7  and  C_8
REMARK    7  A    between atoms: C_8  and  C_9
REMARK    8  A    between atoms: C_9  and  O_11
REMARK                            x       y       z     vdW  Elec       q    Type
REMARK                         _______ _______ _______ _____ _____    ______ ____
ROOT
ATOM      1  S   UNL     1       4.711   3.903  18.742  0.00  0.00    +0.000 S 
ENDROOT
BRANCH   1   2
ATOM      2  C   UNL     1       3.192   4.647  19.439  0.00  0.00    +0.000 C 
BRANCH   2   3
ATOM      3  C   UNL     1       2.024   4.312  18.516  0.00  0.00    +0.000 C 
BRANCH   3   5
ATOM      4  O   UNL     1       1.092   2.076  18.627  0.00  0.00    +0.000 OA
ATOM      5  C   UNL     1       1.174   3.205  19.082  0.00  0.00    +0.000 C 
BRANCH   5   6
ATOM      6  O   UNL     1       0.482   3.595  20.181  0.00  0.00    +0.000 OA
ATOM      7  H   UNL     1       0.571   2.992  20.943  0.00  0.00    +0.000 HD
ENDBRANCH   5   6
ENDBRANCH   3   5
ENDBRANCH   2   3
ENDBRANCH   1   2
BRANCH   1   8
ATOM      8  C   UNL     1       4.754   4.750  17.124  0.00  0.00    +0.000 C 
BRANCH   8   9
ATOM      9  C   UNL     1       5.856   4.128  16.271  0.00  0.00    +0.000 C 
BRANCH   9  10
ATOM     10  C   UNL     1       7.167   4.846  16.469  0.00  0.00    +0.000 C 
ATOM     11  O   UNL     1       7.443   5.944  16.015  0.00  0.00    +0.000 OA
BRANCH  10  12
ATOM     12  O   UNL     1       8.036   4.135  17.224  0.00  0.00    +0.000 OA
ATOM     13  H   UNL     1       7.830   3.182  17.282  0.00  0.00    +0.000 HD
ENDBRANCH  10  12
ENDBRANCH   9  10
ENDBRANCH   8   9
ENDBRANCH   1   8
TORSDOF 8
ENDMDL
MODEL 9
REMARK VINA RESULT:      -4.3      2.603      4.593
REMARK  Name = 
REMARK  8 active torsions:
REMARK  status: ('A' for Active; 'I' for Inactive)
REMARK    1  A    between atoms: C_2  and  O_3
REMARK    2  A    between atoms: C_2  and  C_4
REMARK    3  A    between atoms: C_4  and  C_5
REMARK    4  A    between atoms: C_5  and  S_6
REMARK    5  A    between atoms: S_6  and  C_7
REMARK    6  A    between atoms: C_7  and  C_8
REMARK    7  A    between atoms: C_8  and  C_9
REMARK    8  A    between atoms: C_9  and  O_11
REMARK                            x       y       z     vdW  Elec       q    Type
REMARK                         _______ _______ _______ _____ _____    ______ ____
ROOT
ATOM      1  S   UNL     1       7.024   4.879  16.142  0.00  0.00    +0.000 S 
ENDROOT
BRANCH   1   2
ATOM      2  C   UNL     1       6.604   6.273  17.250  0.00  0.00    +0.000 C 
BRANCH   2   3
ATOM      3  C   UNL     1       7.641   6.329  18.368  0.00  0.00    +0.000 C 
BRANCH   3   5
ATOM      4  O   UNL     1       6.111   5.004  19.704  0.00  0.00    +0.000 OA
ATOM      5  C   UNL     1       7.202   5.533  19.568  0.00  0.00    +0.000 C 
BRANCH   5   6
ATOM      6  O   UNL     1       8.166   5.459  20.519  0.00  0.00    +0.000 OA
ATOM      7  H   UNL     1       7.977   5.983  21.320  0.00  0.00    +0.000 HD
ENDBRANCH   5   6
ENDBRANCH   3   5
ENDBRANCH   2   3
ENDBRANCH   1   2
BRANCH   1   8
ATOM      8  C   UNL     1       5.456   3.944  16.218  0.00  0.00    +0.000 C 
BRANCH   8   9
ATOM      9  C   UNL     1       4.369   4.849  16.793  0.00  0.00    +0.000 C 
BRANCH   9  10
ATOM     10  C   UNL     1       3.304   4.042  17.490  0.00  0.00    +0.000 C 
ATOM     11  O   UNL     1       2.499   3.312  16.936  0.00  0.00    +0.000 OA
BRANCH  10  12
ATOM     12  O   UNL     1       3.325   4.210  18.832  0.00  0.00    +0.000 OA
ATOM     13  H   UNL     1       3.256   3.379  19.341  0.00  0.00    +0.000 HD
ENDBRANCH  10  12
ENDBRANCH   9  10
ENDBRANCH   8   9
ENDBRANCH   1   8
TORSDOF 8
ENDMDL
