MODEL 1
REMARK VINA RESULT:      -6.1      0.000      0.000
REMARK  Name = 
REMARK  1 active torsions:
REMARK  status: ('A' for Active; 'I' for Inactive)
REMARK    1  A    between atoms: C_4  and  C_5
REMARK                            x       y       z     vdW  Elec       q    Type
REMARK                         _______ _______ _______ _____ _____    ______ ____
ROOT
ATOM      1  N   UNL     1       5.697   4.205  19.234  0.00  0.00    +0.000 N 
ATOM      2  C   UNL     1       6.260   4.782  18.160  0.00  0.00    +0.000 A 
ATOM      3  N   UNL     1       6.178   4.301  16.945  0.00  0.00    +0.000 NA
ATOM      4  C   UNL     1       6.884   5.142  16.064  0.00  0.00    +0.000 A 
ATOM      5  N   UNL     1       7.497   6.218  16.581  0.00  0.00    +0.000 NA
ATOM      6  S   UNL     1       7.189   6.226  18.215  0.00  0.00    +0.000 S 
ATOM      7  H   UNL     1       5.422   3.235  19.123  0.00  0.00    +0.000 HD
ATOM      8  H   UNL     1       6.061   4.432  20.151  0.00  0.00    +0.000 HD
ENDROOT
BRANCH   4   9
ATOM      9  C   UNL     1       6.928   4.817  14.626  0.00  0.00    +0.000 A 
ATOM     10  C   UNL     1       6.085   3.835  14.106  0.00  0.00    +0.000 A 
ATOM     11  C   UNL     1       6.146   3.541  12.746  0.00  0.00    +0.000 A 
ATOM     12  C   UNL     1       7.044   4.231  11.942  0.00  0.00    +0.000 A 
ATOM     13  C   UNL     1       7.847   5.191  12.532  0.00  0.00    +0.000 A 
ATOM     14  N   UNL     1       7.810   5.498  13.847  0.00  0.00    +0.000 NA
ENDBRANCH   4   9
TORSDOF 1
ENDMDL
MODEL 2
REMARK VINA RESULT:      -6.0      3.034      5.356
REMARK  Name = 
REMARK  1 active torsions:
REMARK  status: ('A' for Active; 'I' for Inactive)
REMARK    1  A    between atoms: C_4  and  C_5
REMARK                            x       y       z     vdW  Elec       q    Type
REMARK                         _______ _______ _______ _____ _____    ______ ____
ROOT
ATOM      1  N   UNL     1       7.347   5.392  15.163  0.00  0.00    +0.000 N 
ATOM      2  C   UNL     1       6.738   4.961  16.279  0.00  0.00    +0.000 A 
ATOM      3  N   UNL     1       5.492   4.562  16.325  0.00  0.00    +0.000 NA
ATOM      4  C   UNL     1       5.172   4.188  17.644  0.00  0.00    +0.000 A 
ATOM      5  N   UNL     1       6.127   4.310  18.579  0.00  0.00    +0.000 NA
ATOM      6  S   UNL     1       7.490   4.888  17.822  0.00  0.00    +0.000 S 
ATOM      7  H   UNL     1       6.736   5.650  14.396  0.00  0.00    +0.000 HD
ATOM      8  H   UNL     1       8.170   5.976  15.255  0.00  0.00    +0.000 HD
ENDROOT
BRANCH   4   9
ATOM      9  C   UNL     1       3.819   3.688  17.950  0.00  0.00    +0.000 A 
ATOM     10  C   UNL     1       2.702   4.472  17.658  0.00  0.00    +0.000 A 
ATOM     11  C   UNL     1       1.434   3.981  17.959  0.00  0.00    +0.000 A 
ATOM     12  C   UNL     1       1.312   2.725  18.541  0.00  0.00    +0.000 A 
ATOM     13  C   UNL     1       2.467   2.009  18.800  0.00  0.00    +0.000 A 
ATOM     14  N   UNL     1       3.709   2.458  18.519  0.00  0.00    +0.000 NA
ENDBRANCH   4   9
TORSDOF 1
ENDMDL
MODEL 3
REMARK VINA RESULT:      -6.0      1.159      1.422
REMARK  Name = 
REMARK  1 active torsions:
REMARK  status: ('A' for Active; 'I' for Inactive)
REMARK    1  A    between atoms: C_4  and  C_5
REMARK                            x       y       z     vdW  Elec       q    Type
REMARK                         _______ _______ _______ _____ _____    ______ ____
ROOT
ATOM      1  N   UNL     1       7.868   5.253  19.274  0.00  0.00    +0.000 N 
ATOM      2  C   UNL     1       7.122   4.949  18.200  0.00  0.00    +0.000 A 
ATOM      3  N   UNL     1       7.566   4.983  16.968  0.00  0.00    +0.000 NA
ATOM      4  C   UNL     1       6.527   4.618  16.090  0.00  0.00    +0.000 A 
ATOM      5  N   UNL     1       5.329   4.331  16.622  0.00  0.00    +0.000 NA
ATOM      6  S   UNL     1       5.468   4.490  18.272  0.00  0.00    +0.000 S 
ATOM      7  H   UNL     1       8.722   5.768  19.090  0.00  0.00    +0.000 HD
ATOM      8  H   UNL     1       7.397   5.520  20.130  0.00  0.00    +0.000 HD
ENDROOT
BRANCH   4   9
ATOM      9  C   UNL     1       6.786   4.569  14.639  0.00  0.00    +0.000 A 
ATOM     10  C   UNL     1       6.078   3.676  13.834  0.00  0.00    +0.000 A 
ATOM     11  C   UNL     1       6.341   3.644  12.466  0.00  0.00    +0.000 A 
ATOM     12  C   UNL     1       7.299   4.500  11.938  0.00  0.00    +0.000 A 
ATOM     13  C   UNL     1       7.959   5.357  12.803  0.00  0.00    +0.000 A 
ATOM     14  N   UNL     1       7.725   5.411  14.132  0.00  0.00    +0.000 NA
ENDBRANCH   4   9
TORSDOF 1
ENDMDL
MODEL 4
REMARK VINA RESULT:      -5.9      3.662      6.460
REMARK  Name = 
REMARK  1 active torsions:
REMARK  status: ('A' for Active; 'I' for Inactive)
REMARK    1  A    between atoms: C_4  and  C_5
REMARK                            x       y       z     vdW  Elec       q    Type
REMARK                         _______ _______ _______ _____ _____    ______ ____
ROOT
ATOM      1  N   UNL     1       7.915   4.335  17.821  0.00  0.00    +0.000 N 
ATOM      2  C   UNL     1       6.648   4.722  18.044  0.00  0.00    +0.000 A 
ATOM      3  N   UNL     1       5.822   4.095  18.843  0.00  0.00    +0.000 NA
ATOM      4  C   UNL     1       4.580   4.757  18.839  0.00  0.00    +0.000 A 
ATOM      5  N   UNL     1       4.449   5.839  18.057  0.00  0.00    +0.000 NA
ATOM      6  S   UNL     1       5.911   6.083  17.301  0.00  0.00    +0.000 S 
ATOM      7  H   UNL     1       8.141   3.383  18.089  0.00  0.00    +0.000 HD
ATOM      8  H   UNL     1       8.376   4.651  16.976  0.00  0.00    +0.000 HD
ENDROOT
BRANCH   4   9
ATOM      9  C   UNL     1       3.480   4.245  19.677  0.00  0.00    +0.000 A 
ATOM     10  C   UNL     1       2.283   4.956  19.771  0.00  0.00    +0.000 A 
ATOM     11  C   UNL     1       1.260   4.456  20.572  0.00  0.00    +0.000 A 
ATOM     12  C   UNL     1       1.453   3.262  21.255  0.00  0.00    +0.000 A 
ATOM     13  C   UNL     1       2.668   2.615  21.110  0.00  0.00    +0.000 A 
ATOM     14  N   UNL     1       3.679   3.075  20.342  0.00  0.00    +0.000 NA
ENDBRANCH   4   9
TORSDOF 1
ENDMDL
MODEL 5
REMARK VINA RESULT:      -5.9      4.197      5.503
REMARK  Name = 
REMARK  1 active torsions:
REMARK  status: ('A' for Active; 'I' for Inactive)
REMARK    1  A    between atoms: C_4  and  C_5
REMARK                            x       y       z     vdW  Elec       q    Type
REMARK                         _______ _______ _______ _____ _____    ______ ____
ROOT
ATOM      1  N   UNL     1       8.377   5.572  20.019  0.00  0.00    +0.000 N 
ATOM      2  C   UNL     1       7.260   5.640  19.277  0.00  0.00    +0.000 A 
ATOM      3  N   UNL     1       6.134   5.053  19.595  0.00  0.00    +0.000 NA
ATOM      4  C   UNL     1       5.174   5.320  18.601  0.00  0.00    +0.000 A 
ATOM      5  N   UNL     1       5.549   6.068  17.552  0.00  0.00    +0.000 NA
ATOM      6  S   UNL     1       7.141   6.490  17.788  0.00  0.00    +0.000 S 
ATOM      7  H   UNL     1       8.406   4.831  20.710  0.00  0.00    +0.000 HD
ATOM      8  H   UNL     1       9.267   5.760  19.572  0.00  0.00    +0.000 HD
ENDROOT
BRANCH   4   9
ATOM      9  C   UNL     1       3.811   4.773  18.740  0.00  0.00    +0.000 A 
ATOM     10  C   UNL     1       2.944   4.771  17.647  0.00  0.00    +0.000 A 
ATOM     11  C   UNL     1       1.661   4.253  17.803  0.00  0.00    +0.000 A 
ATOM     12  C   UNL     1       1.276   3.751  19.040  0.00  0.00    +0.000 A 
ATOM     13  C   UNL     1       2.193   3.788  20.075  0.00  0.00    +0.000 A 
ATOM     14  N   UNL     1       3.444   4.284  19.955  0.00  0.00    +0.000 NA
ENDBRANCH   4   9
TORSDOF 1
ENDMDL
MODEL 6
REMARK VINA RESULT:      -5.8      3.867      5.007
REMARK  Name = 
REMARK  1 active torsions:
REMARK  status: ('A' for Active; 'I' for Inactive)
REMARK    1  A    between atoms: C_4  and  C_5
REMARK                            x       y       z     vdW  Elec       q    Type
REMARK                         _______ _______ _______ _____ _____    ______ ____
ROOT
ATOM      1  N   UNL     1       8.259   5.607  20.005  0.00  0.00    +0.000 N 
ATOM      2  C   UNL     1       7.240   5.563  19.131  0.00  0.00    +0.000 A 
ATOM      3  N   UNL     1       6.162   4.840  19.301  0.00  0.00    +0.000 NA
ATOM      4  C   UNL     1       5.305   5.018  18.199  0.00  0.00    +0.000 A 
ATOM      5  N   UNL     1       5.713   5.832  17.213  0.00  0.00    +0.000 NA
ATOM      6  S   UNL     1       7.202   6.430  17.649  0.00  0.00    +0.000 S 
ATOM      7  H   UNL     1       8.291   4.857  20.686  0.00  0.00    +0.000 HD
ATOM      8  H   UNL     1       9.167   5.909  19.674  0.00  0.00    +0.000 HD
ENDROOT
BRANCH   4   9
ATOM      9  C   UNL     1       4.010   4.313  18.162  0.00  0.00    +0.000 A 
ATOM     10  C   UNL     1       2.826   5.012  18.401  0.00  0.00    +0.000 A 
ATOM     11  C   UNL     1       1.616   4.324  18.365  0.00  0.00    +0.000 A 
ATOM     12  C   UNL     1       1.616   2.962  18.093  0.00  0.00    +0.000 A 
ATOM     13  C   UNL     1       2.831   2.340  17.868  0.00  0.00    +0.000 A 
ATOM     14  N   UNL     1       4.020   2.979  17.895  0.00  0.00    +0.000 NA
ENDBRANCH   4   9
TORSDOF 1
ENDMDL
MODEL 7
REMARK VINA RESULT:      -5.8      4.497      6.207
REMARK  Name = 
REMARK  1 active torsions:
REMARK  status: ('A' for Active; 'I' for Inactive)
REMARK    1  A    between atoms: C_4  and  C_5
REMARK                            x       y       z     vdW  Elec       q    Type
REMARK                         _______ _______ _______ _____ _____    ______ ____
ROOT
ATOM      1  N   UNL     1       8.157   5.575  19.696  0.00  0.00    +0.000 N 
ATOM      2  C   UNL     1       6.912   5.522  19.195  0.00  0.00    +0.000 A 
ATOM      3  N   UNL     1       5.913   4.914  19.783  0.00  0.00    +0.000 NA
ATOM      4  C   UNL     1       4.758   5.042  18.988  0.00  0.00    +0.000 A 
ATOM      5  N   UNL     1       4.867   5.707  17.828  0.00  0.00    +0.000 NA
ATOM      6  S   UNL     1       6.443   6.223  17.698  0.00  0.00    +0.000 S 
ATOM      7  H   UNL     1       8.371   4.903  20.424  0.00  0.00    +0.000 HD
ATOM      8  H   UNL     1       8.925   5.762  19.062  0.00  0.00    +0.000 HD
ENDROOT
BRANCH   4   9
ATOM      9  C   UNL     1       3.489   4.447  19.447  0.00  0.00    +0.000 A 
ATOM     10  C   UNL     1       2.553   5.232  20.120  0.00  0.00    +0.000 A 
ATOM     11  C   UNL     1       1.363   4.648  20.548  0.00  0.00    +0.000 A 
ATOM     12  C   UNL     1       1.137   3.301  20.295  0.00  0.00    +0.000 A 
ATOM     13  C   UNL     1       2.115   2.590  19.622  0.00  0.00    +0.000 A 
ATOM     14  N   UNL     1       3.277   3.128  19.194  0.00  0.00    +0.000 NA
ENDBRANCH   4   9
TORSDOF 1
ENDMDL
MODEL 8
REMARK VINA RESULT:      -5.8      3.406      5.234
REMARK  Name = 
REMARK  1 active torsions:
REMARK  status: ('A' for Active; 'I' for Inactive)
REMARK    1  A    between atoms: C_4  and  C_5
REMARK                            x       y       z     vdW  Elec       q    Type
REMARK                         _______ _______ _______ _____ _____    ______ ____
ROOT
ATOM      1  N   UNL     1       7.682   6.900  16.678  0.00  0.00    +0.000 N 
ATOM      2  C   UNL     1       6.992   6.143  17.546  0.00  0.00    +0.000 A 
ATOM      3  N   UNL     1       5.808   5.642  17.299  0.00  0.00    +0.000 NA
ATOM      4  C   UNL     1       5.370   4.910  18.419  0.00  0.00    +0.000 A 
ATOM      5  N   UNL     1       6.176   4.862  19.490  0.00  0.00    +0.000 NA
ATOM      6  S   UNL     1       7.545   5.731  19.119  0.00  0.00    +0.000 S 
ATOM      7  H   UNL     1       7.147   7.298  15.914  0.00  0.00    +0.000 HD
ATOM      8  H   UNL     1       8.410   7.507  17.037  0.00  0.00    +0.000 HD
ENDROOT
BRANCH   4   9
ATOM      9  C   UNL     1       4.059   4.235  18.380  0.00  0.00    +0.000 A 
ATOM     10  C   UNL     1       2.957   4.881  17.818  0.00  0.00    +0.000 A 
ATOM     11  C   UNL     1       1.729   4.226  17.795  0.00  0.00    +0.000 A 
ATOM     12  C   UNL     1       1.630   2.948  18.330  0.00  0.00    +0.000 A 
ATOM     13  C   UNL     1       2.768   2.374  18.869  0.00  0.00    +0.000 A 
ATOM     14  N   UNL     1       3.973   2.984  18.905  0.00  0.00    +0.000 NA
ENDBRANCH   4   9
TORSDOF 1
ENDMDL
MODEL 9
REMARK VINA RESULT:      -5.8      3.590      6.205
REMARK  Name = 
REMARK  1 active torsions:
REMARK  status: ('A' for Active; 'I' for Inactive)
REMARK    1  A    between atoms: C_4  and  C_5
REMARK                            x       y       z     vdW  Elec       q    Type
REMARK                         _______ _______ _______ _____ _____    ______ ____
ROOT
ATOM      1  N   UNL     1       7.852   4.408  18.003  0.00  0.00    +0.000 N 
ATOM      2  C   UNL     1       6.536   4.307  17.752  0.00  0.00    +0.000 A 
ATOM      3  N   UNL     1       5.625   4.160  18.680  0.00  0.00    +0.000 NA
ATOM      4  C   UNL     1       4.356   4.078  18.076  0.00  0.00    +0.000 A 
ATOM      5  N   UNL     1       4.294   4.142  16.737  0.00  0.00    +0.000 NA
ATOM      6  S   UNL     1       5.849   4.333  16.178  0.00  0.00    +0.000 S 
ATOM      7  H   UNL     1       8.153   4.104  18.922  0.00  0.00    +0.000 HD
ATOM      8  H   UNL     1       8.504   4.193  17.258  0.00  0.00    +0.000 HD
ENDROOT
BRANCH   4   9
ATOM      9  C   UNL     1       3.157   3.922  18.920  0.00  0.00    +0.000 A 
ATOM     10  C   UNL     1       2.106   3.107  18.497  0.00  0.00    +0.000 A 
ATOM     11  C   UNL     1       0.982   2.977  19.309  0.00  0.00    +0.000 A 
ATOM     12  C   UNL     1       0.934   3.660  20.518  0.00  0.00    +0.000 A 
ATOM     13  C   UNL     1       2.016   4.449  20.867  0.00  0.00    +0.000 A 
ATOM     14  N   UNL     1       3.119   4.594  20.101  0.00  0.00    +0.000 NA
ENDBRANCH   4   9
TORSDOF 1
ENDMDL
