MODEL 1
REMARK VINA RESULT:      -8.0      0.000      0.000
REMARK  Name = 
REMARK  7 active torsions:
REMARK  status: ('A' for Active; 'I' for Inactive)
REMARK    1  A    between atoms: C_1  and  S_2
REMARK    2  A    between atoms: S_2  and  C_3
REMARK    3  A    between atoms: C_12  and  C_14
REMARK    4  A    between atoms: C_17  and  O_18
REMARK    5  A    between atoms: O_18  and  C_19
REMARK    6  A    between atoms: C_19  and  C_20
REMARK    7  A    between atoms: C_19  and  C_21
REMARK                            x       y       z     vdW  Elec       q    Type
REMARK                         _______ _______ _______ _____ _____    ______ ____
ROOT
ATOM      1  C   UNL     1      -2.444  12.765  21.646  0.00  0.00    +0.000 A 
ATOM      2  N   UNL     1      -2.077  12.072  22.697  0.00  0.00    +0.000 NA
ATOM      3  C   UNL     1      -1.158  11.117  22.321  0.00  0.00    +0.000 A 
ATOM      4  C   UNL     1      -0.567  10.162  23.168  0.00  0.00    +0.000 A 
ATOM      5  C   UNL     1       0.330   9.215  22.646  0.00  0.00    +0.000 A 
ATOM      6  C   UNL     1       0.659   9.216  21.278  0.00  0.00    +0.000 A 
ATOM      7  N   UNL     1       1.495   8.327  20.646  0.00  0.00    +0.000 NA
ATOM      8  C   UNL     1       1.574   8.616  19.375  0.00  0.00    +0.000 A 
ATOM      9  N   UNL     1       2.296   7.948  18.413  0.00  0.00    +0.000 N 
ATOM     10  C   UNL     1       2.887   6.730  18.708  0.00  0.00    +0.000 C 
ATOM     11  O   UNL     1       2.751   6.103  19.756  0.00  0.00    +0.000 OA
ATOM     12  S   UNL     1       0.692   9.997  18.863  0.00  0.00    +0.000 S 
ATOM     13  C   UNL     1       0.095  10.185  20.456  0.00  0.00    +0.000 A 
ATOM     14  C   UNL     1      -0.817  11.118  20.976  0.00  0.00    +0.000 A 
ATOM     15  S   UNL     1      -1.670  12.349  20.163  0.00  0.00    +0.000 S 
ATOM     16  H   UNL     1       2.386   8.394  17.515  0.00  0.00    +0.000 HD
ENDROOT
BRANCH  10  17
ATOM     17  C   UNL     1       3.770   6.114  17.667  0.00  0.00    +0.000 A 
ATOM     18  C   UNL     1       3.697   4.722  17.505  0.00  0.00    +0.000 A 
ATOM     19  C   UNL     1       4.494   4.068  16.561  0.00  0.00    +0.000 A 
ATOM     20  C   UNL     1       5.364   4.790  15.747  0.00  0.00    +0.000 A 
ATOM     21  C   UNL     1       5.440   6.175  15.894  0.00  0.00    +0.000 A 
ATOM     22  C   UNL     1       4.639   6.839  16.843  0.00  0.00    +0.000 A 
BRANCH  20  23
ATOM     23  O   UNL     1       6.123   4.028  14.904  0.00  0.00    +0.000 OA
BRANCH  23  24
ATOM     24  C   UNL     1       6.267   4.445  13.542  0.00  0.00    +0.000 C 
ATOM     25  C   UNL     1       7.698   4.931  13.328  0.00  0.00    +0.000 C 
ATOM     26  C   UNL     1       5.997   3.224  12.665  0.00  0.00    +0.000 C 
ENDBRANCH  23  24
ENDBRANCH  20  23
ENDBRANCH  10  17
BRANCH   1  28
ATOM     27  C   UNL     1      -3.483  14.470  23.528  0.00  0.00    +0.000 C 
ATOM     28  S   UNL     1      -3.669  14.014  21.782  0.00  0.00    +0.000 S 
ENDBRANCH   1  28
TORSDOF 4
ENDMDL
MODEL 2
REMARK VINA RESULT:      -7.7      3.333     10.793
REMARK  Name = 
REMARK  7 active torsions:
REMARK  status: ('A' for Active; 'I' for Inactive)
REMARK    1  A    between atoms: C_1  and  S_2
REMARK    2  A    between atoms: S_2  and  C_3
REMARK    3  A    between atoms: C_12  and  C_14
REMARK    4  A    between atoms: C_17  and  O_18
REMARK    5  A    between atoms: O_18  and  C_19
REMARK    6  A    between atoms: C_19  and  C_20
REMARK    7  A    between atoms: C_19  and  C_21
REMARK                            x       y       z     vdW  Elec       q    Type
REMARK                         _______ _______ _______ _____ _____    ______ ____
ROOT
ATOM      1  C   UNL     1       5.889   5.047  15.923  0.00  0.00    +0.000 A 
ATOM      2  N   UNL     1       5.654   4.243  16.932  0.00  0.00    +0.000 NA
ATOM      3  C   UNL     1       4.744   4.830  17.785  0.00  0.00    +0.000 A 
ATOM      4  C   UNL     1       4.277   4.284  18.994  0.00  0.00    +0.000 A 
ATOM      5  C   UNL     1       3.375   5.007  19.793  0.00  0.00    +0.000 A 
ATOM      6  C   UNL     1       2.916   6.275  19.389  0.00  0.00    +0.000 A 
ATOM      7  N   UNL     1       2.061   7.087  20.094  0.00  0.00    +0.000 NA
ATOM      8  C   UNL     1       1.849   8.192  19.430  0.00  0.00    +0.000 A 
ATOM      9  N   UNL     1       1.066   9.256  19.815  0.00  0.00    +0.000 N 
ATOM     10  C   UNL     1       0.557   9.316  21.103  0.00  0.00    +0.000 C 
ATOM     11  O   UNL     1       0.820   8.534  22.013  0.00  0.00    +0.000 OA
ATOM     12  S   UNL     1       2.619   8.308  17.900  0.00  0.00    +0.000 S 
ATOM     13  C   UNL     1       3.358   6.789  18.176  0.00  0.00    +0.000 A 
ATOM     14  C   UNL     1       4.275   6.074  17.389  0.00  0.00    +0.000 A 
ATOM     15  S   UNL     1       4.994   6.520  15.910  0.00  0.00    +0.000 S 
ATOM     16  H   UNL     1       0.872   9.957  19.119  0.00  0.00    +0.000 HD
ENDROOT
BRANCH  10  17
ATOM     17  C   UNL     1      -0.395  10.426  21.424  0.00  0.00    +0.000 A 
ATOM     18  C   UNL     1      -0.734  10.610  22.773  0.00  0.00    +0.000 A 
ATOM     19  C   UNL     1      -1.623  11.618  23.157  0.00  0.00    +0.000 A 
ATOM     20  C   UNL     1      -2.176  12.475  22.207  0.00  0.00    +0.000 A 
ATOM     21  C   UNL     1      -1.841  12.305  20.863  0.00  0.00    +0.000 A 
ATOM     22  C   UNL     1      -0.945  11.292  20.471  0.00  0.00    +0.000 A 
BRANCH  20  23
ATOM     23  O   UNL     1      -3.068  13.381  22.705  0.00  0.00    +0.000 OA
BRANCH  23  24
ATOM     24  C   UNL     1      -3.558  13.204  24.038  0.00  0.00    +0.000 C 
ATOM     25  C   UNL     1      -3.309  14.488  24.825  0.00  0.00    +0.000 C 
ATOM     26  C   UNL     1      -5.059  12.939  23.937  0.00  0.00    +0.000 C 
ENDBRANCH  23  24
ENDBRANCH  20  23
ENDBRANCH  10  17
BRANCH   1  28
ATOM     27  C   UNL     1       5.998   3.789  13.486  0.00  0.00    +0.000 C 
ATOM     28  S   UNL     1       7.067   4.619  14.695  0.00  0.00    +0.000 S 
ENDBRANCH   1  28
TORSDOF 4
ENDMDL
MODEL 3
REMARK VINA RESULT:      -7.3      3.357     10.750
REMARK  Name = 
REMARK  7 active torsions:
REMARK  status: ('A' for Active; 'I' for Inactive)
REMARK    1  A    between atoms: C_1  and  S_2
REMARK    2  A    between atoms: S_2  and  C_3
REMARK    3  A    between atoms: C_12  and  C_14
REMARK    4  A    between atoms: C_17  and  O_18
REMARK    5  A    between atoms: O_18  and  C_19
REMARK    6  A    between atoms: C_19  and  C_20
REMARK    7  A    between atoms: C_19  and  C_21
REMARK                            x       y       z     vdW  Elec       q    Type
REMARK                         _______ _______ _______ _____ _____    ______ ____
ROOT
ATOM      1  C   UNL     1       5.986   4.866  15.442  0.00  0.00    +0.000 A 
ATOM      2  N   UNL     1       5.714   3.983  16.373  0.00  0.00    +0.000 NA
ATOM      3  C   UNL     1       4.831   4.528  17.279  0.00  0.00    +0.000 A 
ATOM      4  C   UNL     1       4.338   3.893  18.434  0.00  0.00    +0.000 A 
ATOM      5  C   UNL     1       3.468   4.578  19.299  0.00  0.00    +0.000 A 
ATOM      6  C   UNL     1       3.067   5.897  19.016  0.00  0.00    +0.000 A 
ATOM      7  N   UNL     1       2.248   6.678  19.796  0.00  0.00    +0.000 NA
ATOM      8  C   UNL     1       2.086   7.848  19.238  0.00  0.00    +0.000 A 
ATOM      9  N   UNL     1       1.352   8.906  19.723  0.00  0.00    +0.000 N 
ATOM     10  C   UNL     1       0.844   8.868  21.012  0.00  0.00    +0.000 C 
ATOM     11  O   UNL     1       1.070   7.994  21.844  0.00  0.00    +0.000 OA
ATOM     12  S   UNL     1       2.863   8.072  17.724  0.00  0.00    +0.000 S 
ATOM     13  C   UNL     1       3.533   6.502  17.855  0.00  0.00    +0.000 A 
ATOM     14  C   UNL     1       4.418   5.823  17.003  0.00  0.00    +0.000 A 
ATOM     15  S   UNL     1       5.158   6.372  15.569  0.00  0.00    +0.000 S 
ATOM     16  H   UNL     1       1.190   9.676  19.096  0.00  0.00    +0.000 HD
ENDROOT
BRANCH  10  17
ATOM     17  C   UNL     1      -0.057   9.985  21.438  0.00  0.00    +0.000 A 
ATOM     18  C   UNL     1      -0.550  10.831  20.432  0.00  0.00    +0.000 A 
ATOM     19  C   UNL     1      -1.391  11.903  20.746  0.00  0.00    +0.000 A 
ATOM     20  C   UNL     1      -1.772  12.141  22.065  0.00  0.00    +0.000 A 
ATOM     21  C   UNL     1      -1.294  11.303  23.073  0.00  0.00    +0.000 A 
ATOM     22  C   UNL     1      -0.447  10.220  22.761  0.00  0.00    +0.000 A 
BRANCH  20  23
ATOM     23  O   UNL     1      -2.552  13.248  22.244  0.00  0.00    +0.000 OA
BRANCH  23  24
ATOM     24  C   UNL     1      -2.630  13.831  23.550  0.00  0.00    +0.000 C 
ATOM     25  C   UNL     1      -2.160  15.280  23.467  0.00  0.00    +0.000 C 
ATOM     26  C   UNL     1      -4.095  13.783  23.979  0.00  0.00    +0.000 C 
ENDBRANCH  23  24
ENDBRANCH  20  23
ENDBRANCH  10  17
BRANCH   1  28
ATOM     27  C   UNL     1       6.092   3.590  13.015  0.00  0.00    +0.000 C 
ATOM     28  S   UNL     1       7.146   4.502  14.177  0.00  0.00    +0.000 S 
ENDBRANCH   1  28
TORSDOF 4
ENDMDL
MODEL 4
REMARK VINA RESULT:      -7.3      1.233      1.675
REMARK  Name = 
REMARK  7 active torsions:
REMARK  status: ('A' for Active; 'I' for Inactive)
REMARK    1  A    between atoms: C_1  and  S_2
REMARK    2  A    between atoms: S_2  and  C_3
REMARK    3  A    between atoms: C_12  and  C_14
REMARK    4  A    between atoms: C_17  and  O_18
REMARK    5  A    between atoms: O_18  and  C_19
REMARK    6  A    between atoms: C_19  and  C_20
REMARK    7  A    between atoms: C_19  and  C_21
REMARK                            x       y       z     vdW  Elec       q    Type
REMARK                         _______ _______ _______ _____ _____    ______ ____
ROOT
ATOM      1  C   UNL     1      -1.445  12.272  21.554  0.00  0.00    +0.000 A 
ATOM      2  N   UNL     1      -1.195  11.423  22.523  0.00  0.00    +0.000 NA
ATOM      3  C   UNL     1      -0.368  10.425  22.058  0.00  0.00    +0.000 A 
ATOM      4  C   UNL     1       0.085   9.317  22.798  0.00  0.00    +0.000 A 
ATOM      5  C   UNL     1       0.898   8.347  22.190  0.00  0.00    +0.000 A 
ATOM      6  C   UNL     1       1.281   8.474  20.841  0.00  0.00    +0.000 A 
ATOM      7  N   UNL     1       2.045   7.580  20.129  0.00  0.00    +0.000 NA
ATOM      8  C   UNL     1       2.205   8.008  18.906  0.00  0.00    +0.000 A 
ATOM      9  N   UNL     1       2.892   7.384  17.890  0.00  0.00    +0.000 N 
ATOM     10  C   UNL     1       3.340   6.082  18.050  0.00  0.00    +0.000 C 
ATOM     11  O   UNL     1       3.096   5.355  19.009  0.00  0.00    +0.000 OA
ATOM     12  S   UNL     1       1.495   9.528  18.542  0.00  0.00    +0.000 S 
ATOM     13  C   UNL     1       0.856   9.589  20.129  0.00  0.00    +0.000 A 
ATOM     14  C   UNL     1       0.027  10.548  20.733  0.00  0.00    +0.000 A 
ATOM     15  S   UNL     1      -0.659  11.952  20.054  0.00  0.00    +0.000 S 
ATOM     16  H   UNL     1       3.065   7.921  17.056  0.00  0.00    +0.000 HD
ENDROOT
BRANCH  10  17
ATOM     17  C   UNL     1       4.195   5.502  16.966  0.00  0.00    +0.000 A 
ATOM     18  C   UNL     1       4.840   6.404  16.106  0.00  0.00    +0.000 A 
ATOM     19  C   UNL     1       5.650   5.945  15.063  0.00  0.00    +0.000 A 
ATOM     20  C   UNL     1       5.847   4.579  14.869  0.00  0.00    +0.000 A 
ATOM     21  C   UNL     1       5.216   3.673  15.722  0.00  0.00    +0.000 A 
ATOM     22  C   UNL     1       4.401   4.131  16.775  0.00  0.00    +0.000 A 
BRANCH  20  23
ATOM     23  O   UNL     1       6.616   4.260  13.785  0.00  0.00    +0.000 OA
BRANCH  23  24
ATOM     24  C   UNL     1       6.140   3.264  12.874  0.00  0.00    +0.000 C 
ATOM     25  C   UNL     1       4.838   3.754  12.249  0.00  0.00    +0.000 C 
ATOM     26  C   UNL     1       7.205   3.096  11.792  0.00  0.00    +0.000 C 
ENDBRANCH  23  24
ENDBRANCH  20  23
ENDBRANCH  10  17
BRANCH   1  28
ATOM     27  C   UNL     1      -2.196  14.605  20.321  0.00  0.00    +0.000 C 
ATOM     28  S   UNL     1      -2.536  13.622  21.808  0.00  0.00    +0.000 S 
ENDBRANCH   1  28
TORSDOF 4
ENDMDL
MODEL 5
REMARK VINA RESULT:      -7.1      1.030      1.311
REMARK  Name = 
REMARK  7 active torsions:
REMARK  status: ('A' for Active; 'I' for Inactive)
REMARK    1  A    between atoms: C_1  and  S_2
REMARK    2  A    between atoms: S_2  and  C_3
REMARK    3  A    between atoms: C_12  and  C_14
REMARK    4  A    between atoms: C_17  and  O_18
REMARK    5  A    between atoms: O_18  and  C_19
REMARK    6  A    between atoms: C_19  and  C_20
REMARK    7  A    between atoms: C_19  and  C_21
REMARK                            x       y       z     vdW  Elec       q    Type
REMARK                         _______ _______ _______ _____ _____    ______ ____
ROOT
ATOM      1  C   UNL     1      -2.827  13.476  21.404  0.00  0.00    +0.000 A 
ATOM      2  N   UNL     1      -2.526  12.858  22.521  0.00  0.00    +0.000 NA
ATOM      3  C   UNL     1      -1.639  11.837  22.257  0.00  0.00    +0.000 A 
ATOM      4  C   UNL     1      -1.119  10.932  23.200  0.00  0.00    +0.000 A 
ATOM      5  C   UNL     1      -0.249   9.908  22.790  0.00  0.00    +0.000 A 
ATOM      6  C   UNL     1       0.125   9.782  21.439  0.00  0.00    +0.000 A 
ATOM      7  N   UNL     1       0.940   8.809  20.912  0.00  0.00    +0.000 NA
ATOM      8  C   UNL     1       1.073   8.989  19.626  0.00  0.00    +0.000 A 
ATOM      9  N   UNL     1       1.795   8.213  18.748  0.00  0.00    +0.000 N 
ATOM     10  C   UNL     1       2.322   7.000  19.162  0.00  0.00    +0.000 C 
ATOM     11  O   UNL     1       2.124   6.469  20.252  0.00  0.00    +0.000 OA
ATOM     12  S   UNL     1       0.271  10.358  18.971  0.00  0.00    +0.000 S 
ATOM     13  C   UNL     1      -0.369  10.702  20.521  0.00  0.00    +0.000 A 
ATOM     14  C   UNL     1      -1.254  11.712  20.930  0.00  0.00    +0.000 A 
ATOM     15  S   UNL     1      -2.025  12.907  19.990  0.00  0.00    +0.000 S 
ATOM     16  H   UNL     1       1.935   8.579  17.821  0.00  0.00    +0.000 HD
ENDROOT
BRANCH  10  17
ATOM     17  C   UNL     1       3.210   6.264  18.207  0.00  0.00    +0.000 A 
ATOM     18  C   UNL     1       3.082   4.867  18.159  0.00  0.00    +0.000 A 
ATOM     19  C   UNL     1       3.879   4.104  17.301  0.00  0.00    +0.000 A 
ATOM     20  C   UNL     1       4.805   4.719  16.461  0.00  0.00    +0.000 A 
ATOM     21  C   UNL     1       4.936   6.108  16.495  0.00  0.00    +0.000 A 
ATOM     22  C   UNL     1       4.134   6.881  17.357  0.00  0.00    +0.000 A 
BRANCH  20  23
ATOM     23  O   UNL     1       5.557   3.859  15.711  0.00  0.00    +0.000 OA
BRANCH  23  24
ATOM     24  C   UNL     1       6.974   4.055  15.655  0.00  0.00    +0.000 C 
ATOM     25  C   UNL     1       7.280   5.112  14.599  0.00  0.00    +0.000 C 
ATOM     26  C   UNL     1       7.417   4.551  17.031  0.00  0.00    +0.000 C 
ENDBRANCH  23  24
ENDBRANCH  20  23
ENDBRANCH  10  17
BRANCH   1  28
ATOM     27  C   UNL     1      -4.331  14.942  23.171  0.00  0.00    +0.000 C 
ATOM     28  S   UNL     1      -3.998  14.783  21.394  0.00  0.00    +0.000 S 
ENDBRANCH   1  28
TORSDOF 4
ENDMDL
MODEL 6
REMARK VINA RESULT:      -7.1      0.853      1.042
REMARK  Name = 
REMARK  7 active torsions:
REMARK  status: ('A' for Active; 'I' for Inactive)
REMARK    1  A    between atoms: C_1  and  S_2
REMARK    2  A    between atoms: S_2  and  C_3
REMARK    3  A    between atoms: C_12  and  C_14
REMARK    4  A    between atoms: C_17  and  O_18
REMARK    5  A    between atoms: O_18  and  C_19
REMARK    6  A    between atoms: C_19  and  C_20
REMARK    7  A    between atoms: C_19  and  C_21
REMARK                            x       y       z     vdW  Elec       q    Type
REMARK                         _______ _______ _______ _____ _____    ______ ____
ROOT
ATOM      1  C   UNL     1      -1.918  12.822  21.178  0.00  0.00    +0.000 A 
ATOM      2  N   UNL     1      -1.747  12.005  22.190  0.00  0.00    +0.000 NA
ATOM      3  C   UNL     1      -0.878  11.000  21.828  0.00  0.00    +0.000 A 
ATOM      4  C   UNL     1      -0.483   9.920  22.638  0.00  0.00    +0.000 A 
ATOM      5  C   UNL     1       0.384   8.937  22.131  0.00  0.00    +0.000 A 
ATOM      6  C   UNL     1       0.878   9.026  20.816  0.00  0.00    +0.000 A 
ATOM      7  N   UNL     1       1.703   8.117  20.199  0.00  0.00    +0.000 NA
ATOM      8  C   UNL     1       1.964   8.508  18.980  0.00  0.00    +0.000 A 
ATOM      9  N   UNL     1       2.736   7.858  18.045  0.00  0.00    +0.000 N 
ATOM     10  C   UNL     1       3.176   6.565  18.284  0.00  0.00    +0.000 C 
ATOM     11  O   UNL     1       2.856   5.865  19.241  0.00  0.00    +0.000 OA
ATOM     12  S   UNL     1       1.278  10.009  18.511  0.00  0.00    +0.000 S 
ATOM     13  C   UNL     1       0.508  10.115  20.035  0.00  0.00    +0.000 A 
ATOM     14  C   UNL     1      -0.374  11.085  20.538  0.00  0.00    +0.000 A 
ATOM     15  S   UNL     1      -1.008  12.463  19.760  0.00  0.00    +0.000 S 
ATOM     16  H   UNL     1       2.976   8.370  17.213  0.00  0.00    +0.000 HD
ENDROOT
BRANCH  10  17
ATOM     17  C   UNL     1       4.122   5.958  17.294  0.00  0.00    +0.000 A 
ATOM     18  C   UNL     1       4.309   4.568  17.353  0.00  0.00    +0.000 A 
ATOM     19  C   UNL     1       5.182   3.924  16.472  0.00  0.00    +0.000 A 
ATOM     20  C   UNL     1       5.870   4.649  15.501  0.00  0.00    +0.000 A 
ATOM     21  C   UNL     1       5.688   6.031  15.429  0.00  0.00    +0.000 A 
ATOM     22  C   UNL     1       4.809   6.684  16.314  0.00  0.00    +0.000 A 
BRANCH  20  23
ATOM     23  O   UNL     1       6.730   3.911  14.738  0.00  0.00    +0.000 OA
BRANCH  23  24
ATOM     24  C   UNL     1       6.407   3.685  13.362  0.00  0.00    +0.000 C 
ATOM     25  C   UNL     1       4.909   3.902  13.170  0.00  0.00    +0.000 C 
ATOM     26  C   UNL     1       7.190   4.706  12.540  0.00  0.00    +0.000 C 
ENDBRANCH  23  24
ENDBRANCH  20  23
ENDBRANCH  10  17
BRANCH   1  28
ATOM     27  C   UNL     1      -1.876  15.530  21.620  0.00  0.00    +0.000 C 
ATOM     28  S   UNL     1      -3.034  14.171  21.296  0.00  0.00    +0.000 S 
ENDBRANCH   1  28
TORSDOF 4
ENDMDL
MODEL 7
REMARK VINA RESULT:      -7.1      1.364      1.939
REMARK  Name = 
REMARK  7 active torsions:
REMARK  status: ('A' for Active; 'I' for Inactive)
REMARK    1  A    between atoms: C_1  and  S_2
REMARK    2  A    between atoms: S_2  and  C_3
REMARK    3  A    between atoms: C_12  and  C_14
REMARK    4  A    between atoms: C_17  and  O_18
REMARK    5  A    between atoms: O_18  and  C_19
REMARK    6  A    between atoms: C_19  and  C_20
REMARK    7  A    between atoms: C_19  and  C_21
REMARK                            x       y       z     vdW  Elec       q    Type
REMARK                         _______ _______ _______ _____ _____    ______ ____
ROOT
ATOM      1  C   UNL     1      -2.471  13.605  21.201  0.00  0.00    +0.000 A 
ATOM      2  N   UNL     1      -2.389  12.977  22.350  0.00  0.00    +0.000 NA
ATOM      3  C   UNL     1      -1.578  11.872  22.212  0.00  0.00    +0.000 A 
ATOM      4  C   UNL     1      -1.284  10.934  23.219  0.00  0.00    +0.000 A 
ATOM      5  C   UNL     1      -0.470   9.826  22.934  0.00  0.00    +0.000 A 
ATOM      6  C   UNL     1       0.073   9.644  21.648  0.00  0.00    +0.000 A 
ATOM      7  N   UNL     1       0.855   8.590  21.241  0.00  0.00    +0.000 NA
ATOM      8  C   UNL     1       1.181   8.738  19.985  0.00  0.00    +0.000 A 
ATOM      9  N   UNL     1       1.938   7.884  19.217  0.00  0.00    +0.000 N 
ATOM     10  C   UNL     1       2.282   6.631  19.701  0.00  0.00    +0.000 C 
ATOM     11  O   UNL     1       1.884   6.138  20.753  0.00  0.00    +0.000 OA
ATOM     12  S   UNL     1       0.614  10.168  19.225  0.00  0.00    +0.000 S 
ATOM     13  C   UNL     1      -0.197  10.595  20.670  0.00  0.00    +0.000 A 
ATOM     14  C   UNL     1      -1.027  11.691  20.951  0.00  0.00    +0.000 A 
ATOM     15  S   UNL     1      -1.541  12.941  19.912  0.00  0.00    +0.000 S 
ATOM     16  H   UNL     1       2.240   8.221  18.318  0.00  0.00    +0.000 HD
ENDROOT
BRANCH  10  17
ATOM     17  C   UNL     1       3.217   5.799  18.879  0.00  0.00    +0.000 A 
ATOM     18  C   UNL     1       3.643   6.334  17.653  0.00  0.00    +0.000 A 
ATOM     19  C   UNL     1       4.509   5.618  16.822  0.00  0.00    +0.000 A 
ATOM     20  C   UNL     1       4.983   4.365  17.204  0.00  0.00    +0.000 A 
ATOM     21  C   UNL     1       4.571   3.826  18.424  0.00  0.00    +0.000 A 
ATOM     22  C   UNL     1       3.700   4.544  19.266  0.00  0.00    +0.000 A 
BRANCH  20  23
ATOM     23  O   UNL     1       5.779   3.748  16.281  0.00  0.00    +0.000 OA
BRANCH  23  24
ATOM     24  C   UNL     1       7.150   4.147  16.179  0.00  0.00    +0.000 C 
ATOM     25  C   UNL     1       7.257   5.270  15.151  0.00  0.00    +0.000 C 
ATOM     26  C   UNL     1       7.576   4.659  17.554  0.00  0.00    +0.000 C 
ENDBRANCH  23  24
ENDBRANCH  20  23
ENDBRANCH  10  17
BRANCH   1  28
ATOM     27  C   UNL     1      -5.046  14.238  20.493  0.00  0.00    +0.000 C 
ATOM     28  S   UNL     1      -3.497  15.018  21.027  0.00  0.00    +0.000 S 
ENDBRANCH   1  28
TORSDOF 4
ENDMDL
MODEL 8
REMARK VINA RESULT:      -7.0      3.643     10.920
REMARK  Name = 
REMARK  7 active torsions:
REMARK  status: ('A' for Active; 'I' for Inactive)
REMARK    1  A    between atoms: C_1  and  S_2
REMARK    2  A    between atoms: S_2  and  C_3
REMARK    3  A    between atoms: C_12  and  C_14
REMARK    4  A    between atoms: C_17  and  O_18
REMARK    5  A    between atoms: O_18  and  C_19
REMARK    6  A    between atoms: C_19  and  C_20
REMARK    7  A    between atoms: C_19  and  C_21
REMARK                            x       y       z     vdW  Elec       q    Type
REMARK                         _______ _______ _______ _____ _____    ______ ____
ROOT
ATOM      1  C   UNL     1       4.743   4.697  17.181  0.00  0.00    +0.000 A 
ATOM      2  N   UNL     1       4.247   3.970  18.154  0.00  0.00    +0.000 NA
ATOM      3  C   UNL     1       3.422   4.749  18.935  0.00  0.00    +0.000 A 
ATOM      4  C   UNL     1       2.742   4.327  20.092  0.00  0.00    +0.000 A 
ATOM      5  C   UNL     1       1.959   5.237  20.822  0.00  0.00    +0.000 A 
ATOM      6  C   UNL     1       1.833   6.574  20.401  0.00  0.00    +0.000 A 
ATOM      7  N   UNL     1       1.124   7.561  21.043  0.00  0.00    +0.000 NA
ATOM      8  C   UNL     1       1.223   8.682  20.381  0.00  0.00    +0.000 A 
ATOM      9  N   UNL     1       0.669   9.897  20.715  0.00  0.00    +0.000 N 
ATOM     10  C   UNL     1       0.077  10.074  21.956  0.00  0.00    +0.000 C 
ATOM     11  O   UNL     1       0.078   9.257  22.872  0.00  0.00    +0.000 OA
ATOM     12  S   UNL     1       2.129   8.617  18.925  0.00  0.00    +0.000 S 
ATOM     13  C   UNL     1       2.482   6.972  19.238  0.00  0.00    +0.000 A 
ATOM     14  C   UNL     1       3.280   6.066  18.521  0.00  0.00    +0.000 A 
ATOM     15  S   UNL     1       4.205   6.333  17.116  0.00  0.00    +0.000 S 
ATOM     16  H   UNL     1       0.697  10.621  20.016  0.00  0.00    +0.000 HD
ENDROOT
BRANCH  10  17
ATOM     17  C   UNL     1      -0.626  11.371  22.212  0.00  0.00    +0.000 A 
ATOM     18  C   UNL     1      -1.738  11.340  23.068  0.00  0.00    +0.000 A 
ATOM     19  C   UNL     1      -2.455  12.505  23.353  0.00  0.00    +0.000 A 
ATOM     20  C   UNL     1      -2.068  13.727  22.806  0.00  0.00    +0.000 A 
ATOM     21  C   UNL     1      -0.961  13.771  21.959  0.00  0.00    +0.000 A 
ATOM     22  C   UNL     1      -0.233  12.600  21.670  0.00  0.00    +0.000 A 
BRANCH  20  23
ATOM     23  O   UNL     1      -2.882  14.778  23.120  0.00  0.00    +0.000 OA
BRANCH  23  24
ATOM     24  C   UNL     1      -3.683  14.699  24.304  0.00  0.00    +0.000 C 
ATOM     25  C   UNL     1      -3.147  15.699  25.324  0.00  0.00    +0.000 C 
ATOM     26  C   UNL     1      -5.111  15.072  23.910  0.00  0.00    +0.000 C 
ENDBRANCH  23  24
ENDBRANCH  20  23
ENDBRANCH  10  17
BRANCH   1  28
ATOM     27  C   UNL     1       7.458   4.514  16.828  0.00  0.00    +0.000 C 
ATOM     28  S   UNL     1       5.897   4.011  16.052  0.00  0.00    +0.000 S 
ENDBRANCH   1  28
TORSDOF 4
ENDMDL
MODEL 9
REMARK VINA RESULT:      -7.0      3.408     10.652
REMARK  Name = 
REMARK  7 active torsions:
REMARK  status: ('A' for Active; 'I' for Inactive)
REMARK    1  A    between atoms: C_1  and  S_2
REMARK    2  A    between atoms: S_2  and  C_3
REMARK    3  A    between atoms: C_12  and  C_14
REMARK    4  A    between atoms: C_17  and  O_18
REMARK    5  A    between atoms: O_18  and  C_19
REMARK    6  A    between atoms: C_19  and  C_20
REMARK    7  A    between atoms: C_19  and  C_21
REMARK                            x       y       z     vdW  Elec       q    Type
REMARK                         _______ _______ _______ _____ _____    ______ ____
ROOT
ATOM      1  C   UNL     1       5.554   4.927  16.630  0.00  0.00    +0.000 A 
ATOM      2  N   UNL     1       5.179   4.150  17.618  0.00  0.00    +0.000 NA
ATOM      3  C   UNL     1       4.256   4.812  18.397  0.00  0.00    +0.000 A 
ATOM      4  C   UNL     1       3.655   4.312  19.567  0.00  0.00    +0.000 A 
ATOM      5  C   UNL     1       2.753   5.109  20.293  0.00  0.00    +0.000 A 
ATOM      6  C   UNL     1       2.429   6.406  19.855  0.00  0.00    +0.000 A 
ATOM      7  N   UNL     1       1.589   7.289  20.491  0.00  0.00    +0.000 NA
ATOM      8  C   UNL     1       1.517   8.402  19.812  0.00  0.00    +0.000 A 
ATOM      9  N   UNL     1       0.794   9.528  20.135  0.00  0.00    +0.000 N 
ATOM     10  C   UNL     1       0.193   9.635  21.380  0.00  0.00    +0.000 C 
ATOM     11  O   UNL     1       0.321   8.840  22.307  0.00  0.00    +0.000 OA
ATOM     12  S   UNL     1       2.410   8.448  18.347  0.00  0.00    +0.000 S 
ATOM     13  C   UNL     1       3.002   6.877  18.680  0.00  0.00    +0.000 A 
ATOM     14  C   UNL     1       3.918   6.087  17.967  0.00  0.00    +0.000 A 
ATOM     15  S   UNL     1       4.783   6.465  16.548  0.00  0.00    +0.000 S 
ATOM     16  H   UNL     1       0.710  10.237  19.427  0.00  0.00    +0.000 HD
ENDROOT
BRANCH  10  17
ATOM     17  C   UNL     1      -0.690  10.819  21.626  0.00  0.00    +0.000 A 
ATOM     18  C   UNL     1      -1.004  11.627  20.522  0.00  0.00    +0.000 A 
ATOM     19  C   UNL     1      -1.815  12.756  20.667  0.00  0.00    +0.000 A 
ATOM     20  C   UNL     1      -2.345  13.091  21.912  0.00  0.00    +0.000 A 
ATOM     21  C   UNL     1      -2.045  12.292  23.016  0.00  0.00    +0.000 A 
ATOM     22  C   UNL     1      -1.230  11.152  22.874  0.00  0.00    +0.000 A 
BRANCH  20  23
ATOM     23  O   UNL     1      -3.077  14.244  21.930  0.00  0.00    +0.000 OA
BRANCH  23  24
ATOM     24  C   UNL     1      -4.266  14.317  21.136  0.00  0.00    +0.000 C 
ATOM     25  C   UNL     1      -5.340  13.450  21.784  0.00  0.00    +0.000 C 
ATOM     26  C   UNL     1      -4.713  15.778  21.126  0.00  0.00    +0.000 C 
ENDBRANCH  23  24
ENDBRANCH  20  23
ENDBRANCH  10  17
BRANCH   1  28
ATOM     27  C   UNL     1       5.787   4.179  13.999  0.00  0.00    +0.000 C 
ATOM     28  S   UNL     1       6.787   4.400  15.497  0.00  0.00    +0.000 S 
ENDBRANCH   1  28
TORSDOF 4
ENDMDL
