MODEL 1
REMARK VINA RESULT:      -7.6      0.000      0.000
REMARK  Name = 
REMARK  6 active torsions:
REMARK  status: ('A' for Active; 'I' for Inactive)
REMARK    1  A    between atoms: C_1  and  C_2
REMARK    2  A    between atoms: C_2  and  N_3
REMARK    3  A    between atoms: C_2  and  C_16
REMARK    4  A    between atoms: C_4  and  C_6
REMARK    5  A    between atoms: C_6  and  C_7
REMARK    6  A    between atoms: C_9  and  C_10
REMARK                            x       y       z     vdW  Elec       q    Type
REMARK                         _______ _______ _______ _____ _____    ______ ____
ROOT
ATOM      1  N   UNL     1       3.838   5.823  17.872  0.00  0.00    +0.000 N 
ATOM      2  C   UNL     1       5.081   5.294  18.145  0.00  0.00    +0.000 C 
ATOM      3  O   UNL     1       5.491   5.128  19.292  0.00  0.00    +0.000 OA
ATOM      4  H   UNL     1       3.554   6.014  16.920  0.00  0.00    +0.000 HD
ENDROOT
BRANCH   1   6
ATOM      5  C   UNL     1       1.898   7.254  18.418  0.00  0.00    +0.000 C 
ATOM      6  C   UNL     1       2.907   6.222  18.929  0.00  0.00    +0.000 C 
BRANCH   6   7
ATOM      7  C   UNL     1       2.220   5.009  19.546  0.00  0.00    +0.000 A 
ATOM      8  C   UNL     1       2.312   4.774  20.929  0.00  0.00    +0.000 A 
ATOM      9  C   UNL     1       1.728   3.642  21.512  0.00  0.00    +0.000 A 
ATOM     10  C   UNL     1       1.036   2.729  20.723  0.00  0.00    +0.000 A 
ATOM     11  C   UNL     1       0.914   2.957  19.353  0.00  0.00    +0.000 A 
ATOM     12  C   UNL     1       1.494   4.088  18.770  0.00  0.00    +0.000 A 
ENDBRANCH   6   7
ENDBRANCH   1   6
BRANCH   2  13
ATOM     13  C   UNL     1       5.929   4.920  16.959  0.00  0.00    +0.000 C 
ATOM     14  C   UNL     1       5.345   4.972  15.744  0.00  0.00    +0.000 C 
BRANCH  14  15
ATOM     15  C   UNL     1       6.021   4.718  14.467  0.00  0.00    +0.000 A 
ATOM     16  C   UNL     1       5.565   3.761  13.560  0.00  0.00    +0.000 A 
ATOM     17  C   UNL     1       6.295   3.517  12.395  0.00  0.00    +0.000 A 
ATOM     18  C   UNL     1       7.446   4.257  12.170  0.00  0.00    +0.000 A 
ATOM     19  N   UNL     1       7.891   5.220  13.004  0.00  0.00    +0.000 NA
ATOM     20  C   UNL     1       7.172   5.427  14.130  0.00  0.00    +0.000 A 
ENDBRANCH  14  15
BRANCH  13  21
ATOM     21  C   UNL     1       7.291   4.551  17.152  0.00  0.00    +0.000 C 
ATOM     22  N   UNL     1       8.374   4.204  17.366  0.00  0.00    +0.000 NA
ENDBRANCH  13  21
ENDBRANCH   2  13
TORSDOF 5
ENDMDL
MODEL 2
REMARK VINA RESULT:      -7.5      0.635      1.057
REMARK  Name = 
REMARK  6 active torsions:
REMARK  status: ('A' for Active; 'I' for Inactive)
REMARK    1  A    between atoms: C_1  and  C_2
REMARK    2  A    between atoms: C_2  and  N_3
REMARK    3  A    between atoms: C_2  and  C_16
REMARK    4  A    between atoms: C_4  and  C_6
REMARK    5  A    between atoms: C_6  and  C_7
REMARK    6  A    between atoms: C_9  and  C_10
REMARK                            x       y       z     vdW  Elec       q    Type
REMARK                         _______ _______ _______ _____ _____    ______ ____
ROOT
ATOM      1  N   UNL     1       3.947   5.887  17.815  0.00  0.00    +0.000 N 
ATOM      2  C   UNL     1       5.150   5.282  18.109  0.00  0.00    +0.000 C 
ATOM      3  O   UNL     1       5.515   5.065  19.263  0.00  0.00    +0.000 OA
ATOM      4  H   UNL     1       3.703   6.117  16.860  0.00  0.00    +0.000 HD
ENDROOT
BRANCH   1   6
ATOM      5  C   UNL     1       2.044   7.378  18.328  0.00  0.00    +0.000 C 
ATOM      6  C   UNL     1       3.009   6.312  18.855  0.00  0.00    +0.000 C 
BRANCH   6   7
ATOM      7  C   UNL     1       2.271   5.120  19.453  0.00  0.00    +0.000 A 
ATOM      8  C   UNL     1       2.298   4.899  20.842  0.00  0.00    +0.000 A 
ATOM      9  C   UNL     1       1.667   3.785  21.410  0.00  0.00    +0.000 A 
ATOM     10  C   UNL     1       0.990   2.878  20.601  0.00  0.00    +0.000 A 
ATOM     11  C   UNL     1       0.932   3.093  19.224  0.00  0.00    +0.000 A 
ATOM     12  C   UNL     1       1.560   4.206  18.656  0.00  0.00    +0.000 A 
ENDBRANCH   6   7
ENDBRANCH   1   6
BRANCH   2  13
ATOM     13  C   UNL     1       6.011   4.888  16.938  0.00  0.00    +0.000 C 
ATOM     14  C   UNL     1       5.445   4.940  15.714  0.00  0.00    +0.000 C 
BRANCH  14  15
ATOM     15  C   UNL     1       6.137   4.668  14.450  0.00  0.00    +0.000 A 
ATOM     16  C   UNL     1       7.290   5.355  14.068  0.00  0.00    +0.000 A 
ATOM     17  C   UNL     1       7.859   5.099  12.820  0.00  0.00    +0.000 A 
ATOM     18  C   UNL     1       7.264   4.148  12.005  0.00  0.00    +0.000 A 
ATOM     19  N   UNL     1       6.176   3.434  12.360  0.00  0.00    +0.000 NA
ATOM     20  C   UNL     1       5.638   3.710  13.570  0.00  0.00    +0.000 A 
ENDBRANCH  14  15
BRANCH  13  21
ATOM     21  C   UNL     1       7.365   4.503  17.155  0.00  0.00    +0.000 C 
ATOM     22  N   UNL     1       8.449   4.186  17.406  0.00  0.00    +0.000 NA
ENDBRANCH  13  21
ENDBRANCH   2  13
TORSDOF 5
ENDMDL
MODEL 3
REMARK VINA RESULT:      -7.4      0.630      1.490
REMARK  Name = 
REMARK  6 active torsions:
REMARK  status: ('A' for Active; 'I' for Inactive)
REMARK    1  A    between atoms: C_1  and  C_2
REMARK    2  A    between atoms: C_2  and  N_3
REMARK    3  A    between atoms: C_2  and  C_16
REMARK    4  A    between atoms: C_4  and  C_6
REMARK    5  A    between atoms: C_6  and  C_7
REMARK    6  A    between atoms: C_9  and  C_10
REMARK                            x       y       z     vdW  Elec       q    Type
REMARK                         _______ _______ _______ _____ _____    ______ ____
ROOT
ATOM      1  N   UNL     1       3.913   5.791  17.794  0.00  0.00    +0.000 N 
ATOM      2  C   UNL     1       5.193   5.371  18.087  0.00  0.00    +0.000 C 
ATOM      3  O   UNL     1       5.629   5.336  19.236  0.00  0.00    +0.000 OA
ATOM      4  H   UNL     1       3.604   5.877  16.834  0.00  0.00    +0.000 HD
ENDROOT
BRANCH   1   6
ATOM      5  C   UNL     1       1.965   7.233  18.277  0.00  0.00    +0.000 C 
ATOM      6  C   UNL     1       2.974   6.222  18.830  0.00  0.00    +0.000 C 
BRANCH   6   7
ATOM      7  C   UNL     1       2.286   5.027  19.481  0.00  0.00    +0.000 A 
ATOM      8  C   UNL     1       1.545   4.126  18.697  0.00  0.00    +0.000 A 
ATOM      9  C   UNL     1       0.866   3.048  19.279  0.00  0.00    +0.000 A 
ATOM     10  C   UNL     1       0.923   2.848  20.655  0.00  0.00    +0.000 A 
ATOM     11  C   UNL     1       1.673   3.717  21.446  0.00  0.00    +0.000 A 
ATOM     12  C   UNL     1       2.353   4.792  20.866  0.00  0.00    +0.000 A 
ENDBRANCH   6   7
ENDBRANCH   1   6
BRANCH   2  13
ATOM     13  C   UNL     1       6.047   4.948  16.921  0.00  0.00    +0.000 C 
ATOM     14  C   UNL     1       5.493   5.023  15.693  0.00  0.00    +0.000 C 
BRANCH  14  15
ATOM     15  C   UNL     1       6.184   4.728  14.434  0.00  0.00    +0.000 A 
ATOM     16  C   UNL     1       7.319   5.428  14.024  0.00  0.00    +0.000 A 
ATOM     17  C   UNL     1       7.886   5.147  12.780  0.00  0.00    +0.000 A 
ATOM     18  C   UNL     1       7.309   4.158  11.999  0.00  0.00    +0.000 A 
ATOM     19  N   UNL     1       6.239   3.431  12.383  0.00  0.00    +0.000 NA
ATOM     20  C   UNL     1       5.702   3.733  13.587  0.00  0.00    +0.000 A 
ENDBRANCH  14  15
BRANCH  13  21
ATOM     21  C   UNL     1       7.384   4.512  17.147  0.00  0.00    +0.000 C 
ATOM     22  N   UNL     1       8.463   4.179  17.404  0.00  0.00    +0.000 NA
ENDBRANCH  13  21
ENDBRANCH   2  13
TORSDOF 5
ENDMDL
MODEL 4
REMARK VINA RESULT:      -7.4      0.423      1.120
REMARK  Name = 
REMARK  6 active torsions:
REMARK  status: ('A' for Active; 'I' for Inactive)
REMARK    1  A    between atoms: C_1  and  C_2
REMARK    2  A    between atoms: C_2  and  N_3
REMARK    3  A    between atoms: C_2  and  C_16
REMARK    4  A    between atoms: C_4  and  C_6
REMARK    5  A    between atoms: C_6  and  C_7
REMARK    6  A    between atoms: C_9  and  C_10
REMARK                            x       y       z     vdW  Elec       q    Type
REMARK                         _______ _______ _______ _____ _____    ______ ____
ROOT
ATOM      1  N   UNL     1       4.120   5.802  18.259  0.00  0.00    +0.000 N 
ATOM      2  C   UNL     1       5.107   4.843  18.352  0.00  0.00    +0.000 C 
ATOM      3  O   UNL     1       5.289   4.181  19.372  0.00  0.00    +0.000 OA
ATOM      4  H   UNL     1       4.038   6.380  17.433  0.00  0.00    +0.000 HD
ENDROOT
BRANCH   1   6
ATOM      5  C   UNL     1       2.359   7.336  19.065  0.00  0.00    +0.000 C 
ATOM      6  C   UNL     1       3.212   6.101  19.367  0.00  0.00    +0.000 C 
BRANCH   6   7
ATOM      7  C   UNL     1       2.357   4.889  19.721  0.00  0.00    +0.000 A 
ATOM      8  C   UNL     1       1.660   4.199  18.713  0.00  0.00    +0.000 A 
ATOM      9  C   UNL     1       0.831   3.112  19.019  0.00  0.00    +0.000 A 
ATOM     10  C   UNL     1       0.691   2.692  20.338  0.00  0.00    +0.000 A 
ATOM     11  C   UNL     1       1.392   3.349  21.349  0.00  0.00    +0.000 A 
ATOM     12  C   UNL     1       2.222   4.432  21.044  0.00  0.00    +0.000 A 
ENDBRANCH   6   7
ENDBRANCH   1   6
BRANCH   2  13
ATOM     13  C   UNL     1       5.962   4.635  17.131  0.00  0.00    +0.000 C 
ATOM     14  C   UNL     1       5.351   4.718  15.931  0.00  0.00    +0.000 C 
BRANCH  14  15
ATOM     15  C   UNL     1       6.022   4.619  14.630  0.00  0.00    +0.000 A 
ATOM     16  C   UNL     1       5.627   3.703  13.655  0.00  0.00    +0.000 A 
ATOM     17  C   UNL     1       6.353   3.611  12.466  0.00  0.00    +0.000 A 
ATOM     18  C   UNL     1       7.437   4.456  12.288  0.00  0.00    +0.000 A 
ATOM     19  N   UNL     1       7.820   5.383  13.190  0.00  0.00    +0.000 NA
ATOM     20  C   UNL     1       7.107   5.442  14.338  0.00  0.00    +0.000 A 
ENDBRANCH  14  15
BRANCH  13  21
ATOM     21  C   UNL     1       7.356   4.384  17.279  0.00  0.00    +0.000 C 
ATOM     22  N   UNL     1       8.497   4.254  17.420  0.00  0.00    +0.000 NA
ENDBRANCH  13  21
ENDBRANCH   2  13
TORSDOF 5
ENDMDL
MODEL 5
REMARK VINA RESULT:      -7.3      3.709      5.953
REMARK  Name = 
REMARK  6 active torsions:
REMARK  status: ('A' for Active; 'I' for Inactive)
REMARK    1  A    between atoms: C_1  and  C_2
REMARK    2  A    between atoms: C_2  and  N_3
REMARK    3  A    between atoms: C_2  and  C_16
REMARK    4  A    between atoms: C_4  and  C_6
REMARK    5  A    between atoms: C_6  and  C_7
REMARK    6  A    between atoms: C_9  and  C_10
REMARK                            x       y       z     vdW  Elec       q    Type
REMARK                         _______ _______ _______ _____ _____    ______ ____
ROOT
ATOM      1  N   UNL     1       1.351   8.668  19.052  0.00  0.00    +0.000 N 
ATOM      2  C   UNL     1       2.281   8.447  18.058  0.00  0.00    +0.000 C 
ATOM      3  O   UNL     1       2.592   9.312  17.241  0.00  0.00    +0.000 OA
ATOM      4  H   UNL     1       1.063   7.917  19.666  0.00  0.00    +0.000 HD
ENDROOT
BRANCH   1   6
ATOM      5  C   UNL     1      -0.445  10.122  18.176  0.00  0.00    +0.000 C 
ATOM      6  C   UNL     1       0.668   9.952  19.214  0.00  0.00    +0.000 C 
BRANCH   6   7
ATOM      7  C   UNL     1       0.152  10.126  20.637  0.00  0.00    +0.000 A 
ATOM      8  C   UNL     1       0.394   9.132  21.602  0.00  0.00    +0.000 A 
ATOM      9  C   UNL     1      -0.109   9.248  22.904  0.00  0.00    +0.000 A 
ATOM     10  C   UNL     1      -0.858  10.364  23.266  0.00  0.00    +0.000 A 
ATOM     11  C   UNL     1      -1.088  11.372  22.330  0.00  0.00    +0.000 A 
ATOM     12  C   UNL     1      -0.584  11.258  21.031  0.00  0.00    +0.000 A 
ENDBRANCH   6   7
ENDBRANCH   1   6
BRANCH   2  13
ATOM     13  C   UNL     1       2.912   7.081  18.016  0.00  0.00    +0.000 C 
ATOM     14  C   UNL     1       2.228   6.070  18.592  0.00  0.00    +0.000 C 
BRANCH  14  15
ATOM     15  C   UNL     1       2.638   4.662  18.590  0.00  0.00    +0.000 A 
ATOM     16  C   UNL     1       2.255   3.775  17.583  0.00  0.00    +0.000 A 
ATOM     17  C   UNL     1       2.618   2.431  17.679  0.00  0.00    +0.000 A 
ATOM     18  C   UNL     1       3.373   2.026  18.769  0.00  0.00    +0.000 A 
ATOM     19  N   UNL     1       3.798   2.864  19.737  0.00  0.00    +0.000 NA
ATOM     20  C   UNL     1       3.421   4.159  19.627  0.00  0.00    +0.000 A 
ENDBRANCH  14  15
BRANCH  13  21
ATOM     21  C   UNL     1       4.167   6.902  17.368  0.00  0.00    +0.000 C 
ATOM     22  N   UNL     1       5.150   6.748  16.776  0.00  0.00    +0.000 NA
ENDBRANCH  13  21
ENDBRANCH   2  13
TORSDOF 5
ENDMDL
MODEL 6
REMARK VINA RESULT:      -7.3      3.644      5.904
REMARK  Name = 
REMARK  6 active torsions:
REMARK  status: ('A' for Active; 'I' for Inactive)
REMARK    1  A    between atoms: C_1  and  C_2
REMARK    2  A    between atoms: C_2  and  N_3
REMARK    3  A    between atoms: C_2  and  C_16
REMARK    4  A    between atoms: C_4  and  C_6
REMARK    5  A    between atoms: C_6  and  C_7
REMARK    6  A    between atoms: C_9  and  C_10
REMARK                            x       y       z     vdW  Elec       q    Type
REMARK                         _______ _______ _______ _____ _____    ______ ____
ROOT
ATOM      1  N   UNL     1       1.503   8.553  19.112  0.00  0.00    +0.000 N 
ATOM      2  C   UNL     1       2.340   8.273  18.052  0.00  0.00    +0.000 C 
ATOM      3  O   UNL     1       2.567   9.085  17.158  0.00  0.00    +0.000 OA
ATOM      4  H   UNL     1       1.279   7.842  19.796  0.00  0.00    +0.000 HD
ENDROOT
BRANCH   1   6
ATOM      5  C   UNL     1      -0.232  10.037  18.166  0.00  0.00    +0.000 C 
ATOM      6  C   UNL     1       0.827   9.843  19.255  0.00  0.00    +0.000 C 
BRANCH   6   7
ATOM      7  C   UNL     1       0.243  10.007  20.654  0.00  0.00    +0.000 A 
ATOM      8  C   UNL     1      -0.546  11.130  20.961  0.00  0.00    +0.000 A 
ATOM      9  C   UNL     1      -1.055  11.326  22.251  0.00  0.00    +0.000 A 
ATOM     10  C   UNL     1      -0.791  10.400  23.255  0.00  0.00    +0.000 A 
ATOM     11  C   UNL     1      -0.030   9.268  22.963  0.00  0.00    +0.000 A 
ATOM     12  C   UNL     1       0.477   9.069  21.675  0.00  0.00    +0.000 A 
ENDBRANCH   6   7
ENDBRANCH   1   6
BRANCH   2  13
ATOM     13  C   UNL     1       2.976   6.908  18.039  0.00  0.00    +0.000 C 
ATOM     14  C   UNL     1       2.265   5.893  18.572  0.00  0.00    +0.000 C 
BRANCH  14  15
ATOM     15  C   UNL     1       2.679   4.486  18.586  0.00  0.00    +0.000 A 
ATOM     16  C   UNL     1       2.325   3.595  17.572  0.00  0.00    +0.000 A 
ATOM     17  C   UNL     1       2.690   2.252  17.681  0.00  0.00    +0.000 A 
ATOM     18  C   UNL     1       3.415   1.853  18.793  0.00  0.00    +0.000 A 
ATOM     19  N   UNL     1       3.812   2.695  19.770  0.00  0.00    +0.000 NA
ATOM     20  C   UNL     1       3.434   3.988  19.645  0.00  0.00    +0.000 A 
ENDBRANCH  14  15
BRANCH  13  21
ATOM     21  C   UNL     1       4.265   6.736  17.460  0.00  0.00    +0.000 C 
ATOM     22  N   UNL     1       5.292   6.525  16.970  0.00  0.00    +0.000 NA
ENDBRANCH  13  21
ENDBRANCH   2  13
TORSDOF 5
ENDMDL
MODEL 7
REMARK VINA RESULT:      -7.1      3.658      5.957
REMARK  Name = 
REMARK  6 active torsions:
REMARK  status: ('A' for Active; 'I' for Inactive)
REMARK    1  A    between atoms: C_1  and  C_2
REMARK    2  A    between atoms: C_2  and  N_3
REMARK    3  A    between atoms: C_2  and  C_16
REMARK    4  A    between atoms: C_4  and  C_6
REMARK    5  A    between atoms: C_6  and  C_7
REMARK    6  A    between atoms: C_9  and  C_10
REMARK                            x       y       z     vdW  Elec       q    Type
REMARK                         _______ _______ _______ _____ _____    ______ ____
ROOT
ATOM      1  N   UNL     1       1.462   8.605  19.098  0.00  0.00    +0.000 N 
ATOM      2  C   UNL     1       2.328   8.329  18.061  0.00  0.00    +0.000 C 
ATOM      3  O   UNL     1       2.590   9.151  17.185  0.00  0.00    +0.000 OA
ATOM      4  H   UNL     1       1.209   7.888  19.766  0.00  0.00    +0.000 HD
ENDROOT
BRANCH   1   6
ATOM      5  C   UNL     1      -0.291  10.080  18.169  0.00  0.00    +0.000 C 
ATOM      6  C   UNL     1       0.793   9.899  19.237  0.00  0.00    +0.000 C 
BRANCH   6   7
ATOM      7  C   UNL     1       0.242  10.087  20.646  0.00  0.00    +0.000 A 
ATOM      8  C   UNL     1       0.326   9.041  21.582  0.00  0.00    +0.000 A 
ATOM      9  C   UNL     1      -0.214   9.174  22.867  0.00  0.00    +0.000 A 
ATOM     10  C   UNL     1      -0.841  10.358  23.242  0.00  0.00    +0.000 A 
ATOM     11  C   UNL     1      -0.913  11.416  22.336  0.00  0.00    +0.000 A 
ATOM     12  C   UNL     1      -0.372  11.285  21.053  0.00  0.00    +0.000 A 
ENDBRANCH   6   7
ENDBRANCH   1   6
BRANCH   2  13
ATOM     13  C   UNL     1       2.951   6.959  18.050  0.00  0.00    +0.000 C 
ATOM     14  C   UNL     1       2.256   5.962  18.636  0.00  0.00    +0.000 C 
BRANCH  14  15
ATOM     15  C   UNL     1       2.658   4.552  18.663  0.00  0.00    +0.000 A 
ATOM     16  C   UNL     1       3.530   4.043  19.627  0.00  0.00    +0.000 A 
ATOM     17  C   UNL     1       3.930   2.708  19.554  0.00  0.00    +0.000 A 
ATOM     18  C   UNL     1       3.425   1.923  18.530  0.00  0.00    +0.000 A 
ATOM     19  N   UNL     1       2.547   2.369  17.607  0.00  0.00    +0.000 NA
ATOM     20  C   UNL     1       2.186   3.670  17.694  0.00  0.00    +0.000 A 
ENDBRANCH  14  15
BRANCH  13  21
ATOM     21  C   UNL     1       4.214   6.763  17.420  0.00  0.00    +0.000 C 
ATOM     22  N   UNL     1       5.203   6.561  16.856  0.00  0.00    +0.000 NA
ENDBRANCH  13  21
ENDBRANCH   2  13
TORSDOF 5
ENDMDL
MODEL 8
REMARK VINA RESULT:      -7.1      3.692      5.960
REMARK  Name = 
REMARK  6 active torsions:
REMARK  status: ('A' for Active; 'I' for Inactive)
REMARK    1  A    between atoms: C_1  and  C_2
REMARK    2  A    between atoms: C_2  and  N_3
REMARK    3  A    between atoms: C_2  and  C_16
REMARK    4  A    between atoms: C_4  and  C_6
REMARK    5  A    between atoms: C_6  and  C_7
REMARK    6  A    between atoms: C_9  and  C_10
REMARK                            x       y       z     vdW  Elec       q    Type
REMARK                         _______ _______ _______ _____ _____    ______ ____
ROOT
ATOM      1  N   UNL     1       1.338   8.627  19.020  0.00  0.00    +0.000 N 
ATOM      2  C   UNL     1       2.312   8.425  18.065  0.00  0.00    +0.000 C 
ATOM      3  O   UNL     1       2.682   9.315  17.301  0.00  0.00    +0.000 OA
ATOM      4  H   UNL     1       1.003   7.860  19.587  0.00  0.00    +0.000 HD
ENDROOT
BRANCH   1   6
ATOM      5  C   UNL     1      -0.408  10.138  18.138  0.00  0.00    +0.000 C 
ATOM      6  C   UNL     1       0.674   9.919  19.199  0.00  0.00    +0.000 C 
BRANCH   6   7
ATOM      7  C   UNL     1       0.123  10.064  20.613  0.00  0.00    +0.000 A 
ATOM      8  C   UNL     1      -0.634  11.196  20.962  0.00  0.00    +0.000 A 
ATOM      9  C   UNL     1      -1.112  11.375  22.267  0.00  0.00    +0.000 A 
ATOM     10  C   UNL     1      -0.846  10.420  23.244  0.00  0.00    +0.000 A 
ATOM     11  C   UNL     1      -0.117   9.279  22.911  0.00  0.00    +0.000 A 
ATOM     12  C   UNL     1       0.358   9.098  21.608  0.00  0.00    +0.000 A 
ENDBRANCH   6   7
ENDBRANCH   1   6
BRANCH   2  13
ATOM     13  C   UNL     1       2.916   7.048  18.000  0.00  0.00    +0.000 C 
ATOM     14  C   UNL     1       2.217   6.042  18.564  0.00  0.00    +0.000 C 
BRANCH  14  15
ATOM     15  C   UNL     1       2.599   4.626  18.539  0.00  0.00    +0.000 A 
ATOM     16  C   UNL     1       3.507   4.083  19.449  0.00  0.00    +0.000 A 
ATOM     17  C   UNL     1       3.884   2.745  19.326  0.00  0.00    +0.000 A 
ATOM     18  C   UNL     1       3.321   1.991  18.308  0.00  0.00    +0.000 A 
ATOM     19  N   UNL     1       2.407   2.471  17.439  0.00  0.00    +0.000 NA
ATOM     20  C   UNL     1       2.070   3.774  17.573  0.00  0.00    +0.000 A 
ENDBRANCH  14  15
BRANCH  13  21
ATOM     21  C   UNL     1       4.165   6.855  17.343  0.00  0.00    +0.000 C 
ATOM     22  N   UNL     1       5.203   6.659  16.870  0.00  0.00    +0.000 NA
ENDBRANCH  13  21
ENDBRANCH   2  13
TORSDOF 5
ENDMDL
MODEL 9
REMARK VINA RESULT:      -6.9      1.981      7.337
REMARK  Name = 
REMARK  6 active torsions:
REMARK  status: ('A' for Active; 'I' for Inactive)
REMARK    1  A    between atoms: C_1  and  C_2
REMARK    2  A    between atoms: C_2  and  N_3
REMARK    3  A    between atoms: C_2  and  C_16
REMARK    4  A    between atoms: C_4  and  C_6
REMARK    5  A    between atoms: C_6  and  C_7
REMARK    6  A    between atoms: C_9  and  C_10
REMARK                            x       y       z     vdW  Elec       q    Type
REMARK                         _______ _______ _______ _____ _____    ______ ____
ROOT
ATOM      1  N   UNL     1       6.305   4.528  14.632  0.00  0.00    +0.000 N 
ATOM      2  C   UNL     1       5.678   5.449  15.444  0.00  0.00    +0.000 C 
ATOM      3  O   UNL     1       5.385   6.579  15.058  0.00  0.00    +0.000 OA
ATOM      4  H   UNL     1       6.598   3.631  14.997  0.00  0.00    +0.000 HD
ENDROOT
BRANCH   1   6
ATOM      5  C   UNL     1       8.090   5.382  13.151  0.00  0.00    +0.000 C 
ATOM      6  C   UNL     1       6.667   4.825  13.246  0.00  0.00    +0.000 C 
BRANCH   6   7
ATOM      7  C   UNL     1       6.470   3.606  12.351  0.00  0.00    +0.000 A 
ATOM      8  C   UNL     1       5.173   3.146  12.061  0.00  0.00    +0.000 A 
ATOM      9  C   UNL     1       4.969   2.001  11.280  0.00  0.00    +0.000 A 
ATOM     10  C   UNL     1       6.057   1.301  10.770  0.00  0.00    +0.000 A 
ATOM     11  C   UNL     1       7.350   1.756  11.027  0.00  0.00    +0.000 A 
ATOM     12  C   UNL     1       7.556   2.900  11.804  0.00  0.00    +0.000 A 
ENDBRANCH   6   7
ENDBRANCH   1   6
BRANCH   2  13
ATOM     13  C   UNL     1       5.357   5.003  16.846  0.00  0.00    +0.000 C 
ATOM     14  C   UNL     1       4.054   4.849  17.159  0.00  0.00    +0.000 C 
BRANCH  14  15
ATOM     15  C   UNL     1       3.544   4.353  18.442  0.00  0.00    +0.000 A 
ATOM     16  C   UNL     1       3.433   2.991  18.724  0.00  0.00    +0.000 A 
ATOM     17  C   UNL     1       2.873   2.585  19.937  0.00  0.00    +0.000 A 
ATOM     18  C   UNL     1       2.464   3.560  20.834  0.00  0.00    +0.000 A 
ATOM     19  N   UNL     1       2.598   4.884  20.613  0.00  0.00    +0.000 NA
ATOM     20  C   UNL     1       3.132   5.249  19.426  0.00  0.00    +0.000 A 
ENDBRANCH  14  15
BRANCH  13  21
ATOM     21  C   UNL     1       6.415   4.747  17.765  0.00  0.00    +0.000 C 
ATOM     22  N   UNL     1       7.236   4.580  18.563  0.00  0.00    +0.000 NA
ENDBRANCH  13  21
ENDBRANCH   2  13
TORSDOF 5
ENDMDL
