MODEL 1
REMARK VINA RESULT:      -7.0      0.000      0.000
REMARK  Name = 
REMARK  7 active torsions:
REMARK  status: ('A' for Active; 'I' for Inactive)
REMARK    1  A    between atoms: C_2  and  O_3
REMARK    2  A    between atoms: C_2  and  C_4
REMARK    3  A    between atoms: C_4  and  S_5
REMARK    4  A    between atoms: S_5  and  C_6
REMARK    5  A    between atoms: C_6  and  C_7
REMARK    6  A    between atoms: N_12  and  C_13
REMARK    7  A    between atoms: C_13  and  C_14
REMARK                            x       y       z     vdW  Elec       q    Type
REMARK                         _______ _______ _______ _____ _____    ______ ____
ROOT
ATOM      1  C   UNL     1       1.371   7.998  20.648  0.00  0.00    +0.000 C 
ATOM      2  O   UNL     1       0.712   7.937  21.696  0.00  0.00    +0.000 OA
ATOM      3  N   UNL     1       2.028   6.901  20.116  0.00  0.00    +0.000 N 
ATOM      4  C   UNL     1       1.937   5.596  20.783  0.00  0.00    +0.000 C 
ATOM      5  C   UNL     1       1.639   4.460  19.774  0.00  0.00    +0.000 C 
ATOM      6  N   UNL     1       2.526   4.433  18.581  0.00  0.00    +0.000 NA
ATOM      7  C   UNL     1       2.500   5.774  17.958  0.00  0.00    +0.000 C 
ATOM      8  C   UNL     1       2.874   6.917  18.915  0.00  0.00    +0.000 C 
ENDROOT
BRANCH   1   9
ATOM      9  C   UNL     1       1.350   9.297  19.856  0.00  0.00    +0.000 C 
BRANCH   9  10
ATOM     10  S   UNL     1      -0.300  10.070  20.004  0.00  0.00    +0.000 S 
BRANCH  10  11
ATOM     11  C   UNL     1      -0.238  11.266  18.623  0.00  0.00    +0.000 C 
BRANCH  11  13
ATOM     12  O   UNL     1      -2.512  11.908  19.132  0.00  0.00    +0.000 OA
ATOM     13  C   UNL     1      -1.601  11.849  18.319  0.00  0.00    +0.000 C 
BRANCH  13  14
ATOM     14  O   UNL     1      -1.752  12.280  17.043  0.00  0.00    +0.000 OA
ATOM     15  H   UNL     1      -1.125  11.886  16.388  0.00  0.00    +0.000 HD
ENDBRANCH  13  14
ENDBRANCH  11  13
ENDBRANCH  10  11
ENDBRANCH   9  10
ENDBRANCH   1   9
BRANCH   6  16
ATOM     16  C   UNL     1       3.880   3.988  18.960  0.00  0.00    +0.000 C 
BRANCH  16  17
ATOM     17  C   UNL     1       4.964   4.296  17.949  0.00  0.00    +0.000 A 
ATOM     18  C   UNL     1       6.126   5.005  18.331  0.00  0.00    +0.000 A 
ATOM     19  C   UNL     1       7.099   5.356  17.389  0.00  0.00    +0.000 A 
ATOM     20  C   UNL     1       6.892   4.979  16.079  0.00  0.00    +0.000 A 
ATOM     21  C   UNL     1       5.778   4.271  15.700  0.00  0.00    +0.000 A 
ATOM     22  C   UNL     1       4.799   3.915  16.604  0.00  0.00    +0.000 A 
ATOM     23  O   UNL     1       5.765   3.995  14.369  0.00  0.00    +0.000 OA
ATOM     24  C   UNL     1       6.992   4.628  13.949  0.00  0.00    +0.000 C 
ATOM     25  O   UNL     1       7.717   5.248  15.033  0.00  0.00    +0.000 OA
ENDBRANCH  16  17
ENDBRANCH   6  16
TORSDOF 7
ENDMDL
MODEL 2
REMARK VINA RESULT:      -6.6      1.437      1.618
REMARK  Name = 
REMARK  7 active torsions:
REMARK  status: ('A' for Active; 'I' for Inactive)
REMARK    1  A    between atoms: C_2  and  O_3
REMARK    2  A    between atoms: C_2  and  C_4
REMARK    3  A    between atoms: C_4  and  S_5
REMARK    4  A    between atoms: S_5  and  C_6
REMARK    5  A    between atoms: C_6  and  C_7
REMARK    6  A    between atoms: N_12  and  C_13
REMARK    7  A    between atoms: C_13  and  C_14
REMARK                            x       y       z     vdW  Elec       q    Type
REMARK                         _______ _______ _______ _____ _____    ______ ____
ROOT
ATOM      1  C   UNL     1       1.284   8.327  20.515  0.00  0.00    +0.000 C 
ATOM      2  O   UNL     1       0.638   8.311  21.572  0.00  0.00    +0.000 OA
ATOM      3  N   UNL     1       1.974   7.221  20.046  0.00  0.00    +0.000 N 
ATOM      4  C   UNL     1       1.934   5.960  20.796  0.00  0.00    +0.000 C 
ATOM      5  C   UNL     1       1.666   4.751  19.865  0.00  0.00    +0.000 C 
ATOM      6  N   UNL     1       2.542   4.678  18.665  0.00  0.00    +0.000 NA
ATOM      7  C   UNL     1       2.463   5.974  17.959  0.00  0.00    +0.000 C 
ATOM      8  C   UNL     1       2.807   7.188  18.836  0.00  0.00    +0.000 C 
ENDROOT
BRANCH   1   9
ATOM      9  C   UNL     1       1.211   9.571  19.642  0.00  0.00    +0.000 C 
BRANCH   9  10
ATOM     10  S   UNL     1      -0.493  10.234  19.674  0.00  0.00    +0.000 S 
BRANCH  10  11
ATOM     11  C   UNL     1      -0.278  11.667  20.787  0.00  0.00    +0.000 C 
BRANCH  11  13
ATOM     12  O   UNL     1       1.025  13.030  19.276  0.00  0.00    +0.000 OA
ATOM     13  C   UNL     1       0.900  12.526  20.382  0.00  0.00    +0.000 C 
BRANCH  13  14
ATOM     14  O   UNL     1       1.842  12.672  21.345  0.00  0.00    +0.000 OA
ATOM     15  H   UNL     1       1.975  13.597  21.669  0.00  0.00    +0.000 HD
ENDBRANCH  13  14
ENDBRANCH  11  13
ENDBRANCH  10  11
ENDBRANCH   9  10
ENDBRANCH   1   9
BRANCH   6  16
ATOM     16  C   UNL     1       3.913   4.304  19.056  0.00  0.00    +0.000 C 
BRANCH  16  17
ATOM     17  C   UNL     1       4.974   4.562  18.005  0.00  0.00    +0.000 A 
ATOM     18  C   UNL     1       6.110   5.347  18.307  0.00  0.00    +0.000 A 
ATOM     19  C   UNL     1       7.058   5.650  17.323  0.00  0.00    +0.000 A 
ATOM     20  C   UNL     1       6.851   5.150  16.055  0.00  0.00    +0.000 A 
ATOM     21  C   UNL     1       5.763   4.369  15.756  0.00  0.00    +0.000 A 
ATOM     22  C   UNL     1       4.808   4.058  16.702  0.00  0.00    +0.000 A 
ATOM     23  O   UNL     1       5.745   3.975  14.455  0.00  0.00    +0.000 OA
ATOM     24  C   UNL     1       6.941   4.616  13.963  0.00  0.00    +0.000 C 
ATOM     25  O   UNL     1       7.654   5.356  14.976  0.00  0.00    +0.000 OA
ENDBRANCH  16  17
ENDBRANCH   6  16
TORSDOF 7
ENDMDL
MODEL 3
REMARK VINA RESULT:      -6.5      3.511      5.275
REMARK  Name = 
REMARK  7 active torsions:
REMARK  status: ('A' for Active; 'I' for Inactive)
REMARK    1  A    between atoms: C_2  and  O_3
REMARK    2  A    between atoms: C_2  and  C_4
REMARK    3  A    between atoms: C_4  and  S_5
REMARK    4  A    between atoms: S_5  and  C_6
REMARK    5  A    between atoms: C_6  and  C_7
REMARK    6  A    between atoms: N_12  and  C_13
REMARK    7  A    between atoms: C_13  and  C_14
REMARK                            x       y       z     vdW  Elec       q    Type
REMARK                         _______ _______ _______ _____ _____    ______ ____
ROOT
ATOM      1  C   UNL     1      -1.283  11.636  21.658  0.00  0.00    +0.000 C 
ATOM      2  O   UNL     1      -1.728  12.299  20.710  0.00  0.00    +0.000 OA
ATOM      3  N   UNL     1      -0.609  10.439  21.479  0.00  0.00    +0.000 N 
ATOM      4  C   UNL     1      -0.376   9.925  20.124  0.00  0.00    +0.000 C 
ATOM      5  C   UNL     1       1.087   9.448  19.940  0.00  0.00    +0.000 C 
ATOM      6  N   UNL     1       1.584   8.528  20.996  0.00  0.00    +0.000 NA
ATOM      7  C   UNL     1       1.351   9.166  22.309  0.00  0.00    +0.000 C 
ATOM      8  C   UNL     1      -0.110   9.574  22.557  0.00  0.00    +0.000 C 
ENDROOT
BRANCH   1   9
ATOM      9  C   UNL     1      -1.373  12.226  23.058  0.00  0.00    +0.000 C 
BRANCH   9  10
ATOM     10  S   UNL     1      -2.143  13.881  22.969  0.00  0.00    +0.000 S 
BRANCH  10  11
ATOM     11  C   UNL     1      -3.432  13.725  24.256  0.00  0.00    +0.000 C 
BRANCH  11  13
ATOM     12  O   UNL     1      -4.976  12.512  22.846  0.00  0.00    +0.000 OA
ATOM     13  C   UNL     1      -4.425  12.630  23.931  0.00  0.00    +0.000 C 
BRANCH  13  14
ATOM     14  O   UNL     1      -4.688  11.791  24.961  0.00  0.00    +0.000 OA
ATOM     15  H   UNL     1      -5.646  11.684  25.184  0.00  0.00    +0.000 HD
ENDBRANCH  13  14
ENDBRANCH  11  13
ENDBRANCH  10  11
ENDBRANCH   9  10
ENDBRANCH   1   9
BRANCH   6  16
ATOM     16  C   UNL     1       0.945   7.205  20.864  0.00  0.00    +0.000 C 
BRANCH  16  17
ATOM     17  C   UNL     1       1.861   6.093  20.397  0.00  0.00    +0.000 A 
ATOM     18  C   UNL     1       1.700   4.775  20.882  0.00  0.00    +0.000 A 
ATOM     19  C   UNL     1       2.586   3.757  20.511  0.00  0.00    +0.000 A 
ATOM     20  C   UNL     1       3.613   4.080  19.651  0.00  0.00    +0.000 A 
ATOM     21  C   UNL     1       3.767   5.352  19.157  0.00  0.00    +0.000 A 
ATOM     22  C   UNL     1       2.914   6.378  19.507  0.00  0.00    +0.000 A 
ATOM     23  O   UNL     1       4.836   5.461  18.324  0.00  0.00    +0.000 OA
ATOM     24  C   UNL     1       5.350   4.113  18.366  0.00  0.00    +0.000 C 
ATOM     25  O   UNL     1       4.573   3.229  19.200  0.00  0.00    +0.000 OA
ENDBRANCH  16  17
ENDBRANCH   6  16
TORSDOF 7
ENDMDL
MODEL 4
REMARK VINA RESULT:      -6.3      4.142     10.453
REMARK  Name = 
REMARK  7 active torsions:
REMARK  status: ('A' for Active; 'I' for Inactive)
REMARK    1  A    between atoms: C_2  and  O_3
REMARK    2  A    between atoms: C_2  and  C_4
REMARK    3  A    between atoms: C_4  and  S_5
REMARK    4  A    between atoms: S_5  and  C_6
REMARK    5  A    between atoms: C_6  and  C_7
REMARK    6  A    between atoms: N_12  and  C_13
REMARK    7  A    between atoms: C_13  and  C_14
REMARK                            x       y       z     vdW  Elec       q    Type
REMARK                         _______ _______ _______ _____ _____    ______ ____
ROOT
ATOM      1  C   UNL     1       2.422   7.299  19.074  0.00  0.00    +0.000 C 
ATOM      2  O   UNL     1       2.790   7.328  17.892  0.00  0.00    +0.000 OA
ATOM      3  N   UNL     1       1.755   8.355  19.674  0.00  0.00    +0.000 N 
ATOM      4  C   UNL     1       1.435   9.557  18.894  0.00  0.00    +0.000 C 
ATOM      5  C   UNL     1      -0.030  10.009  19.119  0.00  0.00    +0.000 C 
ATOM      6  N   UNL     1      -0.438  10.124  20.544  0.00  0.00    +0.000 NA
ATOM      7  C   UNL     1      -0.123   8.845  21.217  0.00  0.00    +0.000 C 
ATOM      8  C   UNL     1       1.345   8.412  21.084  0.00  0.00    +0.000 C 
ENDROOT
BRANCH   1   9
ATOM      9  C   UNL     1       2.601   6.006  19.856  0.00  0.00    +0.000 C 
BRANCH   9  10
ATOM     10  S   UNL     1       3.807   4.938  18.991  0.00  0.00    +0.000 S 
BRANCH  10  11
ATOM     11  C   UNL     1       2.940   3.330  19.053  0.00  0.00    +0.000 C 
BRANCH  11  13
ATOM     12  O   UNL     1       3.712   1.136  18.395  0.00  0.00    +0.000 OA
ATOM     13  C   UNL     1       3.907   2.166  19.024  0.00  0.00    +0.000 C 
BRANCH  13  14
ATOM     14  O   UNL     1       5.011   2.338  19.789  0.00  0.00    +0.000 OA
ATOM     15  H   UNL     1       4.925   2.039  20.728  0.00  0.00    +0.000 HD
ENDBRANCH  13  14
ENDBRANCH  11  13
ENDBRANCH  10  11
ENDBRANCH   9  10
ENDBRANCH   1   9
BRANCH   6  16
ATOM     16  C   UNL     1       0.209  11.292  21.169  0.00  0.00    +0.000 C 
BRANCH  16  17
ATOM     17  C   UNL     1      -0.703  12.154  22.018  0.00  0.00    +0.000 A 
ATOM     18  C   UNL     1      -0.364  13.496  22.305  0.00  0.00    +0.000 A 
ATOM     19  C   UNL     1      -1.164  14.277  23.147  0.00  0.00    +0.000 A 
ATOM     20  C   UNL     1      -2.297  13.698  23.676  0.00  0.00    +0.000 A 
ATOM     21  C   UNL     1      -2.648  12.403  23.386  0.00  0.00    +0.000 A 
ATOM     22  C   UNL     1      -1.878  11.606  22.565  0.00  0.00    +0.000 A 
ATOM     23  O   UNL     1      -3.799  12.024  24.003  0.00  0.00    +0.000 OA
ATOM     24  C   UNL     1      -4.123  13.227  24.733  0.00  0.00    +0.000 C 
ATOM     25  O   UNL     1      -3.178  14.297  24.522  0.00  0.00    +0.000 OA
ENDBRANCH  16  17
ENDBRANCH   6  16
TORSDOF 7
ENDMDL
MODEL 5
REMARK VINA RESULT:      -6.2      3.924     10.400
REMARK  Name = 
REMARK  7 active torsions:
REMARK  status: ('A' for Active; 'I' for Inactive)
REMARK    1  A    between atoms: C_2  and  O_3
REMARK    2  A    between atoms: C_2  and  C_4
REMARK    3  A    between atoms: C_4  and  S_5
REMARK    4  A    between atoms: S_5  and  C_6
REMARK    5  A    between atoms: C_6  and  C_7
REMARK    6  A    between atoms: N_12  and  C_13
REMARK    7  A    between atoms: C_13  and  C_14
REMARK                            x       y       z     vdW  Elec       q    Type
REMARK                         _______ _______ _______ _____ _____    ______ ____
ROOT
ATOM      1  C   UNL     1       2.499   7.512  18.725  0.00  0.00    +0.000 C 
ATOM      2  O   UNL     1       2.810   7.734  17.547  0.00  0.00    +0.000 OA
ATOM      3  N   UNL     1       1.820   8.436  19.503  0.00  0.00    +0.000 N 
ATOM      4  C   UNL     1       1.418   9.725  18.927  0.00  0.00    +0.000 C 
ATOM      5  C   UNL     1      -0.051  10.072  19.276  0.00  0.00    +0.000 C 
ATOM      6  N   UNL     1      -0.398   9.954  20.717  0.00  0.00    +0.000 NA
ATOM      7  C   UNL     1      -0.003   8.605  21.176  0.00  0.00    +0.000 C 
ATOM      8  C   UNL     1       1.473   8.263  20.921  0.00  0.00    +0.000 C 
ENDROOT
BRANCH   1   9
ATOM      9  C   UNL     1       2.764   6.126  19.295  0.00  0.00    +0.000 C 
BRANCH   9  10
ATOM     10  S   UNL     1       3.789   5.174  18.119  0.00  0.00    +0.000 S 
BRANCH  10  11
ATOM     11  C   UNL     1       5.318   4.961  19.098  0.00  0.00    +0.000 C 
BRANCH  11  13
ATOM     12  O   UNL     1       7.659   4.832  18.513  0.00  0.00    +0.000 OA
ATOM     13  C   UNL     1       6.497   4.581  18.229  0.00  0.00    +0.000 C 
BRANCH  13  14
ATOM     14  O   UNL     1       6.162   3.959  17.073  0.00  0.00    +0.000 OA
ATOM     15  H   UNL     1       6.257   2.975  17.081  0.00  0.00    +0.000 HD
ENDBRANCH  13  14
ENDBRANCH  11  13
ENDBRANCH  10  11
ENDBRANCH   9  10
ENDBRANCH   1   9
BRANCH   6  16
ATOM     16  C   UNL     1       0.231  11.044  21.485  0.00  0.00    +0.000 C 
BRANCH  16  17
ATOM     17  C   UNL     1      -0.734  11.968  22.199  0.00  0.00    +0.000 A 
ATOM     18  C   UNL     1      -0.459  13.349  22.311  0.00  0.00    +0.000 A 
ATOM     19  C   UNL     1      -1.310  14.197  23.030  0.00  0.00    +0.000 A 
ATOM     20  C   UNL     1      -2.427  13.641  23.615  0.00  0.00    +0.000 A 
ATOM     21  C   UNL     1      -2.716  12.305  23.494  0.00  0.00    +0.000 A 
ATOM     22  C   UNL     1      -1.895  11.443  22.797  0.00  0.00    +0.000 A 
ATOM     23  O   UNL     1      -3.861  11.959  24.139  0.00  0.00    +0.000 OA
ATOM     24  C   UNL     1      -4.252  13.230  24.699  0.00  0.00    +0.000 C 
ATOM     25  O   UNL     1      -3.350  14.306  24.362  0.00  0.00    +0.000 OA
ENDBRANCH  16  17
ENDBRANCH   6  16
TORSDOF 7
ENDMDL
MODEL 6
REMARK VINA RESULT:      -6.2      1.285      1.455
REMARK  Name = 
REMARK  7 active torsions:
REMARK  status: ('A' for Active; 'I' for Inactive)
REMARK    1  A    between atoms: C_2  and  O_3
REMARK    2  A    between atoms: C_2  and  C_4
REMARK    3  A    between atoms: C_4  and  S_5
REMARK    4  A    between atoms: S_5  and  C_6
REMARK    5  A    between atoms: C_6  and  C_7
REMARK    6  A    between atoms: N_12  and  C_13
REMARK    7  A    between atoms: C_13  and  C_14
REMARK                            x       y       z     vdW  Elec       q    Type
REMARK                         _______ _______ _______ _____ _____    ______ ____
ROOT
ATOM      1  C   UNL     1       0.568   9.379  20.367  0.00  0.00    +0.000 C 
ATOM      2  O   UNL     1      -0.142   9.346  21.382  0.00  0.00    +0.000 OA
ATOM      3  N   UNL     1       1.476   8.379  20.061  0.00  0.00    +0.000 N 
ATOM      4  C   UNL     1       1.606   7.211  20.940  0.00  0.00    +0.000 C 
ATOM      5  C   UNL     1       1.627   5.889  20.133  0.00  0.00    +0.000 C 
ATOM      6  N   UNL     1       2.589   5.862  18.999  0.00  0.00    +0.000 NA
ATOM      7  C   UNL     1       2.333   7.047  18.152  0.00  0.00    +0.000 C 
ATOM      8  C   UNL     1       2.390   8.383  18.909  0.00  0.00    +0.000 C 
ENDROOT
BRANCH   1   9
ATOM      9  C   UNL     1       0.340  10.497  19.361  0.00  0.00    +0.000 C 
BRANCH   9  10
ATOM     10  S   UNL     1      -0.938   9.980  18.160  0.00  0.00    +0.000 S 
BRANCH  10  11
ATOM     11  C   UNL     1      -1.728  11.587  17.794  0.00  0.00    +0.000 C 
BRANCH  11  13
ATOM     12  O   UNL     1      -4.075  11.112  18.130  0.00  0.00    +0.000 OA
ATOM     13  C   UNL     1      -3.171  11.423  17.367  0.00  0.00    +0.000 C 
BRANCH  13  14
ATOM     14  O   UNL     1      -3.387  11.619  16.044  0.00  0.00    +0.000 OA
ATOM     15  H   UNL     1      -4.302  11.908  15.804  0.00  0.00    +0.000 HD
ENDBRANCH  13  14
ENDBRANCH  11  13
ENDBRANCH  10  11
ENDBRANCH   9  10
ENDBRANCH   1   9
BRANCH   6  16
ATOM     16  C   UNL     1       3.972   5.788  19.504  0.00  0.00    +0.000 C 
BRANCH  16  17
ATOM     17  C   UNL     1       5.014   5.415  18.470  0.00  0.00    +0.000 A 
ATOM     18  C   UNL     1       6.385   5.370  18.812  0.00  0.00    +0.000 A 
ATOM     19  C   UNL     1       7.360   5.097  17.846  0.00  0.00    +0.000 A 
ATOM     20  C   UNL     1       6.938   4.863  16.555  0.00  0.00    +0.000 A 
ATOM     21  C   UNL     1       5.609   4.882  16.216  0.00  0.00    +0.000 A 
ATOM     22  C   UNL     1       4.624   5.154  17.143  0.00  0.00    +0.000 A 
ATOM     23  O   UNL     1       5.403   4.624  14.897  0.00  0.00    +0.000 OA
ATOM     24  C   UNL     1       6.762   4.459  14.439  0.00  0.00    +0.000 C 
ATOM     25  O   UNL     1       7.742   4.600  15.489  0.00  0.00    +0.000 OA
ENDBRANCH  16  17
ENDBRANCH   6  16
TORSDOF 7
ENDMDL
MODEL 7
REMARK VINA RESULT:      -6.2      4.117     10.489
REMARK  Name = 
REMARK  7 active torsions:
REMARK  status: ('A' for Active; 'I' for Inactive)
REMARK    1  A    between atoms: C_2  and  O_3
REMARK    2  A    between atoms: C_2  and  C_4
REMARK    3  A    between atoms: C_4  and  S_5
REMARK    4  A    between atoms: S_5  and  C_6
REMARK    5  A    between atoms: C_6  and  C_7
REMARK    6  A    between atoms: N_12  and  C_13
REMARK    7  A    between atoms: C_13  and  C_14
REMARK                            x       y       z     vdW  Elec       q    Type
REMARK                         _______ _______ _______ _____ _____    ______ ____
ROOT
ATOM      1  C   UNL     1       2.283   7.669  19.028  0.00  0.00    +0.000 C 
ATOM      2  O   UNL     1       2.556   7.929  17.848  0.00  0.00    +0.000 OA
ATOM      3  N   UNL     1       1.597   8.551  19.846  0.00  0.00    +0.000 N 
ATOM      4  C   UNL     1       1.139   9.841  19.314  0.00  0.00    +0.000 C 
ATOM      5  C   UNL     1      -0.330  10.131  19.710  0.00  0.00    +0.000 C 
ATOM      6  N   UNL     1      -0.633   9.967  21.156  0.00  0.00    +0.000 NA
ATOM      7  C   UNL     1      -0.184   8.621  21.570  0.00  0.00    +0.000 C 
ATOM      8  C   UNL     1       1.294   8.333  21.268  0.00  0.00    +0.000 C 
ENDROOT
BRANCH   1   9
ATOM      9  C   UNL     1       2.607   6.279  19.555  0.00  0.00    +0.000 C 
BRANCH   9  10
ATOM     10  S   UNL     1       3.261   5.251  18.192  0.00  0.00    +0.000 S 
BRANCH  10  11
ATOM     11  C   UNL     1       5.034   5.686  18.261  0.00  0.00    +0.000 C 
BRANCH  11  13
ATOM     12  O   UNL     1       5.489   3.637  19.461  0.00  0.00    +0.000 OA
ATOM     13  C   UNL     1       5.798   4.795  19.216  0.00  0.00    +0.000 C 
BRANCH  13  14
ATOM     14  O   UNL     1       6.853   5.395  19.818  0.00  0.00    +0.000 OA
ATOM     15  H   UNL     1       6.773   5.505  20.798  0.00  0.00    +0.000 HD
ENDBRANCH  13  14
ENDBRANCH  11  13
ENDBRANCH  10  11
ENDBRANCH   9  10
ENDBRANCH   1   9
BRANCH   6  16
ATOM     16  C   UNL     1      -0.018  11.058  21.934  0.00  0.00    +0.000 C 
BRANCH  16  17
ATOM     17  C   UNL     1      -0.984  12.107  22.445  0.00  0.00    +0.000 A 
ATOM     18  C   UNL     1      -0.599  13.465  22.519  0.00  0.00    +0.000 A 
ATOM     19  C   UNL     1      -1.460  14.430  23.057  0.00  0.00    +0.000 A 
ATOM     20  C   UNL     1      -2.696  14.012  23.501  0.00  0.00    +0.000 A 
ATOM     21  C   UNL     1      -3.089  12.700  23.413  0.00  0.00    +0.000 A 
ATOM     22  C   UNL     1      -2.262  11.725  22.894  0.00  0.00    +0.000 A 
ATOM     23  O   UNL     1      -4.341  12.497  23.901  0.00  0.00    +0.000 OA
ATOM     24  C   UNL     1      -4.686  13.833  24.325  0.00  0.00    +0.000 C 
ATOM     25  O   UNL     1      -3.648  14.802  24.065  0.00  0.00    +0.000 OA
ENDBRANCH  16  17
ENDBRANCH   6  16
TORSDOF 7
ENDMDL
MODEL 8
REMARK VINA RESULT:      -6.1      1.944      2.082
REMARK  Name = 
REMARK  7 active torsions:
REMARK  status: ('A' for Active; 'I' for Inactive)
REMARK    1  A    between atoms: C_2  and  O_3
REMARK    2  A    between atoms: C_2  and  C_4
REMARK    3  A    between atoms: C_4  and  S_5
REMARK    4  A    between atoms: S_5  and  C_6
REMARK    5  A    between atoms: C_6  and  C_7
REMARK    6  A    between atoms: N_12  and  C_13
REMARK    7  A    between atoms: C_13  and  C_14
REMARK                            x       y       z     vdW  Elec       q    Type
REMARK                         _______ _______ _______ _____ _____    ______ ____
ROOT
ATOM      1  C   UNL     1       0.956   9.220  19.811  0.00  0.00    +0.000 C 
ATOM      2  O   UNL     1       0.350   9.408  20.875  0.00  0.00    +0.000 OA
ATOM      3  N   UNL     1       1.806   8.143  19.618  0.00  0.00    +0.000 N 
ATOM      4  C   UNL     1       1.996   7.157  20.689  0.00  0.00    +0.000 C 
ATOM      5  C   UNL     1       1.907   5.707  20.150  0.00  0.00    +0.000 C 
ATOM      6  N   UNL     1       2.750   5.429  18.957  0.00  0.00    +0.000 NA
ATOM      7  C   UNL     1       2.439   6.443  17.927  0.00  0.00    +0.000 C 
ATOM      8  C   UNL     1       2.601   7.894  18.407  0.00  0.00    +0.000 C 
ENDROOT
BRANCH   1   9
ATOM      9  C   UNL     1       0.655  10.138  18.636  0.00  0.00    +0.000 C 
BRANCH   9  10
ATOM     10  S   UNL     1       0.084  11.757  19.263  0.00  0.00    +0.000 S 
BRANCH  10  11
ATOM     11  C   UNL     1       1.667  12.482  19.820  0.00  0.00    +0.000 C 
BRANCH  11  13
ATOM     12  O   UNL     1       2.026  13.965  21.694  0.00  0.00    +0.000 OA
ATOM     13  C   UNL     1       1.457  13.739  20.636  0.00  0.00    +0.000 C 
BRANCH  13  14
ATOM     14  O   UNL     1       0.549  14.598  20.115  0.00  0.00    +0.000 OA
ATOM     15  H   UNL     1      -0.042  14.217  19.420  0.00  0.00    +0.000 HD
ENDBRANCH  13  14
ENDBRANCH  11  13
ENDBRANCH  10  11
ENDBRANCH   9  10
ENDBRANCH   1   9
BRANCH   6  16
ATOM     16  C   UNL     1       4.175   5.393  19.336  0.00  0.00    +0.000 C 
BRANCH  16  17
ATOM     17  C   UNL     1       5.147   5.358  18.175  0.00  0.00    +0.000 A 
ATOM     18  C   UNL     1       6.288   6.192  18.165  0.00  0.00    +0.000 A 
ATOM     19  C   UNL     1       7.153   6.218  17.065  0.00  0.00    +0.000 A 
ATOM     20  C   UNL     1       6.860   5.395  15.998  0.00  0.00    +0.000 A 
ATOM     21  C   UNL     1       5.767   4.565  16.006  0.00  0.00    +0.000 A 
ATOM     22  C   UNL     1       4.893   4.521  17.072  0.00  0.00    +0.000 A 
ATOM     23  O   UNL     1       5.659   3.836  14.864  0.00  0.00    +0.000 OA
ATOM     24  C   UNL     1       6.802   4.318  14.125  0.00  0.00    +0.000 C 
ATOM     25  O   UNL     1       7.575   5.302  14.845  0.00  0.00    +0.000 OA
ENDBRANCH  16  17
ENDBRANCH   6  16
TORSDOF 7
ENDMDL
MODEL 9
REMARK VINA RESULT:      -6.1      5.491      7.650
REMARK  Name = 
REMARK  7 active torsions:
REMARK  status: ('A' for Active; 'I' for Inactive)
REMARK    1  A    between atoms: C_2  and  O_3
REMARK    2  A    between atoms: C_2  and  C_4
REMARK    3  A    between atoms: C_4  and  S_5
REMARK    4  A    between atoms: S_5  and  C_6
REMARK    5  A    between atoms: C_6  and  C_7
REMARK    6  A    between atoms: N_12  and  C_13
REMARK    7  A    between atoms: C_13  and  C_14
REMARK                            x       y       z     vdW  Elec       q    Type
REMARK                         _______ _______ _______ _____ _____    ______ ____
ROOT
ATOM      1  C   UNL     1       5.296   4.332  18.301  0.00  0.00    +0.000 C 
ATOM      2  O   UNL     1       5.448   3.637  19.316  0.00  0.00    +0.000 OA
ATOM      3  N   UNL     1       5.928   5.553  18.133  0.00  0.00    +0.000 N 
ATOM      4  C   UNL     1       6.841   6.055  19.167  0.00  0.00    +0.000 C 
ATOM      5  C   UNL     1       8.159   6.589  18.553  0.00  0.00    +0.000 C 
ATOM      6  N   UNL     1       7.985   7.545  17.428  0.00  0.00    +0.000 NA
ATOM      7  C   UNL     1       7.099   6.917  16.424  0.00  0.00    +0.000 C 
ATOM      8  C   UNL     1       5.746   6.454  16.986  0.00  0.00    +0.000 C 
ENDROOT
BRANCH   1   9
ATOM      9  C   UNL     1       4.482   3.761  17.149  0.00  0.00    +0.000 C 
BRANCH   9  10
ATOM     10  S   UNL     1       3.277   2.551  17.801  0.00  0.00    +0.000 S 
BRANCH  10  11
ATOM     11  C   UNL     1       2.081   3.668  18.615  0.00  0.00    +0.000 C 
BRANCH  11  13
ATOM     12  O   UNL     1       0.292   2.048  18.478  0.00  0.00    +0.000 OA
ATOM     13  C   UNL     1       0.861   2.925  19.113  0.00  0.00    +0.000 C 
BRANCH  13  14
ATOM     14  O   UNL     1       0.415   3.332  20.326  0.00  0.00    +0.000 OA
ATOM     15  H   UNL     1      -0.568   3.386  20.418  0.00  0.00    +0.000 HD
ENDBRANCH  13  14
ENDBRANCH  11  13
ENDBRANCH  10  11
ENDBRANCH   9  10
ENDBRANCH   1   9
BRANCH   6  16
ATOM     16  C   UNL     1       7.484   8.838  17.929  0.00  0.00    +0.000 C 
BRANCH  16  17
ATOM     17  C   UNL     1       8.554   9.811  18.379  0.00  0.00    +0.000 A 
ATOM     18  C   UNL     1       9.032   9.792  19.709  0.00  0.00    +0.000 A 
ATOM     19  C   UNL     1       9.968  10.734  20.152  0.00  0.00    +0.000 A 
ATOM     20  C   UNL     1      10.414  11.672  19.246  0.00  0.00    +0.000 A 
ATOM     21  C   UNL     1       9.973  11.687  17.946  0.00  0.00    +0.000 A 
ATOM     22  C   UNL     1       9.047  10.776  17.481  0.00  0.00    +0.000 A 
ATOM     23  O   UNL     1      10.535  12.686  17.216  0.00  0.00    +0.000 OA
ATOM     24  C   UNL     1      11.369  13.314  18.214  0.00  0.00    +0.000 C 
ATOM     25  O   UNL     1      11.303  12.668  19.503  0.00  0.00    +0.000 OA
ENDBRANCH  16  17
ENDBRANCH   6  16
TORSDOF 7
ENDMDL
