MODEL 1
REMARK VINA RESULT:      -8.1      0.000      0.000
REMARK  Name = 
REMARK  10 active torsions:
REMARK  status: ('A' for Active; 'I' for Inactive)
REMARK    1  A    between atoms: C_1  and  O_2
REMARK    2  A    between atoms: O_2  and  C_3
REMARK    3  A    between atoms: C_6  and  C_7
REMARK    4  A    between atoms: C_7  and  C_8
REMARK    5  A    between atoms: C_8  and  N_9
REMARK    6  A    between atoms: C_12  and  C_13
REMARK    7  A    between atoms: C_13  and  C_15
REMARK    8  A    between atoms: C_18  and  N_19
REMARK    9  A    between atoms: N_19  and  C_20
REMARK   10  A    between atoms: N_19  and  C_21
REMARK                            x       y       z     vdW  Elec       q    Type
REMARK                         _______ _______ _______ _____ _____    ______ ____
ROOT
ATOM      1  N   UNL     1       7.879   8.337  17.721  0.00  0.00    +0.000 N 
ATOM      2  N   UNL     1       8.237   7.295  18.498  0.00  0.00    +0.000 NA
ATOM      3  C   UNL     1       7.398   6.343  18.069  0.00  0.00    +0.000 A 
ATOM      4  C   UNL     1       6.539   6.856  17.076  0.00  0.00    +0.000 A 
ATOM      5  N   UNL     1       6.881   8.137  16.842  0.00  0.00    +0.000 NA
ENDROOT
BRANCH   4   6
ATOM      6  C   UNL     1       5.451   6.179  16.381  0.00  0.00    +0.000 C 
ATOM      7  O   UNL     1       5.374   6.153  15.155  0.00  0.00    +0.000 OA
BRANCH   6   8
ATOM      8  C   UNL     1       4.431   5.460  17.201  0.00  0.00    +0.000 A 
ATOM      9  C   UNL     1       4.303   4.072  17.138  0.00  0.00    +0.000 A 
ATOM     10  C   UNL     1       3.324   3.414  17.891  0.00  0.00    +0.000 A 
ATOM     11  C   UNL     1       2.429   4.099  18.732  0.00  0.00    +0.000 A 
ATOM     12  C   UNL     1       2.568   5.497  18.757  0.00  0.00    +0.000 A 
ATOM     13  C   UNL     1       3.544   6.176  18.003  0.00  0.00    +0.000 A 
BRANCH  11  14
ATOM     14  N   UNL     1       1.456   3.419  19.440  0.00  0.00    +0.000 N 
ATOM     15  C   UNL     1       0.732   2.285  18.860  0.00  0.00    +0.000 C 
ATOM     16  C   UNL     1       1.265   3.587  20.876  0.00  0.00    +0.000 C 
ENDBRANCH  11  14
ENDBRANCH   6   8
ENDBRANCH   4   6
BRANCH   1  17
ATOM     17  C   UNL     1       8.592   9.602  17.766  0.00  0.00    +0.000 C 
BRANCH  17  18
ATOM     18  C   UNL     1       9.008   9.999  19.184  0.00  0.00    +0.000 C 
BRANCH  18  22
ATOM     19  C   UNL     1      11.522  13.512  19.232  0.00  0.00    +0.000 A 
ATOM     20  C   UNL     1      11.171  12.910  18.024  0.00  0.00    +0.000 A 
ATOM     21  C   UNL     1      10.353  11.778  18.007  0.00  0.00    +0.000 A 
ATOM     22  C   UNL     1       9.890  11.223  19.205  0.00  0.00    +0.000 A 
ATOM     23  C   UNL     1      10.265  11.815  20.417  0.00  0.00    +0.000 A 
ATOM     24  C   UNL     1      11.076  12.955  20.430  0.00  0.00    +0.000 A 
BRANCH  19  26
ATOM     25  C   UNL     1      11.778  15.719  18.422  0.00  0.00    +0.000 C 
ATOM     26  O   UNL     1      12.332  14.610  19.120  0.00  0.00    +0.000 OA
ENDBRANCH  19  26
ENDBRANCH  18  22
ENDBRANCH  17  18
ENDBRANCH   1  17
TORSDOF 7
ENDMDL
MODEL 2
REMARK VINA RESULT:      -8.0      0.512      1.065
REMARK  Name = 
REMARK  10 active torsions:
REMARK  status: ('A' for Active; 'I' for Inactive)
REMARK    1  A    between atoms: C_1  and  O_2
REMARK    2  A    between atoms: O_2  and  C_3
REMARK    3  A    between atoms: C_6  and  C_7
REMARK    4  A    between atoms: C_7  and  C_8
REMARK    5  A    between atoms: C_8  and  N_9
REMARK    6  A    between atoms: C_12  and  C_13
REMARK    7  A    between atoms: C_13  and  C_15
REMARK    8  A    between atoms: C_18  and  N_19
REMARK    9  A    between atoms: N_19  and  C_20
REMARK   10  A    between atoms: N_19  and  C_21
REMARK                            x       y       z     vdW  Elec       q    Type
REMARK                         _______ _______ _______ _____ _____    ______ ____
ROOT
ATOM      1  N   UNL     1       7.816   8.498  17.966  0.00  0.00    +0.000 N 
ATOM      2  N   UNL     1       8.259   7.509  18.768  0.00  0.00    +0.000 NA
ATOM      3  C   UNL     1       7.621   6.448  18.259  0.00  0.00    +0.000 A 
ATOM      4  C   UNL     1       6.786   6.841  17.194  0.00  0.00    +0.000 A 
ATOM      5  N   UNL     1       6.945   8.163  16.998  0.00  0.00    +0.000 NA
ENDROOT
BRANCH   4   6
ATOM      6  C   UNL     1       5.884   6.017  16.398  0.00  0.00    +0.000 C 
ATOM      7  O   UNL     1       6.083   5.791  15.206  0.00  0.00    +0.000 OA
BRANCH   6   8
ATOM      8  C   UNL     1       4.710   5.397  17.080  0.00  0.00    +0.000 A 
ATOM      9  C   UNL     1       3.763   6.180  17.742  0.00  0.00    +0.000 A 
ATOM     10  C   UNL     1       2.683   5.583  18.401  0.00  0.00    +0.000 A 
ATOM     11  C   UNL     1       2.495   4.190  18.439  0.00  0.00    +0.000 A 
ATOM     12  C   UNL     1       3.477   3.427  17.783  0.00  0.00    +0.000 A 
ATOM     13  C   UNL     1       4.572   4.011  17.119  0.00  0.00    +0.000 A 
BRANCH  11  14
ATOM     14  N   UNL     1       1.431   3.634  19.123  0.00  0.00    +0.000 N 
ATOM     15  C   UNL     1       0.866   2.336  18.745  0.00  0.00    +0.000 C 
ATOM     16  C   UNL     1       0.972   4.142  20.411  0.00  0.00    +0.000 C 
ENDBRANCH  11  14
ENDBRANCH   6   8
ENDBRANCH   4   6
BRANCH   1  17
ATOM     17  C   UNL     1       8.317   9.857  18.083  0.00  0.00    +0.000 C 
BRANCH  17  18
ATOM     18  C   UNL     1       9.393  10.003  19.161  0.00  0.00    +0.000 C 
BRANCH  18  22
ATOM     19  C   UNL     1      11.567  13.720  18.811  0.00  0.00    +0.000 A 
ATOM     20  C   UNL     1      11.764  12.695  17.885  0.00  0.00    +0.000 A 
ATOM     21  C   UNL     1      11.057  11.496  17.994  0.00  0.00    +0.000 A 
ATOM     22  C   UNL     1      10.153  11.300  19.045  0.00  0.00    +0.000 A 
ATOM     23  C   UNL     1       9.976  12.321  19.986  0.00  0.00    +0.000 A 
ATOM     24  C   UNL     1      10.679  13.526  19.868  0.00  0.00    +0.000 A 
BRANCH  19  26
ATOM     25  C   UNL     1      11.915  15.669  17.519  0.00  0.00    +0.000 C 
ATOM     26  O   UNL     1      12.322  14.843  18.602  0.00  0.00    +0.000 OA
ENDBRANCH  19  26
ENDBRANCH  18  22
ENDBRANCH  17  18
ENDBRANCH   1  17
TORSDOF 7
ENDMDL
MODEL 3
REMARK VINA RESULT:      -8.0      1.258      1.642
REMARK  Name = 
REMARK  10 active torsions:
REMARK  status: ('A' for Active; 'I' for Inactive)
REMARK    1  A    between atoms: C_1  and  O_2
REMARK    2  A    between atoms: O_2  and  C_3
REMARK    3  A    between atoms: C_6  and  C_7
REMARK    4  A    between atoms: C_7  and  C_8
REMARK    5  A    between atoms: C_8  and  N_9
REMARK    6  A    between atoms: C_12  and  C_13
REMARK    7  A    between atoms: C_13  and  C_15
REMARK    8  A    between atoms: C_18  and  N_19
REMARK    9  A    between atoms: N_19  and  C_20
REMARK   10  A    between atoms: N_19  and  C_21
REMARK                            x       y       z     vdW  Elec       q    Type
REMARK                         _______ _______ _______ _____ _____    ______ ____
ROOT
ATOM      1  N   UNL     1       7.919   8.162  17.872  0.00  0.00    +0.000 N 
ATOM      2  N   UNL     1       8.456   7.463  18.891  0.00  0.00    +0.000 NA
ATOM      3  C   UNL     1       8.002   6.229  18.635  0.00  0.00    +0.000 A 
ATOM      4  C   UNL     1       7.176   6.237  17.493  0.00  0.00    +0.000 A 
ATOM      5  N   UNL     1       7.155   7.487  16.995  0.00  0.00    +0.000 NA
ENDROOT
BRANCH   4   6
ATOM      6  C   UNL     1       6.442   5.126  16.898  0.00  0.00    +0.000 C 
ATOM      7  O   UNL     1       6.864   4.511  15.921  0.00  0.00    +0.000 OA
BRANCH   6   8
ATOM      8  C   UNL     1       5.160   4.706  17.538  0.00  0.00    +0.000 A 
ATOM      9  C   UNL     1       4.782   5.197  18.788  0.00  0.00    +0.000 A 
ATOM     10  C   UNL     1       3.592   4.772  19.388  0.00  0.00    +0.000 A 
ATOM     11  C   UNL     1       2.728   3.843  18.781  0.00  0.00    +0.000 A 
ATOM     12  C   UNL     1       3.146   3.350  17.533  0.00  0.00    +0.000 A 
ATOM     13  C   UNL     1       4.343   3.763  16.917  0.00  0.00    +0.000 A 
BRANCH  11  14
ATOM     14  N   UNL     1       1.573   3.426  19.415  0.00  0.00    +0.000 N 
ATOM     15  C   UNL     1       0.638   2.494  18.778  0.00  0.00    +0.000 C 
ATOM     16  C   UNL     1       1.331   3.649  20.836  0.00  0.00    +0.000 C 
ENDBRANCH  11  14
ENDBRANCH   6   8
ENDBRANCH   4   6
BRANCH   1  17
ATOM     17  C   UNL     1       8.215   9.571  17.675  0.00  0.00    +0.000 C 
BRANCH  17  18
ATOM     18  C   UNL     1       9.044  10.169  18.813  0.00  0.00    +0.000 C 
BRANCH  18  22
ATOM     19  C   UNL     1      10.832  13.959  17.761  0.00  0.00    +0.000 A 
ATOM     20  C   UNL     1       9.617  13.915  18.444  0.00  0.00    +0.000 A 
ATOM     21  C   UNL     1       9.041  12.691  18.790  0.00  0.00    +0.000 A 
ATOM     22  C   UNL     1       9.669  11.490  18.440  0.00  0.00    +0.000 A 
ATOM     23  C   UNL     1      10.876  11.537  17.732  0.00  0.00    +0.000 A 
ATOM     24  C   UNL     1      11.456  12.766  17.397  0.00  0.00    +0.000 A 
BRANCH  19  26
ATOM     25  C   UNL     1      10.297  16.174  17.132  0.00  0.00    +0.000 C 
ATOM     26  O   UNL     1      11.291  15.216  17.473  0.00  0.00    +0.000 OA
ENDBRANCH  19  26
ENDBRANCH  18  22
ENDBRANCH  17  18
ENDBRANCH   1  17
TORSDOF 7
ENDMDL
MODEL 4
REMARK VINA RESULT:      -7.9      1.080      1.666
REMARK  Name = 
REMARK  10 active torsions:
REMARK  status: ('A' for Active; 'I' for Inactive)
REMARK    1  A    between atoms: C_1  and  O_2
REMARK    2  A    between atoms: O_2  and  C_3
REMARK    3  A    between atoms: C_6  and  C_7
REMARK    4  A    between atoms: C_7  and  C_8
REMARK    5  A    between atoms: C_8  and  N_9
REMARK    6  A    between atoms: C_12  and  C_13
REMARK    7  A    between atoms: C_13  and  C_15
REMARK    8  A    between atoms: C_18  and  N_19
REMARK    9  A    between atoms: N_19  and  C_20
REMARK   10  A    between atoms: N_19  and  C_21
REMARK                            x       y       z     vdW  Elec       q    Type
REMARK                         _______ _______ _______ _____ _____    ______ ____
ROOT
ATOM      1  N   UNL     1       8.062   8.138  18.157  0.00  0.00    +0.000 N 
ATOM      2  N   UNL     1       8.316   6.968  18.776  0.00  0.00    +0.000 NA
ATOM      3  C   UNL     1       7.390   6.171  18.229  0.00  0.00    +0.000 A 
ATOM      4  C   UNL     1       6.585   6.899  17.329  0.00  0.00    +0.000 A 
ATOM      5  N   UNL     1       7.050   8.161  17.272  0.00  0.00    +0.000 NA
ENDROOT
BRANCH   4   6
ATOM      6  C   UNL     1       5.437   6.434  16.559  0.00  0.00    +0.000 C 
ATOM      7  O   UNL     1       5.313   6.673  15.360  0.00  0.00    +0.000 OA
BRANCH   6   8
ATOM      8  C   UNL     1       4.412   5.603  17.257  0.00  0.00    +0.000 A 
ATOM      9  C   UNL     1       3.385   6.192  17.995  0.00  0.00    +0.000 A 
ATOM     10  C   UNL     1       2.448   5.399  18.667  0.00  0.00    +0.000 A 
ATOM     11  C   UNL     1       2.488   3.994  18.641  0.00  0.00    +0.000 A 
ATOM     12  C   UNL     1       3.546   3.430  17.907  0.00  0.00    +0.000 A 
ATOM     13  C   UNL     1       4.500   4.212  17.230  0.00  0.00    +0.000 A 
BRANCH  11  14
ATOM     14  N   UNL     1       1.562   3.243  19.338  0.00  0.00    +0.000 N 
ATOM     15  C   UNL     1       1.315   3.457  20.767  0.00  0.00    +0.000 C 
ATOM     16  C   UNL     1       0.581   2.390  18.677  0.00  0.00    +0.000 C 
ENDBRANCH  11  14
ENDBRANCH   6   8
ENDBRANCH   4   6
BRANCH   1  17
ATOM     17  C   UNL     1       8.894   9.310  18.371  0.00  0.00    +0.000 C 
BRANCH  17  18
ATOM     18  C   UNL     1       8.152  10.622  18.112  0.00  0.00    +0.000 C 
BRANCH  18  22
ATOM     19  C   UNL     1      10.842  13.968  17.629  0.00  0.00    +0.000 A 
ATOM     20  C   UNL     1      11.329  12.662  17.621  0.00  0.00    +0.000 A 
ATOM     21  C   UNL     1      10.460  11.579  17.771  0.00  0.00    +0.000 A 
ATOM     22  C   UNL     1       9.088  11.793  17.948  0.00  0.00    +0.000 A 
ATOM     23  C   UNL     1       8.605  13.107  17.980  0.00  0.00    +0.000 A 
ATOM     24  C   UNL     1       9.478  14.189  17.819  0.00  0.00    +0.000 A 
BRANCH  19  26
ATOM     25  C   UNL     1      11.344  16.158  16.892  0.00  0.00    +0.000 C 
ATOM     26  O   UNL     1      11.791  14.943  17.480  0.00  0.00    +0.000 OA
ENDBRANCH  19  26
ENDBRANCH  18  22
ENDBRANCH  17  18
ENDBRANCH   1  17
TORSDOF 7
ENDMDL
MODEL 5
REMARK VINA RESULT:      -7.8      1.035      1.529
REMARK  Name = 
REMARK  10 active torsions:
REMARK  status: ('A' for Active; 'I' for Inactive)
REMARK    1  A    between atoms: C_1  and  O_2
REMARK    2  A    between atoms: O_2  and  C_3
REMARK    3  A    between atoms: C_6  and  C_7
REMARK    4  A    between atoms: C_7  and  C_8
REMARK    5  A    between atoms: C_8  and  N_9
REMARK    6  A    between atoms: C_12  and  C_13
REMARK    7  A    between atoms: C_13  and  C_15
REMARK    8  A    between atoms: C_18  and  N_19
REMARK    9  A    between atoms: N_19  and  C_20
REMARK   10  A    between atoms: N_19  and  C_21
REMARK                            x       y       z     vdW  Elec       q    Type
REMARK                         _______ _______ _______ _____ _____    ______ ____
ROOT
ATOM      1  N   UNL     1       8.002   8.110  18.056  0.00  0.00    +0.000 N 
ATOM      2  N   UNL     1       8.263   6.928  18.650  0.00  0.00    +0.000 NA
ATOM      3  C   UNL     1       7.310   6.150  18.122  0.00  0.00    +0.000 A 
ATOM      4  C   UNL     1       6.485   6.899  17.259  0.00  0.00    +0.000 A 
ATOM      5  N   UNL     1       6.962   8.156  17.205  0.00  0.00    +0.000 NA
ENDROOT
BRANCH   4   6
ATOM      6  C   UNL     1       5.307   6.457  16.521  0.00  0.00    +0.000 C 
ATOM      7  O   UNL     1       5.133   6.739  15.337  0.00  0.00    +0.000 OA
BRANCH   6   8
ATOM      8  C   UNL     1       4.314   5.597  17.229  0.00  0.00    +0.000 A 
ATOM      9  C   UNL     1       3.306   6.156  18.017  0.00  0.00    +0.000 A 
ATOM     10  C   UNL     1       2.399   5.336  18.697  0.00  0.00    +0.000 A 
ATOM     11  C   UNL     1       2.452   3.933  18.633  0.00  0.00    +0.000 A 
ATOM     12  C   UNL     1       3.491   3.399  17.851  0.00  0.00    +0.000 A 
ATOM     13  C   UNL     1       4.415   4.208  17.163  0.00  0.00    +0.000 A 
BRANCH  11  14
ATOM     14  N   UNL     1       1.557   3.154  19.341  0.00  0.00    +0.000 N 
ATOM     15  C   UNL     1       0.586   2.289  18.665  0.00  0.00    +0.000 C 
ATOM     16  C   UNL     1       1.679   2.920  20.776  0.00  0.00    +0.000 C 
ENDBRANCH  11  14
ENDBRANCH   6   8
ENDBRANCH   4   6
BRANCH   1  17
ATOM     17  C   UNL     1       8.854   9.270  18.258  0.00  0.00    +0.000 C 
BRANCH  17  18
ATOM     18  C   UNL     1       8.139  10.590  17.968  0.00  0.00    +0.000 C 
BRANCH  18  22
ATOM     19  C   UNL     1      10.838  13.963  17.908  0.00  0.00    +0.000 A 
ATOM     20  C   UNL     1       9.460  14.161  17.988  0.00  0.00    +0.000 A 
ATOM     21  C   UNL     1       8.587  13.072  18.013  0.00  0.00    +0.000 A 
ATOM     22  C   UNL     1       9.084  11.765  17.942  0.00  0.00    +0.000 A 
ATOM     23  C   UNL     1      10.466  11.571  17.837  0.00  0.00    +0.000 A 
ATOM     24  C   UNL     1      11.339  12.665  17.822  0.00  0.00    +0.000 A 
BRANCH  19  26
ATOM     25  C   UNL     1      11.296  16.017  16.830  0.00  0.00    +0.000 C 
ATOM     26  O   UNL     1      11.589  15.108  17.884  0.00  0.00    +0.000 OA
ENDBRANCH  19  26
ENDBRANCH  18  22
ENDBRANCH  17  18
ENDBRANCH   1  17
TORSDOF 7
ENDMDL
MODEL 6
REMARK VINA RESULT:      -7.8      0.720      1.431
REMARK  Name = 
REMARK  10 active torsions:
REMARK  status: ('A' for Active; 'I' for Inactive)
REMARK    1  A    between atoms: C_1  and  O_2
REMARK    2  A    between atoms: O_2  and  C_3
REMARK    3  A    between atoms: C_6  and  C_7
REMARK    4  A    between atoms: C_7  and  C_8
REMARK    5  A    between atoms: C_8  and  N_9
REMARK    6  A    between atoms: C_12  and  C_13
REMARK    7  A    between atoms: C_13  and  C_15
REMARK    8  A    between atoms: C_18  and  N_19
REMARK    9  A    between atoms: N_19  and  C_20
REMARK   10  A    between atoms: N_19  and  C_21
REMARK                            x       y       z     vdW  Elec       q    Type
REMARK                         _______ _______ _______ _____ _____    ______ ____
ROOT
ATOM      1  N   UNL     1       8.081   8.007  18.310  0.00  0.00    +0.000 N 
ATOM      2  N   UNL     1       8.395   6.759  18.712  0.00  0.00    +0.000 NA
ATOM      3  C   UNL     1       7.488   6.031  18.049  0.00  0.00    +0.000 A 
ATOM      4  C   UNL     1       6.635   6.868  17.302  0.00  0.00    +0.000 A 
ATOM      5  N   UNL     1       7.049   8.140  17.458  0.00  0.00    +0.000 NA
ENDROOT
BRANCH   4   6
ATOM      6  C   UNL     1       5.489   6.495  16.482  0.00  0.00    +0.000 C 
ATOM      7  O   UNL     1       5.436   6.744  15.279  0.00  0.00    +0.000 OA
BRANCH   6   8
ATOM      8  C   UNL     1       4.373   5.745  17.130  0.00  0.00    +0.000 A 
ATOM      9  C   UNL     1       3.417   6.401  17.906  0.00  0.00    +0.000 A 
ATOM     10  C   UNL     1       2.393   5.680  18.531  0.00  0.00    +0.000 A 
ATOM     11  C   UNL     1       2.273   4.284  18.420  0.00  0.00    +0.000 A 
ATOM     12  C   UNL     1       3.263   3.649  17.650  0.00  0.00    +0.000 A 
ATOM     13  C   UNL     1       4.303   4.357  17.018  0.00  0.00    +0.000 A 
BRANCH  11  14
ATOM     14  N   UNL     1       1.265   3.602  19.073  0.00  0.00    +0.000 N 
ATOM     15  C   UNL     1       0.765   2.314  18.587  0.00  0.00    +0.000 C 
ATOM     16  C   UNL     1       0.815   3.958  20.415  0.00  0.00    +0.000 C 
ENDBRANCH  11  14
ENDBRANCH   6   8
ENDBRANCH   4   6
BRANCH   1  17
ATOM     17  C   UNL     1       8.871   9.159  18.711  0.00  0.00    +0.000 C 
BRANCH  17  18
ATOM     18  C   UNL     1       8.612  10.390  17.841  0.00  0.00    +0.000 C 
BRANCH  18  22
ATOM     19  C   UNL     1      11.255  13.669  18.801  0.00  0.00    +0.000 A 
ATOM     20  C   UNL     1      11.464  12.407  19.354  0.00  0.00    +0.000 A 
ATOM     21  C   UNL     1      10.614  11.344  19.040  0.00  0.00    +0.000 A 
ATOM     22  C   UNL     1       9.529  11.538  18.177  0.00  0.00    +0.000 A 
ATOM     23  C   UNL     1       9.307  12.813  17.644  0.00  0.00    +0.000 A 
ATOM     24  C   UNL     1      10.167  13.873  17.953  0.00  0.00    +0.000 A 
BRANCH  19  26
ATOM     25  C   UNL     1      11.590  15.882  19.566  0.00  0.00    +0.000 C 
ATOM     26  O   UNL     1      12.150  14.629  19.191  0.00  0.00    +0.000 OA
ENDBRANCH  19  26
ENDBRANCH  18  22
ENDBRANCH  17  18
ENDBRANCH   1  17
TORSDOF 7
ENDMDL
MODEL 7
REMARK VINA RESULT:      -7.6      5.316      7.581
REMARK  Name = 
REMARK  10 active torsions:
REMARK  status: ('A' for Active; 'I' for Inactive)
REMARK    1  A    between atoms: C_1  and  O_2
REMARK    2  A    between atoms: O_2  and  C_3
REMARK    3  A    between atoms: C_6  and  C_7
REMARK    4  A    between atoms: C_7  and  C_8
REMARK    5  A    between atoms: C_8  and  N_9
REMARK    6  A    between atoms: C_12  and  C_13
REMARK    7  A    between atoms: C_13  and  C_15
REMARK    8  A    between atoms: C_18  and  N_19
REMARK    9  A    between atoms: N_19  and  C_20
REMARK   10  A    between atoms: N_19  and  C_21
REMARK                            x       y       z     vdW  Elec       q    Type
REMARK                         _______ _______ _______ _____ _____    ______ ____
ROOT
ATOM      1  N   UNL     1       5.907   5.098  19.471  0.00  0.00    +0.000 N 
ATOM      2  N   UNL     1       5.637   3.779  19.397  0.00  0.00    +0.000 NA
ATOM      3  C   UNL     1       4.299   3.778  19.454  0.00  0.00    +0.000 A 
ATOM      4  C   UNL     1       3.812   5.093  19.599  0.00  0.00    +0.000 A 
ATOM      5  N   UNL     1       4.862   5.936  19.580  0.00  0.00    +0.000 NA
ENDROOT
BRANCH   4   6
ATOM      6  C   UNL     1       2.432   5.537  19.749  0.00  0.00    +0.000 C 
ATOM      7  O   UNL     1       1.536   4.777  20.110  0.00  0.00    +0.000 OA
BRANCH   6   8
ATOM      8  C   UNL     1       2.123   6.975  19.496  0.00  0.00    +0.000 A 
ATOM      9  C   UNL     1       1.568   7.781  20.492  0.00  0.00    +0.000 A 
ATOM     10  C   UNL     1       1.258   9.120  20.231  0.00  0.00    +0.000 A 
ATOM     11  C   UNL     1       1.477   9.718  18.978  0.00  0.00    +0.000 A 
ATOM     12  C   UNL     1       2.016   8.876  17.989  0.00  0.00    +0.000 A 
ATOM     13  C   UNL     1       2.330   7.526  18.232  0.00  0.00    +0.000 A 
BRANCH  11  14
ATOM     14  N   UNL     1       1.133  11.036  18.749  0.00  0.00    +0.000 N 
ATOM     15  C   UNL     1      -0.177  11.568  19.132  0.00  0.00    +0.000 C 
ATOM     16  C   UNL     1       2.111  12.051  18.371  0.00  0.00    +0.000 C 
ENDBRANCH  11  14
ENDBRANCH   6   8
ENDBRANCH   4   6
BRANCH   1  17
ATOM     17  C   UNL     1       7.263   5.606  19.356  0.00  0.00    +0.000 C 
BRANCH  17  18
ATOM     18  C   UNL     1       7.488   6.417  18.079  0.00  0.00    +0.000 C 
BRANCH  18  22
ATOM     19  C   UNL     1       5.768   4.544  14.586  0.00  0.00    +0.000 A 
ATOM     20  C   UNL     1       5.253   5.746  15.070  0.00  0.00    +0.000 A 
ATOM     21  C   UNL     1       5.812   6.355  16.195  0.00  0.00    +0.000 A 
ATOM     22  C   UNL     1       6.887   5.757  16.863  0.00  0.00    +0.000 A 
ATOM     23  C   UNL     1       7.385   4.538  16.389  0.00  0.00    +0.000 A 
ATOM     24  C   UNL     1       6.829   3.935  15.255  0.00  0.00    +0.000 A 
BRANCH  19  26
ATOM     25  C   UNL     1       5.970   3.433  12.508  0.00  0.00    +0.000 C 
ATOM     26  O   UNL     1       5.132   4.042  13.483  0.00  0.00    +0.000 OA
ENDBRANCH  19  26
ENDBRANCH  18  22
ENDBRANCH  17  18
ENDBRANCH   1  17
TORSDOF 7
ENDMDL
MODEL 8
REMARK VINA RESULT:      -7.6      0.820      1.091
REMARK  Name = 
REMARK  10 active torsions:
REMARK  status: ('A' for Active; 'I' for Inactive)
REMARK    1  A    between atoms: C_1  and  O_2
REMARK    2  A    between atoms: O_2  and  C_3
REMARK    3  A    between atoms: C_6  and  C_7
REMARK    4  A    between atoms: C_7  and  C_8
REMARK    5  A    between atoms: C_8  and  N_9
REMARK    6  A    between atoms: C_12  and  C_13
REMARK    7  A    between atoms: C_13  and  C_15
REMARK    8  A    between atoms: C_18  and  N_19
REMARK    9  A    between atoms: N_19  and  C_20
REMARK   10  A    between atoms: N_19  and  C_21
REMARK                            x       y       z     vdW  Elec       q    Type
REMARK                         _______ _______ _______ _____ _____    ______ ____
ROOT
ATOM      1  N   UNL     1       8.086   8.069  18.074  0.00  0.00    +0.000 N 
ATOM      2  N   UNL     1       8.284   6.928  18.764  0.00  0.00    +0.000 NA
ATOM      3  C   UNL     1       7.327   6.141  18.256  0.00  0.00    +0.000 A 
ATOM      4  C   UNL     1       6.563   6.848  17.306  0.00  0.00    +0.000 A 
ATOM      5  N   UNL     1       7.083   8.083  17.179  0.00  0.00    +0.000 NA
ENDROOT
BRANCH   4   6
ATOM      6  C   UNL     1       5.400   6.389  16.555  0.00  0.00    +0.000 C 
ATOM      7  O   UNL     1       5.278   6.594  15.349  0.00  0.00    +0.000 OA
BRANCH   6   8
ATOM      8  C   UNL     1       4.357   5.605  17.280  0.00  0.00    +0.000 A 
ATOM      9  C   UNL     1       4.244   4.224  17.111  0.00  0.00    +0.000 A 
ATOM     10  C   UNL     1       3.243   3.508  17.776  0.00  0.00    +0.000 A 
ATOM     11  C   UNL     1       2.311   4.123  18.630  0.00  0.00    +0.000 A 
ATOM     12  C   UNL     1       2.437   5.516  18.763  0.00  0.00    +0.000 A 
ATOM     13  C   UNL     1       3.435   6.254  18.098  0.00  0.00    +0.000 A 
BRANCH  11  14
ATOM     14  N   UNL     1       1.319   3.387  19.249  0.00  0.00    +0.000 N 
ATOM     15  C   UNL     1       0.714   2.216  18.607  0.00  0.00    +0.000 C 
ATOM     16  C   UNL     1       0.992   3.538  20.662  0.00  0.00    +0.000 C 
ENDBRANCH  11  14
ENDBRANCH   6   8
ENDBRANCH   4   6
BRANCH   1  17
ATOM     17  C   UNL     1       8.968   9.214  18.226  0.00  0.00    +0.000 C 
BRANCH  17  18
ATOM     18  C   UNL     1       8.227  10.550  18.145  0.00  0.00    +0.000 C 
BRANCH  18  22
ATOM     19  C   UNL     1      10.909  13.929  18.371  0.00  0.00    +0.000 A 
ATOM     20  C   UNL     1      11.324  12.667  18.794  0.00  0.00    +0.000 A 
ATOM     21  C   UNL     1      10.460  11.573  18.716  0.00  0.00    +0.000 A 
ATOM     22  C   UNL     1       9.159  11.733  18.227  0.00  0.00    +0.000 A 
ATOM     23  C   UNL     1       8.737  13.006  17.826  0.00  0.00    +0.000 A 
ATOM     24  C   UNL     1       9.609  14.099  17.896  0.00  0.00    +0.000 A 
BRANCH  19  26
ATOM     25  C   UNL     1      12.333  15.476  17.289  0.00  0.00    +0.000 C 
ATOM     26  O   UNL     1      11.843  14.922  18.503  0.00  0.00    +0.000 OA
ENDBRANCH  19  26
ENDBRANCH  18  22
ENDBRANCH  17  18
ENDBRANCH   1  17
TORSDOF 7
ENDMDL
MODEL 9
REMARK VINA RESULT:      -7.5      5.834      8.938
REMARK  Name = 
REMARK  10 active torsions:
REMARK  status: ('A' for Active; 'I' for Inactive)
REMARK    1  A    between atoms: C_1  and  O_2
REMARK    2  A    between atoms: O_2  and  C_3
REMARK    3  A    between atoms: C_6  and  C_7
REMARK    4  A    between atoms: C_7  and  C_8
REMARK    5  A    between atoms: C_8  and  N_9
REMARK    6  A    between atoms: C_12  and  C_13
REMARK    7  A    between atoms: C_13  and  C_15
REMARK    8  A    between atoms: C_18  and  N_19
REMARK    9  A    between atoms: N_19  and  C_20
REMARK   10  A    between atoms: N_19  and  C_21
REMARK                            x       y       z     vdW  Elec       q    Type
REMARK                         _______ _______ _______ _____ _____    ______ ____
ROOT
ATOM      1  N   UNL     1       2.074   7.316  19.867  0.00  0.00    +0.000 N 
ATOM      2  N   UNL     1       1.456   7.576  21.037  0.00  0.00    +0.000 NA
ATOM      3  C   UNL     1       0.925   8.781  20.794  0.00  0.00    +0.000 A 
ATOM      4  C   UNL     1       1.274   9.221  19.501  0.00  0.00    +0.000 A 
ATOM      5  N   UNL     1       1.992   8.252  18.905  0.00  0.00    +0.000 NA
ENDROOT
BRANCH   4   6
ATOM      6  C   UNL     1       0.950  10.489  18.857  0.00  0.00    +0.000 C 
ATOM      7  O   UNL     1       1.817  11.237  18.412  0.00  0.00    +0.000 OA
BRANCH   6   8
ATOM      8  C   UNL     1      -0.490  10.851  18.700  0.00  0.00    +0.000 A 
ATOM      9  C   UNL     1      -1.080  11.828  19.503  0.00  0.00    +0.000 A 
ATOM     10  C   UNL     1      -2.437  12.138  19.363  0.00  0.00    +0.000 A 
ATOM     11  C   UNL     1      -3.269  11.493  18.430  0.00  0.00    +0.000 A 
ATOM     12  C   UNL     1      -2.651  10.499  17.652  0.00  0.00    +0.000 A 
ATOM     13  C   UNL     1      -1.288  10.171  17.782  0.00  0.00    +0.000 A 
BRANCH  11  14
ATOM     14  N   UNL     1      -4.611  11.805  18.339  0.00  0.00    +0.000 N 
ATOM     15  C   UNL     1      -5.370  12.290  19.495  0.00  0.00    +0.000 C 
ATOM     16  C   UNL     1      -5.303  11.941  17.061  0.00  0.00    +0.000 C 
ENDBRANCH  11  14
ENDBRANCH   6   8
ENDBRANCH   4   6
BRANCH   1  17
ATOM     17  C   UNL     1       2.734   6.046  19.620  0.00  0.00    +0.000 C 
BRANCH  17  18
ATOM     18  C   UNL     1       2.503   5.523  18.201  0.00  0.00    +0.000 C 
BRANCH  18  22
ATOM     19  C   UNL     1       6.178   5.220  15.950  0.00  0.00    +0.000 A 
ATOM     20  C   UNL     1       5.692   6.466  16.345  0.00  0.00    +0.000 A 
ATOM     21  C   UNL     1       4.507   6.564  17.078  0.00  0.00    +0.000 A 
ATOM     22  C   UNL     1       3.783   5.413  17.411  0.00  0.00    +0.000 A 
ATOM     23  C   UNL     1       4.262   4.167  16.990  0.00  0.00    +0.000 A 
ATOM     24  C   UNL     1       5.455   4.071  16.265  0.00  0.00    +0.000 A 
BRANCH  19  26
ATOM     25  C   UNL     1       7.236   4.886  13.861  0.00  0.00    +0.000 C 
ATOM     26  O   UNL     1       7.343   5.254  15.231  0.00  0.00    +0.000 OA
ENDBRANCH  19  26
ENDBRANCH  18  22
ENDBRANCH  17  18
ENDBRANCH   1  17
TORSDOF 7
ENDMDL
