MODEL 1
REMARK VINA RESULT:      -8.1      0.000      0.000
REMARK  Name = 
REMARK  7 active torsions:
REMARK  status: ('A' for Active; 'I' for Inactive)
REMARK    1  A    between atoms: C_2  and  C_12
REMARK    2  A    between atoms: N_3  and  O_4
REMARK    3  A    between atoms: O_4  and  C_5
REMARK    4  A    between atoms: C_5  and  C_6
REMARK    5  A    between atoms: N_14  and  O_15
REMARK    6  A    between atoms: O_15  and  C_16
REMARK    7  A    between atoms: C_16  and  C_17
REMARK                            x       y       z     vdW  Elec       q    Type
REMARK                         _______ _______ _______ _____ _____    ______ ____
ROOT
ATOM      1  N   UNL     1       7.230   5.571  15.824  0.00  0.00    +0.000 N 
ATOM      2  C   UNL     1       6.893   5.683  17.154  0.00  0.00    +0.000 C 
ATOM      3  N   UNL     1       6.021   4.929  17.756  0.00  0.00    +0.000 NA
ATOM      4  H   UNL     1       6.912   4.699  15.416  0.00  0.00    +0.000 HD
ATOM      5  H   UNL     1       8.154   5.881  15.558  0.00  0.00    +0.000 HD
ENDROOT
BRANCH   2   6
ATOM      6  C   UNL     1       7.650   6.732  18.002  0.00  0.00    +0.000 C 
ATOM      7  N   UNL     1       8.147   6.331  19.229  0.00  0.00    +0.000 N 
ATOM      8  N   UNL     1       7.787   7.932  17.518  0.00  0.00    +0.000 NA
ATOM      9  H   UNL     1       7.517   5.741  19.760  0.00  0.00    +0.000 HD
ATOM     10  H   UNL     1       8.439   7.151  19.757  0.00  0.00    +0.000 HD
BRANCH   8  11
ATOM     11  O   UNL     1       8.472   8.753  18.438  0.00  0.00    +0.000 OA
BRANCH  11  12
ATOM     12  C   UNL     1       8.423  10.105  17.979  0.00  0.00    +0.000 C 
BRANCH  12  13
ATOM     13  C   UNL     1       9.566  10.860  18.610  0.00  0.00    +0.000 A 
ATOM     14  C   UNL     1      10.625  11.335  17.825  0.00  0.00    +0.000 A 
ATOM     15  C   UNL     1      11.693  12.015  18.411  0.00  0.00    +0.000 A 
ATOM     16  C   UNL     1      11.716  12.222  19.790  0.00  0.00    +0.000 A 
ATOM     17  C   UNL     1      10.674  11.744  20.582  0.00  0.00    +0.000 A 
ATOM     18  C   UNL     1       9.605  11.064  19.996  0.00  0.00    +0.000 A 
ENDBRANCH  12  13
ENDBRANCH  11  12
ENDBRANCH   8  11
ENDBRANCH   2   6
BRANCH   3  19
ATOM     19  O   UNL     1       5.457   4.012  16.843  0.00  0.00    +0.000 OA
BRANCH  19  20
ATOM     20  C   UNL     1       4.128   4.433  16.532  0.00  0.00    +0.000 C 
BRANCH  20  21
ATOM     21  C   UNL     1       3.178   3.798  17.515  0.00  0.00    +0.000 A 
ATOM     22  C   UNL     1       2.223   4.576  18.186  0.00  0.00    +0.000 A 
ATOM     23  C   UNL     1       1.354   3.986  19.110  0.00  0.00    +0.000 A 
ATOM     24  C   UNL     1       1.432   2.621  19.372  0.00  0.00    +0.000 A 
ATOM     25  C   UNL     1       2.385   1.840  18.722  0.00  0.00    +0.000 A 
ATOM     26  C   UNL     1       3.256   2.424  17.798  0.00  0.00    +0.000 A 
ENDBRANCH  20  21
ENDBRANCH  19  20
ENDBRANCH   3  19
TORSDOF 7
ENDMDL
MODEL 2
REMARK VINA RESULT:      -8.0      1.079      9.492
REMARK  Name = 
REMARK  7 active torsions:
REMARK  status: ('A' for Active; 'I' for Inactive)
REMARK    1  A    between atoms: C_2  and  C_12
REMARK    2  A    between atoms: N_3  and  O_4
REMARK    3  A    between atoms: O_4  and  C_5
REMARK    4  A    between atoms: C_5  and  C_6
REMARK    5  A    between atoms: N_14  and  O_15
REMARK    6  A    between atoms: O_15  and  C_16
REMARK    7  A    between atoms: C_16  and  C_17
REMARK                            x       y       z     vdW  Elec       q    Type
REMARK                         _______ _______ _______ _____ _____    ______ ____
ROOT
ATOM      1  N   UNL     1       8.059   6.600  18.873  0.00  0.00    +0.000 N 
ATOM      2  C   UNL     1       7.305   7.181  17.878  0.00  0.00    +0.000 C 
ATOM      3  N   UNL     1       7.555   8.343  17.351  0.00  0.00    +0.000 NA
ATOM      4  H   UNL     1       8.959   7.053  18.990  0.00  0.00    +0.000 HD
ATOM      5  H   UNL     1       8.054   5.591  18.922  0.00  0.00    +0.000 HD
ENDROOT
BRANCH   2   6
ATOM      6  C   UNL     1       6.119   6.367  17.307  0.00  0.00    +0.000 C 
ATOM      7  N   UNL     1       5.990   6.297  15.932  0.00  0.00    +0.000 N 
ATOM      8  N   UNL     1       5.310   5.788  18.145  0.00  0.00    +0.000 NA
ATOM      9  H   UNL     1       6.166   7.173  15.452  0.00  0.00    +0.000 HD
ATOM     10  H   UNL     1       5.078   5.910  15.700  0.00  0.00    +0.000 HD
BRANCH   8  11
ATOM     11  O   UNL     1       4.281   5.122  17.447  0.00  0.00    +0.000 OA
BRANCH  11  12
ATOM     12  C   UNL     1       3.026   5.700  17.810  0.00  0.00    +0.000 C 
BRANCH  12  13
ATOM     13  C   UNL     1       2.333   4.762  18.765  0.00  0.00    +0.000 A 
ATOM     14  C   UNL     1       2.428   4.956  20.150  0.00  0.00    +0.000 A 
ATOM     15  C   UNL     1       1.805   4.075  21.034  0.00  0.00    +0.000 A 
ATOM     16  C   UNL     1       1.084   2.987  20.544  0.00  0.00    +0.000 A 
ATOM     17  C   UNL     1       0.992   2.777  19.169  0.00  0.00    +0.000 A 
ATOM     18  C   UNL     1       1.615   3.658  18.284  0.00  0.00    +0.000 A 
ENDBRANCH  12  13
ENDBRANCH  11  12
ENDBRANCH   8  11
ENDBRANCH   2   6
BRANCH   3  19
ATOM     19  O   UNL     1       8.684   8.924  17.968  0.00  0.00    +0.000 OA
BRANCH  19  20
ATOM     20  C   UNL     1       8.384  10.283  18.288  0.00  0.00    +0.000 C 
BRANCH  20  21
ATOM     21  C   UNL     1       9.642  10.953  18.781  0.00  0.00    +0.000 A 
ATOM     22  C   UNL     1       9.786  11.289  20.135  0.00  0.00    +0.000 A 
ATOM     23  C   UNL     1      10.947  11.926  20.584  0.00  0.00    +0.000 A 
ATOM     24  C   UNL     1      11.969  12.233  19.691  0.00  0.00    +0.000 A 
ATOM     25  C   UNL     1      11.832  11.915  18.341  0.00  0.00    +0.000 A 
ATOM     26  C   UNL     1      10.674  11.280  17.885  0.00  0.00    +0.000 A 
ENDBRANCH  20  21
ENDBRANCH  19  20
ENDBRANCH   3  19
TORSDOF 7
ENDMDL
MODEL 3
REMARK VINA RESULT:      -8.0      1.107      9.545
REMARK  Name = 
REMARK  7 active torsions:
REMARK  status: ('A' for Active; 'I' for Inactive)
REMARK    1  A    between atoms: C_2  and  C_12
REMARK    2  A    between atoms: N_3  and  O_4
REMARK    3  A    between atoms: O_4  and  C_5
REMARK    4  A    between atoms: C_5  and  C_6
REMARK    5  A    between atoms: N_14  and  O_15
REMARK    6  A    between atoms: O_15  and  C_16
REMARK    7  A    between atoms: C_16  and  C_17
REMARK                            x       y       z     vdW  Elec       q    Type
REMARK                         _______ _______ _______ _____ _____    ______ ____
ROOT
ATOM      1  N   UNL     1       8.054   6.578  18.793  0.00  0.00    +0.000 N 
ATOM      2  C   UNL     1       7.276   7.214  17.852  0.00  0.00    +0.000 C 
ATOM      3  N   UNL     1       7.515   8.404  17.384  0.00  0.00    +0.000 NA
ATOM      4  H   UNL     1       8.958   7.022  18.911  0.00  0.00    +0.000 HD
ATOM      5  H   UNL     1       8.048   5.567  18.785  0.00  0.00    +0.000 HD
ENDROOT
BRANCH   2   6
ATOM      6  C   UNL     1       6.074   6.435  17.267  0.00  0.00    +0.000 C 
ATOM      7  N   UNL     1       5.924   6.420  15.892  0.00  0.00    +0.000 N 
ATOM      8  N   UNL     1       5.272   5.830  18.094  0.00  0.00    +0.000 NA
ATOM      9  H   UNL     1       6.101   7.313  15.445  0.00  0.00    +0.000 HD
ATOM     10  H   UNL     1       5.005   6.051  15.659  0.00  0.00    +0.000 HD
BRANCH   8  11
ATOM     11  O   UNL     1       4.226   5.202  17.385  0.00  0.00    +0.000 OA
BRANCH  11  12
ATOM     12  C   UNL     1       2.984   5.786  17.780  0.00  0.00    +0.000 C 
BRANCH  12  13
ATOM     13  C   UNL     1       2.227   4.773  18.603  0.00  0.00    +0.000 A 
ATOM     14  C   UNL     1       1.672   3.636  17.998  0.00  0.00    +0.000 A 
ATOM     15  C   UNL     1       0.954   2.711  18.755  0.00  0.00    +0.000 A 
ATOM     16  C   UNL     1       0.775   2.914  20.123  0.00  0.00    +0.000 A 
ATOM     17  C   UNL     1       1.312   4.047  20.733  0.00  0.00    +0.000 A 
ATOM     18  C   UNL     1       2.032   4.973  19.977  0.00  0.00    +0.000 A 
ENDBRANCH  12  13
ENDBRANCH  11  12
ENDBRANCH   8  11
ENDBRANCH   2   6
BRANCH   3  19
ATOM     19  O   UNL     1       8.662   8.948  18.002  0.00  0.00    +0.000 OA
BRANCH  19  20
ATOM     20  C   UNL     1       8.382  10.296  18.381  0.00  0.00    +0.000 C 
BRANCH  20  21
ATOM     21  C   UNL     1       9.675  10.967  18.770  0.00  0.00    +0.000 A 
ATOM     22  C   UNL     1       9.923  11.315  20.106  0.00  0.00    +0.000 A 
ATOM     23  C   UNL     1      11.117  11.953  20.459  0.00  0.00    +0.000 A 
ATOM     24  C   UNL     1      12.068  12.250  19.487  0.00  0.00    +0.000 A 
ATOM     25  C   UNL     1      11.827  11.921  18.155  0.00  0.00    +0.000 A 
ATOM     26  C   UNL     1      10.636  11.285  17.795  0.00  0.00    +0.000 A 
ENDBRANCH  20  21
ENDBRANCH  19  20
ENDBRANCH   3  19
TORSDOF 7
ENDMDL
MODEL 4
REMARK VINA RESULT:      -8.0      0.722      9.428
REMARK  Name = 
REMARK  7 active torsions:
REMARK  status: ('A' for Active; 'I' for Inactive)
REMARK    1  A    between atoms: C_2  and  C_12
REMARK    2  A    between atoms: N_3  and  O_4
REMARK    3  A    between atoms: O_4  and  C_5
REMARK    4  A    between atoms: C_5  and  C_6
REMARK    5  A    between atoms: N_14  and  O_15
REMARK    6  A    between atoms: O_15  and  C_16
REMARK    7  A    between atoms: C_16  and  C_17
REMARK                            x       y       z     vdW  Elec       q    Type
REMARK                         _______ _______ _______ _____ _____    ______ ____
ROOT
ATOM      1  N   UNL     1       8.016   6.383  19.037  0.00  0.00    +0.000 N 
ATOM      2  C   UNL     1       7.463   6.902  17.888  0.00  0.00    +0.000 C 
ATOM      3  N   UNL     1       7.660   8.115  17.461  0.00  0.00    +0.000 NA
ATOM      4  H   UNL     1       8.776   6.953  19.392  0.00  0.00    +0.000 HD
ATOM      5  H   UNL     1       8.153   5.382  19.068  0.00  0.00    +0.000 HD
ENDROOT
BRANCH   2   6
ATOM      6  C   UNL     1       6.602   5.959  17.014  0.00  0.00    +0.000 C 
ATOM      7  N   UNL     1       7.157   5.485  15.840  0.00  0.00    +0.000 N 
ATOM      8  N   UNL     1       5.407   5.656  17.429  0.00  0.00    +0.000 NA
ATOM      9  H   UNL     1       7.679   6.179  15.316  0.00  0.00    +0.000 HD
ATOM     10  H   UNL     1       6.430   5.049  15.277  0.00  0.00    +0.000 HD
BRANCH   8  11
ATOM     11  O   UNL     1       4.766   4.816  16.495  0.00  0.00    +0.000 OA
BRANCH  11  12
ATOM     12  C   UNL     1       4.708   3.491  17.026  0.00  0.00    +0.000 C 
BRANCH  12  13
ATOM     13  C   UNL     1       3.532   3.410  17.966  0.00  0.00    +0.000 A 
ATOM     14  C   UNL     1       3.704   2.967  19.285  0.00  0.00    +0.000 A 
ATOM     15  C   UNL     1       2.613   2.871  20.149  0.00  0.00    +0.000 A 
ATOM     16  C   UNL     1       1.336   3.211  19.703  0.00  0.00    +0.000 A 
ATOM     17  C   UNL     1       1.152   3.643  18.390  0.00  0.00    +0.000 A 
ATOM     18  C   UNL     1       2.243   3.739  17.525  0.00  0.00    +0.000 A 
ENDBRANCH  12  13
ENDBRANCH  11  12
ENDBRANCH   8  11
ENDBRANCH   2   6
BRANCH   3  19
ATOM     19  O   UNL     1       8.491   8.818  18.361  0.00  0.00    +0.000 OA
BRANCH  19  20
ATOM     20  C   UNL     1       8.423  10.211  18.055  0.00  0.00    +0.000 C 
BRANCH  20  21
ATOM     21  C   UNL     1       9.609  10.902  18.679  0.00  0.00    +0.000 A 
ATOM     22  C   UNL     1      10.694  11.308  17.889  0.00  0.00    +0.000 A 
ATOM     23  C   UNL     1      11.800  11.932  18.475  0.00  0.00    +0.000 A 
ATOM     24  C   UNL     1      11.832  12.156  19.848  0.00  0.00    +0.000 A 
ATOM     25  C   UNL     1      10.766  11.746  20.645  0.00  0.00    +0.000 A 
ATOM     26  C   UNL     1       9.659  11.120  20.066  0.00  0.00    +0.000 A 
ENDBRANCH  20  21
ENDBRANCH  19  20
ENDBRANCH   3  19
TORSDOF 7
ENDMDL
MODEL 5
REMARK VINA RESULT:      -7.9      0.748      9.442
REMARK  Name = 
REMARK  7 active torsions:
REMARK  status: ('A' for Active; 'I' for Inactive)
REMARK    1  A    between atoms: C_2  and  C_12
REMARK    2  A    between atoms: N_3  and  O_4
REMARK    3  A    between atoms: O_4  and  C_5
REMARK    4  A    between atoms: C_5  and  C_6
REMARK    5  A    between atoms: N_14  and  O_15
REMARK    6  A    between atoms: O_15  and  C_16
REMARK    7  A    between atoms: C_16  and  C_17
REMARK                            x       y       z     vdW  Elec       q    Type
REMARK                         _______ _______ _______ _____ _____    ______ ____
ROOT
ATOM      1  N   UNL     1       7.984   6.405  18.964  0.00  0.00    +0.000 N 
ATOM      2  C   UNL     1       7.437   6.965  17.832  0.00  0.00    +0.000 C 
ATOM      3  N   UNL     1       7.700   8.166  17.406  0.00  0.00    +0.000 NA
ATOM      4  H   UNL     1       8.789   6.922  19.301  0.00  0.00    +0.000 HD
ATOM      5  H   UNL     1       8.057   5.397  18.986  0.00  0.00    +0.000 HD
ENDROOT
BRANCH   2   6
ATOM      6  C   UNL     1       6.494   6.086  16.977  0.00  0.00    +0.000 C 
ATOM      7  N   UNL     1       6.863   5.830  15.669  0.00  0.00    +0.000 N 
ATOM      8  N   UNL     1       5.410   5.626  17.531  0.00  0.00    +0.000 NA
ATOM      9  H   UNL     1       7.243   6.633  15.179  0.00  0.00    +0.000 HD
ATOM     10  H   UNL     1       6.075   5.418  15.173  0.00  0.00    +0.000 HD
BRANCH   8  11
ATOM     11  O   UNL     1       4.666   4.876  16.596  0.00  0.00    +0.000 OA
BRANCH  11  12
ATOM     12  C   UNL     1       4.636   3.511  17.018  0.00  0.00    +0.000 C 
BRANCH  12  13
ATOM     13  C   UNL     1       3.486   3.340  17.979  0.00  0.00    +0.000 A 
ATOM     14  C   UNL     1       2.176   3.646  17.585  0.00  0.00    +0.000 A 
ATOM     15  C   UNL     1       1.116   3.508  18.480  0.00  0.00    +0.000 A 
ATOM     16  C   UNL     1       1.353   3.068  19.782  0.00  0.00    +0.000 A 
ATOM     17  C   UNL     1       2.653   2.772  20.189  0.00  0.00    +0.000 A 
ATOM     18  C   UNL     1       3.715   2.909  19.294  0.00  0.00    +0.000 A 
ENDBRANCH  12  13
ENDBRANCH  11  12
ENDBRANCH   8  11
ENDBRANCH   2   6
BRANCH   3  19
ATOM     19  O   UNL     1       8.599   8.808  18.286  0.00  0.00    +0.000 OA
BRANCH  19  20
ATOM     20  C   UNL     1       8.400  10.219  18.196  0.00  0.00    +0.000 C 
BRANCH  20  21
ATOM     21  C   UNL     1       9.618  10.915  18.746  0.00  0.00    +0.000 A 
ATOM     22  C   UNL     1       9.705  11.227  20.111  0.00  0.00    +0.000 A 
ATOM     23  C   UNL     1      10.829  11.890  20.614  0.00  0.00    +0.000 A 
ATOM     24  C   UNL     1      11.872  12.245  19.764  0.00  0.00    +0.000 A 
ATOM     25  C   UNL     1      11.792  11.952  18.404  0.00  0.00    +0.000 A 
ATOM     26  C   UNL     1      10.670  11.292  17.894  0.00  0.00    +0.000 A 
ENDBRANCH  20  21
ENDBRANCH  19  20
ENDBRANCH   3  19
TORSDOF 7
ENDMDL
MODEL 6
REMARK VINA RESULT:      -7.9      1.109      9.114
REMARK  Name = 
REMARK  7 active torsions:
REMARK  status: ('A' for Active; 'I' for Inactive)
REMARK    1  A    between atoms: C_2  and  C_12
REMARK    2  A    between atoms: N_3  and  O_4
REMARK    3  A    between atoms: O_4  and  C_5
REMARK    4  A    between atoms: C_5  and  C_6
REMARK    5  A    between atoms: N_14  and  O_15
REMARK    6  A    between atoms: O_15  and  C_16
REMARK    7  A    between atoms: C_16  and  C_17
REMARK                            x       y       z     vdW  Elec       q    Type
REMARK                         _______ _______ _______ _____ _____    ______ ____
ROOT
ATOM      1  N   UNL     1       8.245   6.084  19.679  0.00  0.00    +0.000 N 
ATOM      2  C   UNL     1       7.625   6.314  18.471  0.00  0.00    +0.000 C 
ATOM      3  N   UNL     1       7.718   7.423  17.798  0.00  0.00    +0.000 NA
ATOM      4  H   UNL     1       8.967   6.766  19.879  0.00  0.00    +0.000 HD
ATOM      5  H   UNL     1       8.459   5.123  19.908  0.00  0.00    +0.000 HD
ENDROOT
BRANCH   2   6
ATOM      6  C   UNL     1       6.818   5.152  17.843  0.00  0.00    +0.000 C 
ATOM      7  N   UNL     1       7.472   4.324  16.949  0.00  0.00    +0.000 N 
ATOM      8  N   UNL     1       5.573   5.010  18.192  0.00  0.00    +0.000 NA
ATOM      9  H   UNL     1       8.078   4.811  16.298  0.00  0.00    +0.000 HD
ATOM     10  H   UNL     1       6.788   3.741  16.471  0.00  0.00    +0.000 HD
BRANCH   8  11
ATOM     11  O   UNL     1       4.995   3.925  17.500  0.00  0.00    +0.000 OA
BRANCH  11  12
ATOM     12  C   UNL     1       3.583   4.124  17.423  0.00  0.00    +0.000 C 
BRANCH  12  13
ATOM     13  C   UNL     1       3.004   3.937  18.803  0.00  0.00    +0.000 A 
ATOM     14  C   UNL     1       2.185   4.923  19.371  0.00  0.00    +0.000 A 
ATOM     15  C   UNL     1       1.667   4.760  20.656  0.00  0.00    +0.000 A 
ATOM     16  C   UNL     1       1.966   3.612  21.390  0.00  0.00    +0.000 A 
ATOM     17  C   UNL     1       2.789   2.631  20.840  0.00  0.00    +0.000 A 
ATOM     18  C   UNL     1       3.308   2.793  19.554  0.00  0.00    +0.000 A 
ENDBRANCH  12  13
ENDBRANCH  11  12
ENDBRANCH   8  11
ENDBRANCH   2   6
BRANCH   3  19
ATOM     19  O   UNL     1       8.514   8.353  18.501  0.00  0.00    +0.000 OA
BRANCH  19  20
ATOM     20  C   UNL     1       8.451   9.611  17.828  0.00  0.00    +0.000 C 
BRANCH  20  21
ATOM     21  C   UNL     1       9.293  10.607  18.585  0.00  0.00    +0.000 A 
ATOM     22  C   UNL     1      10.082  11.541  17.898  0.00  0.00    +0.000 A 
ATOM     23  C   UNL     1      10.875  12.451  18.604  0.00  0.00    +0.000 A 
ATOM     24  C   UNL     1      10.888  12.437  19.996  0.00  0.00    +0.000 A 
ATOM     25  C   UNL     1      10.119  11.506  20.690  0.00  0.00    +0.000 A 
ATOM     26  C   UNL     1       9.326  10.592  19.990  0.00  0.00    +0.000 A 
ENDBRANCH  20  21
ENDBRANCH  19  20
ENDBRANCH   3  19
TORSDOF 7
ENDMDL
MODEL 7
REMARK VINA RESULT:      -7.9      1.041      9.349
REMARK  Name = 
REMARK  7 active torsions:
REMARK  status: ('A' for Active; 'I' for Inactive)
REMARK    1  A    between atoms: C_2  and  C_12
REMARK    2  A    between atoms: N_3  and  O_4
REMARK    3  A    between atoms: O_4  and  C_5
REMARK    4  A    between atoms: C_5  and  C_6
REMARK    5  A    between atoms: N_14  and  O_15
REMARK    6  A    between atoms: O_15  and  C_16
REMARK    7  A    between atoms: C_16  and  C_17
REMARK                            x       y       z     vdW  Elec       q    Type
REMARK                         _______ _______ _______ _____ _____    ______ ____
ROOT
ATOM      1  N   UNL     1       7.803   6.300  18.846  0.00  0.00    +0.000 N 
ATOM      2  C   UNL     1       7.089   6.849  17.804  0.00  0.00    +0.000 C 
ATOM      3  N   UNL     1       7.326   8.020  17.289  0.00  0.00    +0.000 NA
ATOM      4  H   UNL     1       8.676   6.786  19.015  0.00  0.00    +0.000 HD
ATOM      5  H   UNL     1       7.834   5.290  18.898  0.00  0.00    +0.000 HD
ENDROOT
BRANCH   2   6
ATOM      6  C   UNL     1       5.972   5.990  17.165  0.00  0.00    +0.000 C 
ATOM      7  N   UNL     1       5.677   6.207  15.832  0.00  0.00    +0.000 N 
ATOM      8  N   UNL     1       5.374   5.106  17.909  0.00  0.00    +0.000 NA
ATOM      9  H   UNL     1       5.657   7.184  15.563  0.00  0.00    +0.000 HD
ATOM     10  H   UNL     1       4.810   5.728  15.598  0.00  0.00    +0.000 HD
BRANCH   8  11
ATOM     11  O   UNL     1       4.372   4.444  17.169  0.00  0.00    +0.000 OA
BRANCH  11  12
ATOM     12  C   UNL     1       4.196   3.130  17.699  0.00  0.00    +0.000 C 
BRANCH  12  13
ATOM     13  C   UNL     1       3.230   3.213  18.854  0.00  0.00    +0.000 A 
ATOM     14  C   UNL     1       1.988   3.843  18.700  0.00  0.00    +0.000 A 
ATOM     15  C   UNL     1       1.103   3.939  19.774  0.00  0.00    +0.000 A 
ATOM     16  C   UNL     1       1.453   3.411  21.017  0.00  0.00    +0.000 A 
ATOM     17  C   UNL     1       2.691   2.792  21.185  0.00  0.00    +0.000 A 
ATOM     18  C   UNL     1       3.576   2.696  20.111  0.00  0.00    +0.000 A 
ENDBRANCH  12  13
ENDBRANCH  11  12
ENDBRANCH   8  11
ENDBRANCH   2   6
BRANCH   3  19
ATOM     19  O   UNL     1       8.393   8.644  17.971  0.00  0.00    +0.000 OA
BRANCH  19  20
ATOM     20  C   UNL     1       8.220  10.060  17.894  0.00  0.00    +0.000 C 
BRANCH  20  21
ATOM     21  C   UNL     1       9.402  10.727  18.551  0.00  0.00    +0.000 A 
ATOM     22  C   UNL     1      10.487  11.171  17.781  0.00  0.00    +0.000 A 
ATOM     23  C   UNL     1      11.589  11.774  18.396  0.00  0.00    +0.000 A 
ATOM     24  C   UNL     1      11.618  11.939  19.778  0.00  0.00    +0.000 A 
ATOM     25  C   UNL     1      10.551  11.491  20.554  0.00  0.00    +0.000 A 
ATOM     26  C   UNL     1       9.448  10.886  19.946  0.00  0.00    +0.000 A 
ENDBRANCH  20  21
ENDBRANCH  19  20
ENDBRANCH   3  19
TORSDOF 7
ENDMDL
MODEL 8
REMARK VINA RESULT:      -7.8      1.149      9.072
REMARK  Name = 
REMARK  7 active torsions:
REMARK  status: ('A' for Active; 'I' for Inactive)
REMARK    1  A    between atoms: C_2  and  C_12
REMARK    2  A    between atoms: N_3  and  O_4
REMARK    3  A    between atoms: O_4  and  C_5
REMARK    4  A    between atoms: C_5  and  C_6
REMARK    5  A    between atoms: N_14  and  O_15
REMARK    6  A    between atoms: O_15  and  C_16
REMARK    7  A    between atoms: C_16  and  C_17
REMARK                            x       y       z     vdW  Elec       q    Type
REMARK                         _______ _______ _______ _____ _____    ______ ____
ROOT
ATOM      1  N   UNL     1       8.278   6.041  19.617  0.00  0.00    +0.000 N 
ATOM      2  C   UNL     1       7.454   6.374  18.565  0.00  0.00    +0.000 C 
ATOM      3  N   UNL     1       7.547   7.477  17.881  0.00  0.00    +0.000 NA
ATOM      4  H   UNL     1       9.108   6.621  19.657  0.00  0.00    +0.000 HD
ATOM      5  H   UNL     1       8.409   5.056  19.802  0.00  0.00    +0.000 HD
ENDROOT
BRANCH   2   6
ATOM      6  C   UNL     1       6.390   5.339  18.128  0.00  0.00    +0.000 C 
ATOM      7  N   UNL     1       6.646   4.005  18.386  0.00  0.00    +0.000 N 
ATOM      8  N   UNL     1       5.309   5.775  17.549  0.00  0.00    +0.000 NA
ATOM      9  H   UNL     1       7.603   3.722  18.205  0.00  0.00    +0.000 HD
ATOM     10  H   UNL     1       5.975   3.431  17.880  0.00  0.00    +0.000 HD
BRANCH   8  11
ATOM     11  O   UNL     1       4.476   4.693  17.198  0.00  0.00    +0.000 OA
BRANCH  11  12
ATOM     12  C   UNL     1       3.126   5.022  17.527  0.00  0.00    +0.000 C 
BRANCH  12  13
ATOM     13  C   UNL     1       2.810   4.427  18.876  0.00  0.00    +0.000 A 
ATOM     14  C   UNL     1       2.276   5.223  19.899  0.00  0.00    +0.000 A 
ATOM     15  C   UNL     1       2.004   4.678  21.153  0.00  0.00    +0.000 A 
ATOM     16  C   UNL     1       2.267   3.331  21.402  0.00  0.00    +0.000 A 
ATOM     17  C   UNL     1       2.809   2.532  20.396  0.00  0.00    +0.000 A 
ATOM     18  C   UNL     1       3.081   3.077  19.140  0.00  0.00    +0.000 A 
ENDBRANCH  12  13
ENDBRANCH  11  12
ENDBRANCH   8  11
ENDBRANCH   2   6
BRANCH   3  19
ATOM     19  O   UNL     1       8.586   8.282  18.394  0.00  0.00    +0.000 OA
BRANCH  19  20
ATOM     20  C   UNL     1       8.307   9.646  18.080  0.00  0.00    +0.000 C 
BRANCH  20  21
ATOM     21  C   UNL     1       9.375  10.513  18.697  0.00  0.00    +0.000 A 
ATOM     22  C   UNL     1       9.376  10.769  20.076  0.00  0.00    +0.000 A 
ATOM     23  C   UNL     1      10.358  11.588  20.642  0.00  0.00    +0.000 A 
ATOM     24  C   UNL     1      11.344  12.157  19.840  0.00  0.00    +0.000 A 
ATOM     25  C   UNL     1      11.346  11.921  18.467  0.00  0.00    +0.000 A 
ATOM     26  C   UNL     1      10.366  11.105  17.895  0.00  0.00    +0.000 A 
ENDBRANCH  20  21
ENDBRANCH  19  20
ENDBRANCH   3  19
TORSDOF 7
ENDMDL
MODEL 9
REMARK VINA RESULT:      -7.7      0.753      1.296
REMARK  Name = 
REMARK  7 active torsions:
REMARK  status: ('A' for Active; 'I' for Inactive)
REMARK    1  A    between atoms: C_2  and  C_12
REMARK    2  A    between atoms: N_3  and  O_4
REMARK    3  A    between atoms: O_4  and  C_5
REMARK    4  A    between atoms: C_5  and  C_6
REMARK    5  A    between atoms: N_14  and  O_15
REMARK    6  A    between atoms: O_15  and  C_16
REMARK    7  A    between atoms: C_16  and  C_17
REMARK                            x       y       z     vdW  Elec       q    Type
REMARK                         _______ _______ _______ _____ _____    ______ ____
ROOT
ATOM      1  N   UNL     1       7.063   5.884  16.066  0.00  0.00    +0.000 N 
ATOM      2  C   UNL     1       6.697   6.326  17.318  0.00  0.00    +0.000 C 
ATOM      3  N   UNL     1       5.570   6.035  17.899  0.00  0.00    +0.000 NA
ATOM      4  H   UNL     1       6.479   5.121  15.740  0.00  0.00    +0.000 HD
ATOM      5  H   UNL     1       8.053   5.803  15.880  0.00  0.00    +0.000 HD
ENDROOT
BRANCH   2   6
ATOM      6  C   UNL     1       7.722   7.172  18.110  0.00  0.00    +0.000 C 
ATOM      7  N   UNL     1       8.353   6.577  19.186  0.00  0.00    +0.000 N 
ATOM      8  N   UNL     1       7.942   8.394  17.720  0.00  0.00    +0.000 NA
ATOM      9  H   UNL     1       7.743   6.011  19.765  0.00  0.00    +0.000 HD
ATOM     10  H   UNL     1       8.839   7.290  19.726  0.00  0.00    +0.000 HD
BRANCH   8  11
ATOM     11  O   UNL     1       8.877   9.016  18.574  0.00  0.00    +0.000 OA
BRANCH  11  12
ATOM     12  C   UNL     1       8.611  10.419  18.609  0.00  0.00    +0.000 C 
BRANCH  12  13
ATOM     13  C   UNL     1       9.919  11.143  18.808  0.00  0.00    +0.000 A 
ATOM     14  C   UNL     1      10.367  11.464  20.097  0.00  0.00    +0.000 A 
ATOM     15  C   UNL     1      11.566  12.152  20.280  0.00  0.00    +0.000 A 
ATOM     16  C   UNL     1      12.329  12.533  19.177  0.00  0.00    +0.000 A 
ATOM     17  C   UNL     1      11.888  12.229  17.889  0.00  0.00    +0.000 A 
ATOM     18  C   UNL     1      10.688  11.540  17.705  0.00  0.00    +0.000 A 
ENDBRANCH  12  13
ENDBRANCH  11  12
ENDBRANCH   8  11
ENDBRANCH   2   6
BRANCH   3  19
ATOM     19  O   UNL     1       4.778   5.233  17.049  0.00  0.00    +0.000 OA
BRANCH  19  20
ATOM     20  C   UNL     1       3.402   5.466  17.350  0.00  0.00    +0.000 C 
BRANCH  20  21
ATOM     21  C   UNL     1       2.808   4.201  17.916  0.00  0.00    +0.000 A 
ATOM     22  C   UNL     1       1.592   4.234  18.613  0.00  0.00    +0.000 A 
ATOM     23  C   UNL     1       1.054   3.061  19.151  0.00  0.00    +0.000 A 
ATOM     24  C   UNL     1       1.723   1.850  19.000  0.00  0.00    +0.000 A 
ATOM     25  C   UNL     1       2.939   1.806  18.321  0.00  0.00    +0.000 A 
ATOM     26  C   UNL     1       3.482   2.975  17.783  0.00  0.00    +0.000 A 
ENDBRANCH  20  21
ENDBRANCH  19  20
ENDBRANCH   3  19
TORSDOF 7
ENDMDL
