MODEL 1
REMARK VINA RESULT:      -7.8      0.000      0.000
REMARK  Name = 
REMARK  6 active torsions:
REMARK  status: ('A' for Active; 'I' for Inactive)
REMARK    1  A    between atoms: C_1  and  C_2
REMARK    2  A    between atoms: C_2  and  C_3
REMARK    3  A    between atoms: C_8  and  C_10
REMARK    4  A    between atoms: N_13  and  S_14
REMARK    5  A    between atoms: S_14  and  C_17
REMARK    6  A    between atoms: C_20  and  C_21
REMARK                            x       y       z     vdW  Elec       q    Type
REMARK                         _______ _______ _______ _____ _____    ______ ____
ROOT
ATOM      1  C   UNL     1       7.144   5.855  17.598  0.00  0.00    +0.000 C 
ATOM      2  C   UNL     1       6.774   5.107  18.878  0.00  0.00    +0.000 C 
ATOM      3  C   UNL     1       5.273   4.833  18.931  0.00  0.00    +0.000 C 
ATOM      4  N   UNL     1       4.516   6.114  18.933  0.00  0.00    +0.000 NA
ATOM      5  C   UNL     1       4.844   6.985  17.754  0.00  0.00    +0.000 C 
ATOM      6  C   UNL     1       6.355   7.176  17.576  0.00  0.00    +0.000 C 
ENDROOT
BRANCH   1  12
ATOM      7  C   UNL     1       7.072   3.614  12.039  0.00  0.00    +0.000 A 
ATOM      8  N   UNL     1       7.733   4.720  11.762  0.00  0.00    +0.000 NA
ATOM      9  N   UNL     1       7.771   5.586  12.847  0.00  0.00    +0.000 NA
ATOM     10  C   UNL     1       7.184   5.070  13.909  0.00  0.00    +0.000 A 
ATOM     11  N   UNL     1       7.189   5.672  15.151  0.00  0.00    +0.000 N 
ATOM     12  C   UNL     1       6.878   5.027  16.331  0.00  0.00    +0.000 C 
ATOM     13  O   UNL     1       6.439   3.886  16.429  0.00  0.00    +0.000 OA
ATOM     14  S   UNL     1       6.395   3.593  13.611  0.00  0.00    +0.000 S 
ATOM     15  H   UNL     1       7.624   6.586  15.154  0.00  0.00    +0.000 HD
BRANCH   7  17
ATOM     16  C   UNL     1       5.596   1.694  11.434  0.00  0.00    +0.000 C 
ATOM     17  C   UNL     1       6.887   2.444  11.132  0.00  0.00    +0.000 C 
ENDBRANCH   7  17
ENDBRANCH   1  12
BRANCH   4  18
ATOM     18  S   UNL     1       2.797   5.871  19.055  0.00  0.00    +0.000 S 
ATOM     19  O   UNL     1       2.336   5.306  17.802  0.00  0.00    +0.000 OA
ATOM     20  O   UNL     1       2.545   5.208  20.317  0.00  0.00    +0.000 OA
BRANCH  18  21
ATOM     21  C   UNL     1       2.133   7.519  19.147  0.00  0.00    +0.000 A 
ATOM     22  C   UNL     1       2.002   8.270  17.977  0.00  0.00    +0.000 A 
ATOM     23  C   UNL     1       1.419   9.539  18.032  0.00  0.00    +0.000 A 
ATOM     24  C   UNL     1       0.959  10.060  19.249  0.00  0.00    +0.000 A 
ATOM     25  C   UNL     1       0.307  11.411  19.314  0.00  0.00    +0.000 C 
ATOM     26  C   UNL     1       1.086   9.290  20.415  0.00  0.00    +0.000 A 
ATOM     27  C   UNL     1       1.673   8.022  20.369  0.00  0.00    +0.000 A 
ENDBRANCH  18  21
ENDBRANCH   4  18
TORSDOF 4
ENDMDL
MODEL 2
REMARK VINA RESULT:      -7.7      6.312     11.956
REMARK  Name = 
REMARK  6 active torsions:
REMARK  status: ('A' for Active; 'I' for Inactive)
REMARK    1  A    between atoms: C_1  and  C_2
REMARK    2  A    between atoms: C_2  and  C_3
REMARK    3  A    between atoms: C_8  and  C_10
REMARK    4  A    between atoms: N_13  and  S_14
REMARK    5  A    between atoms: S_14  and  C_17
REMARK    6  A    between atoms: C_20  and  C_21
REMARK                            x       y       z     vdW  Elec       q    Type
REMARK                         _______ _______ _______ _____ _____    ______ ____
ROOT
ATOM      1  C   UNL     1      -1.188  12.903  19.318  0.00  0.00    +0.000 C 
ATOM      2  C   UNL     1      -1.320  11.554  18.614  0.00  0.00    +0.000 C 
ATOM      3  C   UNL     1      -1.059  10.407  19.587  0.00  0.00    +0.000 C 
ATOM      4  N   UNL     1       0.326  10.493  20.123  0.00  0.00    +0.000 NA
ATOM      5  C   UNL     1       0.613  11.811  20.784  0.00  0.00    +0.000 C 
ATOM      6  C   UNL     1       0.235  13.001  19.895  0.00  0.00    +0.000 C 
ENDROOT
BRANCH   1  12
ATOM      7  C   UNL     1      -6.122  12.752  22.719  0.00  0.00    +0.000 A 
ATOM      8  N   UNL     1      -6.625  12.127  21.673  0.00  0.00    +0.000 NA
ATOM      9  N   UNL     1      -5.755  12.150  20.590  0.00  0.00    +0.000 NA
ATOM     10  C   UNL     1      -4.615  12.743  20.887  0.00  0.00    +0.000 A 
ATOM     11  N   UNL     1      -3.535  12.791  20.028  0.00  0.00    +0.000 N 
ATOM     12  C   UNL     1      -2.247  13.105  20.414  0.00  0.00    +0.000 C 
ATOM     13  O   UNL     1      -1.909  13.502  21.524  0.00  0.00    +0.000 OA
ATOM     14  S   UNL     1      -4.595  13.466  22.426  0.00  0.00    +0.000 S 
ATOM     15  H   UNL     1      -3.725  12.392  19.118  0.00  0.00    +0.000 HD
BRANCH   7  17
ATOM     16  C   UNL     1      -7.808  13.968  24.100  0.00  0.00    +0.000 C 
ATOM     17  C   UNL     1      -6.755  12.869  24.065  0.00  0.00    +0.000 C 
ENDBRANCH   7  17
ENDBRANCH   1  12
BRANCH   4  18
ATOM     18  S   UNL     1       0.708   9.175  21.194  0.00  0.00    +0.000 S 
ATOM     19  O   UNL     1       1.647   9.663  22.185  0.00  0.00    +0.000 OA
ATOM     20  O   UNL     1      -0.545   8.561  21.584  0.00  0.00    +0.000 OA
BRANCH  18  21
ATOM     21  C   UNL     1       1.597   8.027  20.168  0.00  0.00    +0.000 A 
ATOM     22  C   UNL     1       1.803   6.722  20.622  0.00  0.00    +0.000 A 
ATOM     23  C   UNL     1       2.443   5.795  19.794  0.00  0.00    +0.000 A 
ATOM     24  C   UNL     1       2.873   6.163  18.511  0.00  0.00    +0.000 A 
ATOM     25  C   UNL     1       3.536   5.167  17.604  0.00  0.00    +0.000 C 
ATOM     26  C   UNL     1       2.649   7.473  18.064  0.00  0.00    +0.000 A 
ATOM     27  C   UNL     1       2.015   8.407  18.888  0.00  0.00    +0.000 A 
ENDBRANCH  18  21
ENDBRANCH   4  18
TORSDOF 4
ENDMDL
MODEL 3
REMARK VINA RESULT:      -7.4      1.990      2.817
REMARK  Name = 
REMARK  6 active torsions:
REMARK  status: ('A' for Active; 'I' for Inactive)
REMARK    1  A    between atoms: C_1  and  C_2
REMARK    2  A    between atoms: C_2  and  C_3
REMARK    3  A    between atoms: C_8  and  C_10
REMARK    4  A    between atoms: N_13  and  S_14
REMARK    5  A    between atoms: S_14  and  C_17
REMARK    6  A    between atoms: C_20  and  C_21
REMARK                            x       y       z     vdW  Elec       q    Type
REMARK                         _______ _______ _______ _____ _____    ______ ____
ROOT
ATOM      1  C   UNL     1       4.038   4.228  18.821  0.00  0.00    +0.000 C 
ATOM      2  C   UNL     1       2.523   4.310  19.001  0.00  0.00    +0.000 C 
ATOM      3  C   UNL     1       1.972   5.591  18.381  0.00  0.00    +0.000 C 
ATOM      4  N   UNL     1       2.561   6.781  19.052  0.00  0.00    +0.000 NA
ATOM      5  C   UNL     1       4.063   6.788  19.011  0.00  0.00    +0.000 C 
ATOM      6  C   UNL     1       4.663   5.462  19.494  0.00  0.00    +0.000 C 
ENDROOT
BRANCH   1  12
ATOM      7  C   UNL     1       6.921   4.506  13.572  0.00  0.00    +0.000 A 
ATOM      8  N   UNL     1       7.755   5.262  14.258  0.00  0.00    +0.000 NA
ATOM      9  N   UNL     1       7.266   5.554  15.525  0.00  0.00    +0.000 NA
ATOM     10  C   UNL     1       6.111   4.961  15.756  0.00  0.00    +0.000 A 
ATOM     11  N   UNL     1       5.472   4.988  16.979  0.00  0.00    +0.000 N 
ATOM     12  C   UNL     1       4.454   4.129  17.345  0.00  0.00    +0.000 C 
ATOM     13  O   UNL     1       3.898   3.323  16.607  0.00  0.00    +0.000 OA
ATOM     14  S   UNL     1       5.461   4.167  14.399  0.00  0.00    +0.000 S 
ATOM     15  H   UNL     1       5.937   5.569  17.664  0.00  0.00    +0.000 HD
BRANCH   7  17
ATOM     16  C   UNL     1       6.064   2.961  11.809  0.00  0.00    +0.000 C 
ATOM     17  C   UNL     1       7.148   3.955  12.205  0.00  0.00    +0.000 C 
ENDBRANCH   7  17
ENDBRANCH   1  12
BRANCH   4  18
ATOM     18  S   UNL     1       1.925   8.278  18.432  0.00  0.00    +0.000 S 
ATOM     19  O   UNL     1       3.046   9.135  18.100  0.00  0.00    +0.000 OA
ATOM     20  O   UNL     1       0.918   7.942  17.448  0.00  0.00    +0.000 OA
BRANCH  18  21
ATOM     21  C   UNL     1       1.114   9.017  19.832  0.00  0.00    +0.000 A 
ATOM     22  C   UNL     1       0.404  10.207  19.661  0.00  0.00    +0.000 A 
ATOM     23  C   UNL     1      -0.291  10.759  20.740  0.00  0.00    +0.000 A 
ATOM     24  C   UNL     1      -0.287  10.123  21.990  0.00  0.00    +0.000 A 
ATOM     25  C   UNL     1      -1.054  10.693  23.148  0.00  0.00    +0.000 C 
ATOM     26  C   UNL     1       0.420   8.922  22.145  0.00  0.00    +0.000 A 
ATOM     27  C   UNL     1       1.123   8.368  21.071  0.00  0.00    +0.000 A 
ENDBRANCH  18  21
ENDBRANCH   4  18
TORSDOF 4
ENDMDL
MODEL 4
REMARK VINA RESULT:      -7.4      2.251      8.177
REMARK  Name = 
REMARK  6 active torsions:
REMARK  status: ('A' for Active; 'I' for Inactive)
REMARK    1  A    between atoms: C_1  and  C_2
REMARK    2  A    between atoms: C_2  and  C_3
REMARK    3  A    between atoms: C_8  and  C_10
REMARK    4  A    between atoms: N_13  and  S_14
REMARK    5  A    between atoms: S_14  and  C_17
REMARK    6  A    between atoms: C_20  and  C_21
REMARK                            x       y       z     vdW  Elec       q    Type
REMARK                         _______ _______ _______ _____ _____    ______ ____
ROOT
ATOM      1  C   UNL     1       3.728   3.961  19.269  0.00  0.00    +0.000 C 
ATOM      2  C   UNL     1       5.245   4.093  19.400  0.00  0.00    +0.000 C 
ATOM      3  C   UNL     1       5.781   5.157  18.445  0.00  0.00    +0.000 C 
ATOM      4  N   UNL     1       5.489   4.777  17.037  0.00  0.00    +0.000 NA
ATOM      5  C   UNL     1       4.026   4.545  16.788  0.00  0.00    +0.000 C 
ATOM      6  C   UNL     1       3.408   3.586  17.813  0.00  0.00    +0.000 C 
ENDROOT
BRANCH   1  12
ATOM      7  C   UNL     1       1.041   9.316  19.467  0.00  0.00    +0.000 A 
ATOM      8  N   UNL     1       1.564   9.438  18.264  0.00  0.00    +0.000 NA
ATOM      9  N   UNL     1       2.432   8.396  17.968  0.00  0.00    +0.000 NA
ATOM     10  C   UNL     1       2.482   7.505  18.940  0.00  0.00    +0.000 A 
ATOM     11  N   UNL     1       3.172   6.314  18.848  0.00  0.00    +0.000 N 
ATOM     12  C   UNL     1       2.985   5.238  19.692  0.00  0.00    +0.000 C 
ATOM     13  O   UNL     1       2.286   5.232  20.700  0.00  0.00    +0.000 OA
ATOM     14  S   UNL     1       1.629   7.964  20.338  0.00  0.00    +0.000 S 
ATOM     15  H   UNL     1       3.700   6.219  17.990  0.00  0.00    +0.000 HD
BRANCH   7  17
ATOM     16  C   UNL     1      -1.109  10.535  19.124  0.00  0.00    +0.000 C 
ATOM     17  C   UNL     1       0.028  10.218  20.086  0.00  0.00    +0.000 C 
ENDBRANCH   7  17
ENDBRANCH   1  12
BRANCH   4  18
ATOM     18  S   UNL     1       6.130   5.922  15.893  0.00  0.00    +0.000 S 
ATOM     19  O   UNL     1       5.096   6.899  15.612  0.00  0.00    +0.000 OA
ATOM     20  O   UNL     1       7.435   6.325  16.374  0.00  0.00    +0.000 OA
BRANCH  18  21
ATOM     21  C   UNL     1       6.352   4.971  14.406  0.00  0.00    +0.000 A 
ATOM     22  C   UNL     1       7.508   5.154  13.644  0.00  0.00    +0.000 A 
ATOM     23  C   UNL     1       7.721   4.363  12.511  0.00  0.00    +0.000 A 
ATOM     24  C   UNL     1       6.788   3.385  12.139  0.00  0.00    +0.000 A 
ATOM     25  C   UNL     1       7.021   2.512  10.940  0.00  0.00    +0.000 C 
ATOM     26  C   UNL     1       5.636   3.204  12.921  0.00  0.00    +0.000 A 
ATOM     27  C   UNL     1       5.414   3.995  14.051  0.00  0.00    +0.000 A 
ENDBRANCH  18  21
ENDBRANCH   4  18
TORSDOF 4
ENDMDL
MODEL 5
REMARK VINA RESULT:      -7.4      0.474      1.081
REMARK  Name = 
REMARK  6 active torsions:
REMARK  status: ('A' for Active; 'I' for Inactive)
REMARK    1  A    between atoms: C_1  and  C_2
REMARK    2  A    between atoms: C_2  and  C_3
REMARK    3  A    between atoms: C_8  and  C_10
REMARK    4  A    between atoms: N_13  and  S_14
REMARK    5  A    between atoms: S_14  and  C_17
REMARK    6  A    between atoms: C_20  and  C_21
REMARK                            x       y       z     vdW  Elec       q    Type
REMARK                         _______ _______ _______ _____ _____    ______ ____
ROOT
ATOM      1  C   UNL     1       6.894   5.620  17.659  0.00  0.00    +0.000 C 
ATOM      2  C   UNL     1       6.575   4.820  18.921  0.00  0.00    +0.000 C 
ATOM      3  C   UNL     1       5.070   4.608  19.063  0.00  0.00    +0.000 C 
ATOM      4  N   UNL     1       4.377   5.919  19.184  0.00  0.00    +0.000 NA
ATOM      5  C   UNL     1       4.666   6.839  18.031  0.00  0.00    +0.000 C 
ATOM      6  C   UNL     1       6.169   6.973  17.759  0.00  0.00    +0.000 C 
ENDROOT
BRANCH   1  12
ATOM      7  C   UNL     1       6.554   3.477  12.070  0.00  0.00    +0.000 A 
ATOM      8  N   UNL     1       7.445   4.419  11.832  0.00  0.00    +0.000 NA
ATOM      9  N   UNL     1       7.626   5.251  12.929  0.00  0.00    +0.000 NA
ATOM     10  C   UNL     1       6.903   4.865  13.963  0.00  0.00    +0.000 A 
ATOM     11  N   UNL     1       6.990   5.446  15.212  0.00  0.00    +0.000 N 
ATOM     12  C   UNL     1       6.506   4.875  16.372  0.00  0.00    +0.000 C 
ATOM     13  O   UNL     1       5.831   3.853  16.439  0.00  0.00    +0.000 OA
ATOM     14  S   UNL     1       5.830   3.592  13.617  0.00  0.00    +0.000 S 
ATOM     15  H   UNL     1       7.609   6.246  15.243  0.00  0.00    +0.000 HD
BRANCH   7  17
ATOM     16  C   UNL     1       7.177   1.248  11.138  0.00  0.00    +0.000 C 
ATOM     17  C   UNL     1       6.158   2.380  11.141  0.00  0.00    +0.000 C 
ENDBRANCH   7  17
ENDBRANCH   1  12
BRANCH   4  18
ATOM     18  S   UNL     1       2.660   5.745  19.411  0.00  0.00    +0.000 S 
ATOM     19  O   UNL     1       2.135   4.994  18.288  0.00  0.00    +0.000 OA
ATOM     20  O   UNL     1       2.450   5.304  20.775  0.00  0.00    +0.000 OA
BRANCH  18  21
ATOM     21  C   UNL     1       2.032   7.402  19.258  0.00  0.00    +0.000 A 
ATOM     22  C   UNL     1       1.624   8.088  20.404  0.00  0.00    +0.000 A 
ATOM     23  C   UNL     1       1.192   9.413  20.300  0.00  0.00    +0.000 A 
ATOM     24  C   UNL     1       1.173  10.061  19.056  0.00  0.00    +0.000 A 
ATOM     25  C   UNL     1       0.737  11.492  18.939  0.00  0.00    +0.000 C 
ATOM     26  C   UNL     1       1.597   9.364  17.915  0.00  0.00    +0.000 A 
ATOM     27  C   UNL     1       2.024   8.036  18.011  0.00  0.00    +0.000 A 
ENDBRANCH  18  21
ENDBRANCH   4  18
TORSDOF 4
ENDMDL
MODEL 6
REMARK VINA RESULT:      -7.4      6.027     11.508
REMARK  Name = 
REMARK  6 active torsions:
REMARK  status: ('A' for Active; 'I' for Inactive)
REMARK    1  A    between atoms: C_1  and  C_2
REMARK    2  A    between atoms: C_2  and  C_3
REMARK    3  A    between atoms: C_8  and  C_10
REMARK    4  A    between atoms: N_13  and  S_14
REMARK    5  A    between atoms: S_14  and  C_17
REMARK    6  A    between atoms: C_20  and  C_21
REMARK                            x       y       z     vdW  Elec       q    Type
REMARK                         _______ _______ _______ _____ _____    ______ ____
ROOT
ATOM      1  C   UNL     1      -0.824  12.680  19.080  0.00  0.00    +0.000 C 
ATOM      2  C   UNL     1      -0.809  11.345  18.338  0.00  0.00    +0.000 C 
ATOM      3  C   UNL     1      -0.679  10.181  19.317  0.00  0.00    +0.000 C 
ATOM      4  N   UNL     1       0.600  10.284  20.070  0.00  0.00    +0.000 NA
ATOM      5  C   UNL     1       0.746  11.592  20.795  0.00  0.00    +0.000 C 
ATOM      6  C   UNL     1       0.485  12.794  19.879  0.00  0.00    +0.000 C 
ENDROOT
BRANCH   1  12
ATOM      7  C   UNL     1      -6.269  12.448  21.577  0.00  0.00    +0.000 A 
ATOM      8  N   UNL     1      -6.601  11.931  20.411  0.00  0.00    +0.000 NA
ATOM      9  N   UNL     1      -5.559  12.007  19.496  0.00  0.00    +0.000 NA
ATOM     10  C   UNL     1      -4.471  12.528  20.030  0.00  0.00    +0.000 A 
ATOM     11  N   UNL     1      -3.260  12.603  19.373  0.00  0.00    +0.000 N 
ATOM     12  C   UNL     1      -2.050  12.835  19.995  0.00  0.00    +0.000 C 
ATOM     13  O   UNL     1      -1.896  13.127  21.177  0.00  0.00    +0.000 OA
ATOM     14  S   UNL     1      -4.696  13.123  21.607  0.00  0.00    +0.000 S 
ATOM     15  H   UNL     1      -3.301  12.287  18.413  0.00  0.00    +0.000 HD
BRANCH   7  17
ATOM     16  C   UNL     1      -6.670  13.567  23.772  0.00  0.00    +0.000 C 
ATOM     17  C   UNL     1      -7.119  12.482  22.802  0.00  0.00    +0.000 C 
ENDBRANCH   7  17
ENDBRANCH   1  12
BRANCH   4  18
ATOM     18  S   UNL     1       0.837   8.950  21.163  0.00  0.00    +0.000 S 
ATOM     19  O   UNL     1       1.786   9.367  22.177  0.00  0.00    +0.000 OA
ATOM     20  O   UNL     1      -0.473   8.448  21.519  0.00  0.00    +0.000 OA
BRANCH  18  21
ATOM     21  C   UNL     1       1.656   7.720  20.173  0.00  0.00    +0.000 A 
ATOM     22  C   UNL     1       2.165   8.077  18.922  0.00  0.00    +0.000 A 
ATOM     23  C   UNL     1       2.868   7.133  18.167  0.00  0.00    +0.000 A 
ATOM     24  C   UNL     1       3.071   5.836  18.658  0.00  0.00    +0.000 A 
ATOM     25  C   UNL     1       3.848   4.824  17.867  0.00  0.00    +0.000 C 
ATOM     26  C   UNL     1       2.565   5.495  19.921  0.00  0.00    +0.000 A 
ATOM     27  C   UNL     1       1.856   6.431  20.679  0.00  0.00    +0.000 A 
ENDBRANCH  18  21
ENDBRANCH   4  18
TORSDOF 4
ENDMDL
MODEL 7
REMARK VINA RESULT:      -7.4      2.837      8.295
REMARK  Name = 
REMARK  6 active torsions:
REMARK  status: ('A' for Active; 'I' for Inactive)
REMARK    1  A    between atoms: C_1  and  C_2
REMARK    2  A    between atoms: C_2  and  C_3
REMARK    3  A    between atoms: C_8  and  C_10
REMARK    4  A    between atoms: N_13  and  S_14
REMARK    5  A    between atoms: S_14  and  C_17
REMARK    6  A    between atoms: C_20  and  C_21
REMARK                            x       y       z     vdW  Elec       q    Type
REMARK                         _______ _______ _______ _____ _____    ______ ____
ROOT
ATOM      1  C   UNL     1       2.300   3.415  19.178  0.00  0.00    +0.000 C 
ATOM      2  C   UNL     1       3.611   2.852  19.726  0.00  0.00    +0.000 C 
ATOM      3  C   UNL     1       4.775   3.790  19.414  0.00  0.00    +0.000 C 
ATOM      4  N   UNL     1       4.936   3.937  17.942  0.00  0.00    +0.000 NA
ATOM      5  C   UNL     1       3.685   4.419  17.265  0.00  0.00    +0.000 C 
ATOM      6  C   UNL     1       2.456   3.590  17.658  0.00  0.00    +0.000 C 
ENDROOT
BRANCH   1  12
ATOM      7  C   UNL     1       0.999   9.131  20.431  0.00  0.00    +0.000 A 
ATOM      8  N   UNL     1       1.519   9.338  19.238  0.00  0.00    +0.000 NA
ATOM      9  N   UNL     1       2.103   8.189  18.721  0.00  0.00    +0.000 NA
ATOM     10  C   UNL     1       1.948   7.154  19.524  0.00  0.00    +0.000 A 
ATOM     11  N   UNL     1       2.327   5.869  19.193  0.00  0.00    +0.000 N 
ATOM     12  C   UNL     1       1.895   4.736  19.852  0.00  0.00    +0.000 C 
ATOM     13  O   UNL     1       1.231   4.716  20.883  0.00  0.00    +0.000 OA
ATOM     14  S   UNL     1       1.253   7.546  21.026  0.00  0.00    +0.000 S 
ATOM     15  H   UNL     1       2.804   5.806  18.303  0.00  0.00    +0.000 HD
BRANCH   7  17
ATOM     16  C   UNL     1       0.267   9.767  22.731  0.00  0.00    +0.000 C 
ATOM     17  C   UNL     1       0.244  10.123  21.250  0.00  0.00    +0.000 C 
ENDBRANCH   7  17
ENDBRANCH   1  12
BRANCH   4  18
ATOM     18  S   UNL     1       6.289   4.947  17.519  0.00  0.00    +0.000 S 
ATOM     19  O   UNL     1       5.861   6.329  17.617  0.00  0.00    +0.000 OA
ATOM     20  O   UNL     1       7.436   4.460  18.256  0.00  0.00    +0.000 OA
BRANCH  18  21
ATOM     21  C   UNL     1       6.553   4.615  15.792  0.00  0.00    +0.000 A 
ATOM     22  C   UNL     1       5.777   3.644  15.155  0.00  0.00    +0.000 A 
ATOM     23  C   UNL     1       5.933   3.424  13.784  0.00  0.00    +0.000 A 
ATOM     24  C   UNL     1       6.856   4.175  13.042  0.00  0.00    +0.000 A 
ATOM     25  C   UNL     1       7.010   3.965  11.564  0.00  0.00    +0.000 C 
ATOM     26  C   UNL     1       7.621   5.155  13.692  0.00  0.00    +0.000 A 
ATOM     27  C   UNL     1       7.474   5.376  15.064  0.00  0.00    +0.000 A 
ENDBRANCH  18  21
ENDBRANCH   4  18
TORSDOF 4
ENDMDL
MODEL 8
REMARK VINA RESULT:      -7.3      6.095     11.088
REMARK  Name = 
REMARK  6 active torsions:
REMARK  status: ('A' for Active; 'I' for Inactive)
REMARK    1  A    between atoms: C_1  and  C_2
REMARK    2  A    between atoms: C_2  and  C_3
REMARK    3  A    between atoms: C_8  and  C_10
REMARK    4  A    between atoms: N_13  and  S_14
REMARK    5  A    between atoms: S_14  and  C_17
REMARK    6  A    between atoms: C_20  and  C_21
REMARK                            x       y       z     vdW  Elec       q    Type
REMARK                         _______ _______ _______ _____ _____    ______ ____
ROOT
ATOM      1  C   UNL     1      -0.508  12.606  19.047  0.00  0.00    +0.000 C 
ATOM      2  C   UNL     1      -0.216  11.305  18.301  0.00  0.00    +0.000 C 
ATOM      3  C   UNL     1      -0.239  10.114  19.257  0.00  0.00    +0.000 C 
ATOM      4  N   UNL     1       0.811  10.273  20.300  0.00  0.00    +0.000 NA
ATOM      5  C   UNL     1       0.681  11.558  21.067  0.00  0.00    +0.000 C 
ATOM      6  C   UNL     1       0.559  12.775  20.142  0.00  0.00    +0.000 C 
ENDROOT
BRANCH   1  12
ATOM      7  C   UNL     1      -6.330  11.796  20.225  0.00  0.00    +0.000 A 
ATOM      8  N   UNL     1      -6.315  11.199  19.050  0.00  0.00    +0.000 NA
ATOM      9  N   UNL     1      -5.101  11.368  18.398  0.00  0.00    +0.000 NA
ATOM     10  C   UNL     1      -4.237  12.040  19.135  0.00  0.00    +0.000 A 
ATOM     11  N   UNL     1      -2.920  12.239  18.772  0.00  0.00    +0.000 N 
ATOM     12  C   UNL     1      -1.926  12.641  19.641  0.00  0.00    +0.000 C 
ATOM     13  O   UNL     1      -2.091  12.994  20.805  0.00  0.00    +0.000 OA
ATOM     14  S   UNL     1      -4.895  12.661  20.574  0.00  0.00    +0.000 S 
ATOM     15  H   UNL     1      -2.697  11.885  17.851  0.00  0.00    +0.000 HD
BRANCH   7  17
ATOM     16  C   UNL     1      -7.190  12.719  22.379  0.00  0.00    +0.000 C 
ATOM     17  C   UNL     1      -7.445  11.770  21.215  0.00  0.00    +0.000 C 
ENDBRANCH   7  17
ENDBRANCH   1  12
BRANCH   4  18
ATOM     18  S   UNL     1       0.878   8.916  21.388  0.00  0.00    +0.000 S 
ATOM     19  O   UNL     1       1.810   9.241  22.450  0.00  0.00    +0.000 OA
ATOM     20  O   UNL     1      -0.487   8.529  21.677  0.00  0.00    +0.000 OA
BRANCH  18  21
ATOM     21  C   UNL     1       1.631   7.625  20.424  0.00  0.00    +0.000 A 
ATOM     22  C   UNL     1       1.581   6.308  20.887  0.00  0.00    +0.000 A 
ATOM     23  C   UNL     1       2.112   5.279  20.103  0.00  0.00    +0.000 A 
ATOM     24  C   UNL     1       2.688   5.558  18.855  0.00  0.00    +0.000 A 
ATOM     25  C   UNL     1       3.236   4.457  17.995  0.00  0.00    +0.000 C 
ATOM     26  C   UNL     1       2.721   6.884  18.397  0.00  0.00    +0.000 A 
ATOM     27  C   UNL     1       2.197   7.918  19.178  0.00  0.00    +0.000 A 
ENDBRANCH  18  21
ENDBRANCH   4  18
TORSDOF 4
ENDMDL
MODEL 9
REMARK VINA RESULT:      -7.3      2.293      3.307
REMARK  Name = 
REMARK  6 active torsions:
REMARK  status: ('A' for Active; 'I' for Inactive)
REMARK    1  A    between atoms: C_1  and  C_2
REMARK    2  A    between atoms: C_2  and  C_3
REMARK    3  A    between atoms: C_8  and  C_10
REMARK    4  A    between atoms: N_13  and  S_14
REMARK    5  A    between atoms: S_14  and  C_17
REMARK    6  A    between atoms: C_20  and  C_21
REMARK                            x       y       z     vdW  Elec       q    Type
REMARK                         _______ _______ _______ _____ _____    ______ ____
ROOT
ATOM      1  C   UNL     1       6.936   5.856  17.678  0.00  0.00    +0.000 C 
ATOM      2  C   UNL     1       6.338   5.318  18.977  0.00  0.00    +0.000 C 
ATOM      3  C   UNL     1       4.818   5.460  18.974  0.00  0.00    +0.000 C 
ATOM      4  N   UNL     1       4.436   6.894  18.871  0.00  0.00    +0.000 NA
ATOM      5  C   UNL     1       5.024   7.568  17.664  0.00  0.00    +0.000 C 
ATOM      6  C   UNL     1       6.535   7.335  17.547  0.00  0.00    +0.000 C 
ENDROOT
BRANCH   1  12
ATOM      7  C   UNL     1       6.413   3.390  12.240  0.00  0.00    +0.000 A 
ATOM      8  N   UNL     1       7.335   4.279  11.929  0.00  0.00    +0.000 NA
ATOM      9  N   UNL     1       7.567   5.169  12.969  0.00  0.00    +0.000 NA
ATOM     10  C   UNL     1       6.849   4.877  14.037  0.00  0.00    +0.000 A 
ATOM     11  N   UNL     1       6.981   5.529  15.246  0.00  0.00    +0.000 N 
ATOM     12  C   UNL     1       6.497   5.049  16.446  0.00  0.00    +0.000 C 
ATOM     13  O   UNL     1       5.785   4.060  16.587  0.00  0.00    +0.000 OA
ATOM     14  S   UNL     1       5.723   3.627  13.788  0.00  0.00    +0.000 S 
ATOM     15  H   UNL     1       7.630   6.305  15.218  0.00  0.00    +0.000 HD
BRANCH   7  17
ATOM     16  C   UNL     1       7.123   1.372  10.953  0.00  0.00    +0.000 C 
ATOM     17  C   UNL     1       5.959   2.254  11.387  0.00  0.00    +0.000 C 
ENDBRANCH   7  17
ENDBRANCH   1  12
BRANCH   4  18
ATOM     18  S   UNL     1       2.713   7.129  18.924  0.00  0.00    +0.000 S 
ATOM     19  O   UNL     1       2.384   7.734  20.201  0.00  0.00    +0.000 OA
ATOM     20  O   UNL     1       2.325   7.751  17.675  0.00  0.00    +0.000 OA
BRANCH  18  21
ATOM     21  C   UNL     1       2.051   5.479  18.955  0.00  0.00    +0.000 A 
ATOM     22  C   UNL     1       2.032   4.728  17.777  0.00  0.00    +0.000 A 
ATOM     23  C   UNL     1       1.576   3.407  17.807  0.00  0.00    +0.000 A 
ATOM     24  C   UNL     1       1.144   2.829  19.010  0.00  0.00    +0.000 A 
ATOM     25  C   UNL     1       0.678   1.403  19.057  0.00  0.00    +0.000 C 
ATOM     26  C   UNL     1       1.180   3.591  20.187  0.00  0.00    +0.000 A 
ATOM     27  C   UNL     1       1.630   4.914  20.164  0.00  0.00    +0.000 A 
ENDBRANCH  18  21
ENDBRANCH   4  18
TORSDOF 4
ENDMDL
