MODEL 1
REMARK VINA RESULT:      -8.2      0.000      0.000
REMARK  Name = 
REMARK  10 active torsions:
REMARK  status: ('A' for Active; 'I' for Inactive)
REMARK    1  A    between atoms: C_1  and  O_2
REMARK    2  A    between atoms: O_2  and  C_3
REMARK    3  A    between atoms: C_6  and  C_7
REMARK    4  A    between atoms: C_7  and  N_8
REMARK    5  A    between atoms: C_9  and  C_11
REMARK    6  A    between atoms: C_13  and  C_14
REMARK    7  A    between atoms: C_18  and  C_19
REMARK    8  A    between atoms: C_23  and  C_24
REMARK    9  A    between atoms: C_32  and  O_33
REMARK   10  A    between atoms: O_33  and  C_34
REMARK                            x       y       z     vdW  Elec       q    Type
REMARK                         _______ _______ _______ _____ _____    ______ ____
ROOT
ATOM      1  C   UNL     1       1.400   8.713  20.259  0.00  0.00    +0.000 A 
ATOM      2  C   UNL     1       2.057   7.470  20.248  0.00  0.00    +0.000 A 
ATOM      3  C   UNL     1       2.511   6.934  19.050  0.00  0.00    +0.000 A 
ATOM      4  N   UNL     1       2.365   7.607  17.893  0.00  0.00    +0.000 NA
ATOM      5  C   UNL     1       1.737   8.812  17.928  0.00  0.00    +0.000 A 
ATOM      6  C   UNL     1       1.222   9.441  19.067  0.00  0.00    +0.000 A 
ENDROOT
BRANCH   3   7
ATOM      7  C   UNL     1       3.169   5.625  18.973  0.00  0.00    +0.000 A 
ATOM      8  C   UNL     1       4.473   5.427  19.428  0.00  0.00    +0.000 A 
ATOM      9  N   UNL     1       5.131   4.240  19.412  0.00  0.00    +0.000 NA
ATOM     10  C   UNL     1       4.465   3.182  18.897  0.00  0.00    +0.000 A 
ATOM     11  C   UNL     1       3.174   3.251  18.400  0.00  0.00    +0.000 A 
ATOM     12  C   UNL     1       2.482   2.054  17.829  0.00  0.00    +0.000 C 
ATOM     13  C   UNL     1       2.531   4.492  18.441  0.00  0.00    +0.000 A 
ENDBRANCH   3   7
BRANCH   6  14
ATOM     14  C   UNL     1       0.548  10.756  18.938  0.00  0.00    +0.000 A 
ATOM     15  C   UNL     1       1.265  11.964  18.993  0.00  0.00    +0.000 A 
ATOM     16  N   UNL     1       0.730  13.208  18.886  0.00  0.00    +0.000 NA
ATOM     17  C   UNL     1      -0.611  13.272  18.746  0.00  0.00    +0.000 A 
ATOM     18  C   UNL     1      -1.416  12.153  18.672  0.00  0.00    +0.000 A 
ATOM     19  F   UNL     1      -2.743  12.275  18.546  0.00  0.00    +0.000 F 
ATOM     20  C   UNL     1      -0.834  10.892  18.739  0.00  0.00    +0.000 A 
ENDBRANCH   6  14
BRANCH   1  22
ATOM     21  N   UNL     1      -0.345   9.377  21.825  0.00  0.00    +0.000 N 
ATOM     22  C   UNL     1       1.008   9.224  21.605  0.00  0.00    +0.000 C 
ATOM     23  O   UNL     1       1.853   9.482  22.450  0.00  0.00    +0.000 OA
ATOM     24  H   UNL     1      -1.013   9.268  21.075  0.00  0.00    +0.000 HD
BRANCH  21  25
ATOM     25  C   UNL     1      -0.865   9.893  23.077  0.00  0.00    +0.000 C 
BRANCH  25  29
ATOM     26  C   UNL     1      -2.312  13.908  22.899  0.00  0.00    +0.000 A 
ATOM     27  C   UNL     1      -1.073  13.604  22.339  0.00  0.00    +0.000 A 
ATOM     28  C   UNL     1      -0.594  12.296  22.363  0.00  0.00    +0.000 A 
ATOM     29  C   UNL     1      -1.378  11.307  22.947  0.00  0.00    +0.000 A 
ATOM     30  N   UNL     1      -2.620  11.560  23.434  0.00  0.00    +0.000 NA
ATOM     31  C   UNL     1      -3.063  12.844  23.405  0.00  0.00    +0.000 A 
BRANCH  26  33
ATOM     32  C   UNL     1      -3.126  15.711  21.591  0.00  0.00    +0.000 C 
ATOM     33  O   UNL     1      -2.654  15.233  22.846  0.00  0.00    +0.000 OA
ENDBRANCH  26  33
BRANCH  31  34
ATOM     34  O   UNL     1      -4.332  13.095  23.882  0.00  0.00    +0.000 OA
ATOM     35  C   UNL     1      -5.355  12.977  22.901  0.00  0.00    +0.000 C 
ENDBRANCH  31  34
ENDBRANCH  25  29
ENDBRANCH  21  25
ENDBRANCH   1  22
TORSDOF 7
ENDMDL
MODEL 2
REMARK VINA RESULT:      -8.1      1.120      1.313
REMARK  Name = 
REMARK  10 active torsions:
REMARK  status: ('A' for Active; 'I' for Inactive)
REMARK    1  A    between atoms: C_1  and  O_2
REMARK    2  A    between atoms: O_2  and  C_3
REMARK    3  A    between atoms: C_6  and  C_7
REMARK    4  A    between atoms: C_7  and  N_8
REMARK    5  A    between atoms: C_9  and  C_11
REMARK    6  A    between atoms: C_13  and  C_14
REMARK    7  A    between atoms: C_18  and  C_19
REMARK    8  A    between atoms: C_23  and  C_24
REMARK    9  A    between atoms: C_32  and  O_33
REMARK   10  A    between atoms: O_33  and  C_34
REMARK                            x       y       z     vdW  Elec       q    Type
REMARK                         _______ _______ _______ _____ _____    ______ ____
ROOT
ATOM      1  C   UNL     1       1.317   8.904  20.373  0.00  0.00    +0.000 A 
ATOM      2  C   UNL     1       1.858   7.605  20.375  0.00  0.00    +0.000 A 
ATOM      3  C   UNL     1       2.300   7.034  19.190  0.00  0.00    +0.000 A 
ATOM      4  N   UNL     1       2.253   7.721  18.032  0.00  0.00    +0.000 NA
ATOM      5  C   UNL     1       1.736   8.978  18.054  0.00  0.00    +0.000 A 
ATOM      6  C   UNL     1       1.243   9.648  19.180  0.00  0.00    +0.000 A 
ENDROOT
BRANCH   3   7
ATOM      7  C   UNL     1       2.838   5.671  19.126  0.00  0.00    +0.000 A 
ATOM      8  C   UNL     1       4.202   5.410  19.266  0.00  0.00    +0.000 A 
ATOM      9  N   UNL     1       4.763   4.174  19.244  0.00  0.00    +0.000 NA
ATOM     10  C   UNL     1       3.926   3.128  19.055  0.00  0.00    +0.000 A 
ATOM     11  C   UNL     1       2.557   3.257  18.890  0.00  0.00    +0.000 A 
ATOM     12  C   UNL     1       1.673   2.070  18.672  0.00  0.00    +0.000 C 
ATOM     13  C   UNL     1       2.020   4.547  18.924  0.00  0.00    +0.000 A 
ENDBRANCH   3   7
BRANCH   6  14
ATOM     14  C   UNL     1       0.696  11.019  19.038  0.00  0.00    +0.000 A 
ATOM     15  C   UNL     1      -0.640  11.249  18.666  0.00  0.00    +0.000 A 
ATOM     16  N   UNL     1      -1.220  12.468  18.510  0.00  0.00    +0.000 NA
ATOM     17  C   UNL     1      -0.423  13.539  18.705  0.00  0.00    +0.000 A 
ATOM     18  C   UNL     1       0.902  13.435  19.079  0.00  0.00    +0.000 A 
ATOM     19  F   UNL     1       1.652  14.531  19.246  0.00  0.00    +0.000 F 
ATOM     20  C   UNL     1       1.456  12.174  19.275  0.00  0.00    +0.000 A 
ENDBRANCH   6  14
BRANCH   1  22
ATOM     21  N   UNL     1      -0.418   9.657  21.909  0.00  0.00    +0.000 N 
ATOM     22  C   UNL     1       0.930   9.444  21.709  0.00  0.00    +0.000 C 
ATOM     23  O   UNL     1       1.774   9.675  22.562  0.00  0.00    +0.000 OA
ATOM     24  H   UNL     1      -1.081   9.569  21.152  0.00  0.00    +0.000 HD
BRANCH  21  25
ATOM     25  C   UNL     1      -0.931  10.207  23.150  0.00  0.00    +0.000 C 
BRANCH  25  29
ATOM     26  C   UNL     1      -2.642  14.107  22.812  0.00  0.00    +0.000 A 
ATOM     27  C   UNL     1      -1.365  13.876  22.305  0.00  0.00    +0.000 A 
ATOM     28  C   UNL     1      -0.798  12.605  22.381  0.00  0.00    +0.000 A 
ATOM     29  C   UNL     1      -1.535  11.579  22.964  0.00  0.00    +0.000 A 
ATOM     30  N   UNL     1      -2.808  11.756  23.399  0.00  0.00    +0.000 NA
ATOM     31  C   UNL     1      -3.337  13.006  23.320  0.00  0.00    +0.000 A 
BRANCH  26  33
ATOM     32  C   UNL     1      -2.804  16.242  23.830  0.00  0.00    +0.000 C 
ATOM     33  O   UNL     1      -3.072  15.403  22.712  0.00  0.00    +0.000 OA
ENDBRANCH  26  33
BRANCH  31  34
ATOM     34  O   UNL     1      -4.638  13.180  23.745  0.00  0.00    +0.000 OA
ATOM     35  C   UNL     1      -5.610  13.011  22.721  0.00  0.00    +0.000 C 
ENDBRANCH  31  34
ENDBRANCH  25  29
ENDBRANCH  21  25
ENDBRANCH   1  22
TORSDOF 7
ENDMDL
MODEL 3
REMARK VINA RESULT:      -8.0      1.256      1.511
REMARK  Name = 
REMARK  10 active torsions:
REMARK  status: ('A' for Active; 'I' for Inactive)
REMARK    1  A    between atoms: C_1  and  O_2
REMARK    2  A    between atoms: O_2  and  C_3
REMARK    3  A    between atoms: C_6  and  C_7
REMARK    4  A    between atoms: C_7  and  N_8
REMARK    5  A    between atoms: C_9  and  C_11
REMARK    6  A    between atoms: C_13  and  C_14
REMARK    7  A    between atoms: C_18  and  C_19
REMARK    8  A    between atoms: C_23  and  C_24
REMARK    9  A    between atoms: C_32  and  O_33
REMARK   10  A    between atoms: O_33  and  C_34
REMARK                            x       y       z     vdW  Elec       q    Type
REMARK                         _______ _______ _______ _____ _____    ______ ____
ROOT
ATOM      1  C   UNL     1       1.350   9.021  20.238  0.00  0.00    +0.000 A 
ATOM      2  C   UNL     1       1.915   7.736  20.158  0.00  0.00    +0.000 A 
ATOM      3  C   UNL     1       2.365   7.249  18.938  0.00  0.00    +0.000 A 
ATOM      4  N   UNL     1       2.304   8.008  17.827  0.00  0.00    +0.000 NA
ATOM      5  C   UNL     1       1.764   9.251  17.929  0.00  0.00    +0.000 A 
ATOM      6  C   UNL     1       1.261   9.838  19.096  0.00  0.00    +0.000 A 
ENDROOT
BRANCH   3   7
ATOM      7  C   UNL     1       2.928   5.903  18.787  0.00  0.00    +0.000 A 
ATOM      8  C   UNL     1       2.724   4.907  19.743  0.00  0.00    +0.000 A 
ATOM      9  N   UNL     1       3.192   3.636  19.654  0.00  0.00    +0.000 NA
ATOM     10  C   UNL     1       3.923   3.332  18.557  0.00  0.00    +0.000 A 
ATOM     11  C   UNL     1       4.208   4.234  17.546  0.00  0.00    +0.000 A 
ATOM     12  C   UNL     1       5.031   3.853  16.357  0.00  0.00    +0.000 C 
ATOM     13  C   UNL     1       3.702   5.531  17.675  0.00  0.00    +0.000 A 
ENDBRANCH   3   7
BRANCH   6  14
ATOM     14  C   UNL     1       0.689  11.206  19.041  0.00  0.00    +0.000 A 
ATOM     15  C   UNL     1      -0.658  11.433  18.709  0.00  0.00    +0.000 A 
ATOM     16  N   UNL     1      -1.261  12.648  18.633  0.00  0.00    +0.000 NA
ATOM     17  C   UNL     1      -0.477  13.720  18.873  0.00  0.00    +0.000 A 
ATOM     18  C   UNL     1       0.856  13.619  19.216  0.00  0.00    +0.000 A 
ATOM     19  F   UNL     1       1.591  14.717  19.430  0.00  0.00    +0.000 F 
ATOM     20  C   UNL     1       1.434  12.359  19.329  0.00  0.00    +0.000 A 
ENDBRANCH   6  14
BRANCH   1  22
ATOM     21  N   UNL     1      -0.392   9.682  21.809  0.00  0.00    +0.000 N 
ATOM     22  C   UNL     1       0.955   9.468  21.606  0.00  0.00    +0.000 C 
ATOM     23  O   UNL     1       1.794   9.626  22.482  0.00  0.00    +0.000 OA
ATOM     24  H   UNL     1      -1.048   9.656  21.041  0.00  0.00    +0.000 HD
BRANCH  21  25
ATOM     25  C   UNL     1      -0.912  10.146  23.081  0.00  0.00    +0.000 C 
BRANCH  25  29
ATOM     26  C   UNL     1      -2.587  14.075  23.008  0.00  0.00    +0.000 A 
ATOM     27  C   UNL     1      -1.311  13.868  22.488  0.00  0.00    +0.000 A 
ATOM     28  C   UNL     1      -0.756  12.589  22.478  0.00  0.00    +0.000 A 
ATOM     29  C   UNL     1      -1.503  11.533  22.988  0.00  0.00    +0.000 A 
ATOM     30  N   UNL     1      -2.775  11.692  23.433  0.00  0.00    +0.000 NA
ATOM     31  C   UNL     1      -3.292  12.949  23.439  0.00  0.00    +0.000 A 
BRANCH  26  33
ATOM     32  C   UNL     1      -3.418  15.895  21.735  0.00  0.00    +0.000 C 
ATOM     33  O   UNL     1      -3.004  15.379  22.996  0.00  0.00    +0.000 OA
ENDBRANCH  26  33
BRANCH  31  34
ATOM     34  O   UNL     1      -4.592  13.105  23.873  0.00  0.00    +0.000 OA
ATOM     35  C   UNL     1      -5.566  12.981  22.844  0.00  0.00    +0.000 C 
ENDBRANCH  31  34
ENDBRANCH  25  29
ENDBRANCH  21  25
ENDBRANCH   1  22
TORSDOF 7
ENDMDL
MODEL 4
REMARK VINA RESULT:      -7.9      0.947      1.671
REMARK  Name = 
REMARK  10 active torsions:
REMARK  status: ('A' for Active; 'I' for Inactive)
REMARK    1  A    between atoms: C_1  and  O_2
REMARK    2  A    between atoms: O_2  and  C_3
REMARK    3  A    between atoms: C_6  and  C_7
REMARK    4  A    between atoms: C_7  and  N_8
REMARK    5  A    between atoms: C_9  and  C_11
REMARK    6  A    between atoms: C_13  and  C_14
REMARK    7  A    between atoms: C_18  and  C_19
REMARK    8  A    between atoms: C_23  and  C_24
REMARK    9  A    between atoms: C_32  and  O_33
REMARK   10  A    between atoms: O_33  and  C_34
REMARK                            x       y       z     vdW  Elec       q    Type
REMARK                         _______ _______ _______ _____ _____    ______ ____
ROOT
ATOM      1  C   UNL     1       1.347   8.785  20.258  0.00  0.00    +0.000 A 
ATOM      2  C   UNL     1       2.005   7.542  20.241  0.00  0.00    +0.000 A 
ATOM      3  C   UNL     1       2.438   7.001  19.038  0.00  0.00    +0.000 A 
ATOM      4  N   UNL     1       2.271   7.669  17.880  0.00  0.00    +0.000 NA
ATOM      5  C   UNL     1       1.642   8.873  17.921  0.00  0.00    +0.000 A 
ATOM      6  C   UNL     1       1.146   9.507  19.066  0.00  0.00    +0.000 A 
ENDROOT
BRANCH   3   7
ATOM      7  C   UNL     1       3.096   5.693  18.955  0.00  0.00    +0.000 A 
ATOM      8  C   UNL     1       4.410   5.500  19.384  0.00  0.00    +0.000 A 
ATOM      9  N   UNL     1       5.069   4.313  19.362  0.00  0.00    +0.000 NA
ATOM     10  C   UNL     1       4.394   3.251  18.866  0.00  0.00    +0.000 A 
ATOM     11  C   UNL     1       3.093   3.316  18.396  0.00  0.00    +0.000 A 
ATOM     12  C   UNL     1       2.391   2.115  17.847  0.00  0.00    +0.000 C 
ATOM     13  C   UNL     1       2.450   4.556  18.443  0.00  0.00    +0.000 A 
ENDBRANCH   3   7
BRANCH   6  14
ATOM     14  C   UNL     1       0.469  10.821  18.944  0.00  0.00    +0.000 A 
ATOM     15  C   UNL     1       1.179  12.031  19.027  0.00  0.00    +0.000 A 
ATOM     16  N   UNL     1       0.640  13.274  18.928  0.00  0.00    +0.000 NA
ATOM     17  C   UNL     1      -0.698  13.334  18.765  0.00  0.00    +0.000 A 
ATOM     18  C   UNL     1      -1.497  12.213  18.662  0.00  0.00    +0.000 A 
ATOM     19  F   UNL     1      -2.822  12.330  18.514  0.00  0.00    +0.000 F 
ATOM     20  C   UNL     1      -0.910  10.953  18.722  0.00  0.00    +0.000 A 
ENDBRANCH   6  14
BRANCH   1  22
ATOM     21  N   UNL     1      -0.321   9.740  21.756  0.00  0.00    +0.000 N 
ATOM     22  C   UNL     1       0.978   9.301  21.609  0.00  0.00    +0.000 C 
ATOM     23  O   UNL     1       1.795   9.322  22.518  0.00  0.00    +0.000 OA
ATOM     24  H   UNL     1      -0.940   9.819  20.962  0.00  0.00    +0.000 HD
BRANCH  21  25
ATOM     25  C   UNL     1      -0.806  10.294  23.006  0.00  0.00    +0.000 C 
BRANCH  25  29
ATOM     26  C   UNL     1      -2.026  14.348  22.434  0.00  0.00    +0.000 A 
ATOM     27  C   UNL     1      -2.966  13.327  22.304  0.00  0.00    +0.000 A 
ATOM     28  C   UNL     1      -2.596  12.000  22.512  0.00  0.00    +0.000 A 
ATOM     29  C   UNL     1      -1.278  11.721  22.857  0.00  0.00    +0.000 A 
ATOM     30  N   UNL     1      -0.359  12.699  23.064  0.00  0.00    +0.000 NA
ATOM     31  C   UNL     1      -0.743  13.984  22.849  0.00  0.00    +0.000 A 
BRANCH  26  33
ATOM     32  C   UNL     1      -3.587  15.681  21.247  0.00  0.00    +0.000 C 
ATOM     33  O   UNL     1      -2.504  15.603  22.168  0.00  0.00    +0.000 OA
ENDBRANCH  26  33
BRANCH  31  34
ATOM     34  O   UNL     1       0.187  14.977  23.078  0.00  0.00    +0.000 OA
ATOM     35  C   UNL     1       1.029  15.252  21.966  0.00  0.00    +0.000 C 
ENDBRANCH  31  34
ENDBRANCH  25  29
ENDBRANCH  21  25
ENDBRANCH   1  22
TORSDOF 7
ENDMDL
MODEL 5
REMARK VINA RESULT:      -7.9      1.556      1.919
REMARK  Name = 
REMARK  10 active torsions:
REMARK  status: ('A' for Active; 'I' for Inactive)
REMARK    1  A    between atoms: C_1  and  O_2
REMARK    2  A    between atoms: O_2  and  C_3
REMARK    3  A    between atoms: C_6  and  C_7
REMARK    4  A    between atoms: C_7  and  N_8
REMARK    5  A    between atoms: C_9  and  C_11
REMARK    6  A    between atoms: C_13  and  C_14
REMARK    7  A    between atoms: C_18  and  C_19
REMARK    8  A    between atoms: C_23  and  C_24
REMARK    9  A    between atoms: C_32  and  O_33
REMARK   10  A    between atoms: O_33  and  C_34
REMARK                            x       y       z     vdW  Elec       q    Type
REMARK                         _______ _______ _______ _____ _____    ______ ____
ROOT
ATOM      1  C   UNL     1       1.309   8.906  20.301  0.00  0.00    +0.000 A 
ATOM      2  C   UNL     1       1.868   7.617  20.373  0.00  0.00    +0.000 A 
ATOM      3  C   UNL     1       2.327   6.992  19.222  0.00  0.00    +0.000 A 
ATOM      4  N   UNL     1       2.280   7.619  18.030  0.00  0.00    +0.000 NA
ATOM      5  C   UNL     1       1.746   8.868  17.984  0.00  0.00    +0.000 A 
ATOM      6  C   UNL     1       1.236   9.587  19.071  0.00  0.00    +0.000 A 
ENDROOT
BRANCH   3   7
ATOM      7  C   UNL     1       2.884   5.635  19.231  0.00  0.00    +0.000 A 
ATOM      8  C   UNL     1       4.260   5.404  19.280  0.00  0.00    +0.000 A 
ATOM      9  N   UNL     1       4.841   4.177  19.319  0.00  0.00    +0.000 NA
ATOM     10  C   UNL     1       4.011   3.109  19.290  0.00  0.00    +0.000 A 
ATOM     11  C   UNL     1       2.631   3.206  19.228  0.00  0.00    +0.000 A 
ATOM     12  C   UNL     1       1.755   1.995  19.188  0.00  0.00    +0.000 C 
ATOM     13  C   UNL     1       2.074   4.488  19.196  0.00  0.00    +0.000 A 
ENDBRANCH   3   7
BRANCH   6  14
ATOM     14  C   UNL     1       0.671  10.942  18.855  0.00  0.00    +0.000 A 
ATOM     15  C   UNL     1      -0.637  11.132  18.377  0.00  0.00    +0.000 A 
ATOM     16  N   UNL     1      -1.230  12.333  18.149  0.00  0.00    +0.000 NA
ATOM     17  C   UNL     1      -0.474  13.426  18.379  0.00  0.00    +0.000 A 
ATOM     18  C   UNL     1       0.820  13.362  18.855  0.00  0.00    +0.000 A 
ATOM     19  F   UNL     1       1.531  14.479  19.052  0.00  0.00    +0.000 F 
ATOM     20  C   UNL     1       1.385  12.120  19.121  0.00  0.00    +0.000 A 
ENDBRANCH   6  14
BRANCH   1  22
ATOM     21  N   UNL     1      -0.410   9.913  21.703  0.00  0.00    +0.000 N 
ATOM     22  C   UNL     1       0.904   9.508  21.605  0.00  0.00    +0.000 C 
ATOM     23  O   UNL     1       1.707   9.623  22.520  0.00  0.00    +0.000 OA
ATOM     24  H   UNL     1      -1.020   9.914  20.897  0.00  0.00    +0.000 HD
BRANCH  21  25
ATOM     25  C   UNL     1      -0.931  10.542  22.902  0.00  0.00    +0.000 C 
BRANCH  25  29
ATOM     26  C   UNL     1      -1.862  14.652  22.197  0.00  0.00    +0.000 A 
ATOM     27  C   UNL     1      -2.484  13.669  21.428  0.00  0.00    +0.000 A 
ATOM     28  C   UNL     1      -2.214  12.321  21.658  0.00  0.00    +0.000 A 
ATOM     29  C   UNL     1      -1.323  11.982  22.671  0.00  0.00    +0.000 A 
ATOM     30  N   UNL     1      -0.760  12.912  23.484  0.00  0.00    +0.000 NA
ATOM     31  C   UNL     1      -1.034  14.220  23.236  0.00  0.00    +0.000 A 
BRANCH  26  33
ATOM     32  C   UNL     1      -1.362  16.539  20.851  0.00  0.00    +0.000 C 
ATOM     33  O   UNL     1      -2.181  15.936  21.848  0.00  0.00    +0.000 OA
ENDBRANCH  26  33
BRANCH  31  34
ATOM     34  O   UNL     1      -0.476  15.162  24.075  0.00  0.00    +0.000 OA
ATOM     35  C   UNL     1      -1.244  15.425  25.243  0.00  0.00    +0.000 C 
ENDBRANCH  31  34
ENDBRANCH  25  29
ENDBRANCH  21  25
ENDBRANCH   1  22
TORSDOF 7
ENDMDL
MODEL 6
REMARK VINA RESULT:      -7.9      1.384      2.089
REMARK  Name = 
REMARK  10 active torsions:
REMARK  status: ('A' for Active; 'I' for Inactive)
REMARK    1  A    between atoms: C_1  and  O_2
REMARK    2  A    between atoms: O_2  and  C_3
REMARK    3  A    between atoms: C_6  and  C_7
REMARK    4  A    between atoms: C_7  and  N_8
REMARK    5  A    between atoms: C_9  and  C_11
REMARK    6  A    between atoms: C_13  and  C_14
REMARK    7  A    between atoms: C_18  and  C_19
REMARK    8  A    between atoms: C_23  and  C_24
REMARK    9  A    between atoms: C_32  and  O_33
REMARK   10  A    between atoms: O_33  and  C_34
REMARK                            x       y       z     vdW  Elec       q    Type
REMARK                         _______ _______ _______ _____ _____    ______ ____
ROOT
ATOM      1  C   UNL     1       1.394   8.779  20.327  0.00  0.00    +0.000 A 
ATOM      2  C   UNL     1       1.949   7.488  20.383  0.00  0.00    +0.000 A 
ATOM      3  C   UNL     1       2.374   6.863  19.218  0.00  0.00    +0.000 A 
ATOM      4  N   UNL     1       2.298   7.492  18.030  0.00  0.00    +0.000 NA
ATOM      5  C   UNL     1       1.769   8.743  18.000  0.00  0.00    +0.000 A 
ATOM      6  C   UNL     1       1.291   9.463  19.101  0.00  0.00    +0.000 A 
ENDROOT
BRANCH   3   7
ATOM      7  C   UNL     1       2.925   5.503  19.211  0.00  0.00    +0.000 A 
ATOM      8  C   UNL     1       4.298   5.264  19.296  0.00  0.00    +0.000 A 
ATOM      9  N   UNL     1       4.873   4.034  19.322  0.00  0.00    +0.000 NA
ATOM     10  C   UNL     1       4.040   2.972  19.240  0.00  0.00    +0.000 A 
ATOM     11  C   UNL     1       2.663   3.077  19.138  0.00  0.00    +0.000 A 
ATOM     12  C   UNL     1       1.784   1.871  19.039  0.00  0.00    +0.000 C 
ATOM     13  C   UNL     1       2.112   4.362  19.121  0.00  0.00    +0.000 A 
ENDBRANCH   3   7
BRANCH   6  14
ATOM     14  C   UNL     1       0.727  10.821  18.902  0.00  0.00    +0.000 A 
ATOM     15  C   UNL     1      -0.654  11.033  18.743  0.00  0.00    +0.000 A 
ATOM     16  N   UNL     1      -1.253  12.238  18.554  0.00  0.00    +0.000 NA
ATOM     17  C   UNL     1      -0.433  13.309  18.487  0.00  0.00    +0.000 A 
ATOM     18  C   UNL     1       0.936  13.222  18.636  0.00  0.00    +0.000 A 
ATOM     19  F   UNL     1       1.703  14.315  18.547  0.00  0.00    +0.000 F 
ATOM     20  C   UNL     1       1.515  11.980  18.873  0.00  0.00    +0.000 A 
ENDBRANCH   6  14
BRANCH   1  22
ATOM     21  N   UNL     1      -0.320   9.574  21.865  0.00  0.00    +0.000 N 
ATOM     22  C   UNL     1       1.027   9.381  21.642  0.00  0.00    +0.000 C 
ATOM     23  O   UNL     1       1.886   9.676  22.460  0.00  0.00    +0.000 OA
ATOM     24  H   UNL     1      -0.999   9.430  21.131  0.00  0.00    +0.000 HD
BRANCH  21  25
ATOM     25  C   UNL     1      -0.816  10.177  23.088  0.00  0.00    +0.000 C 
BRANCH  25  29
ATOM     26  C   UNL     1      -2.121  14.170  22.310  0.00  0.00    +0.000 A 
ATOM     27  C   UNL     1      -3.006  13.263  22.890  0.00  0.00    +0.000 A 
ATOM     28  C   UNL     1      -2.593  11.963  23.176  0.00  0.00    +0.000 A 
ATOM     29  C   UNL     1      -1.285  11.598  22.879  0.00  0.00    +0.000 A 
ATOM     30  N   UNL     1      -0.380  12.479  22.383  0.00  0.00    +0.000 NA
ATOM     31  C   UNL     1      -0.808  13.739  22.106  0.00  0.00    +0.000 A 
BRANCH  26  33
ATOM     32  C   UNL     1      -3.337  16.037  23.120  0.00  0.00    +0.000 C 
ATOM     33  O   UNL     1      -2.656  15.401  22.043  0.00  0.00    +0.000 OA
ENDBRANCH  26  33
BRANCH  31  34
ATOM     34  O   UNL     1       0.119  14.638  21.621  0.00  0.00    +0.000 OA
ATOM     35  C   UNL     1       0.612  15.547  22.597  0.00  0.00    +0.000 C 
ENDBRANCH  31  34
ENDBRANCH  25  29
ENDBRANCH  21  25
ENDBRANCH   1  22
TORSDOF 7
ENDMDL
MODEL 7
REMARK VINA RESULT:      -7.7      4.889     10.960
REMARK  Name = 
REMARK  10 active torsions:
REMARK  status: ('A' for Active; 'I' for Inactive)
REMARK    1  A    between atoms: C_1  and  O_2
REMARK    2  A    between atoms: O_2  and  C_3
REMARK    3  A    between atoms: C_6  and  C_7
REMARK    4  A    between atoms: C_7  and  N_8
REMARK    5  A    between atoms: C_9  and  C_11
REMARK    6  A    between atoms: C_13  and  C_14
REMARK    7  A    between atoms: C_18  and  C_19
REMARK    8  A    between atoms: C_23  and  C_24
REMARK    9  A    between atoms: C_32  and  O_33
REMARK   10  A    between atoms: O_33  and  C_34
REMARK                            x       y       z     vdW  Elec       q    Type
REMARK                         _______ _______ _______ _____ _____    ______ ____
ROOT
ATOM      1  C   UNL     1       3.097   6.475  18.978  0.00  0.00    +0.000 A 
ATOM      2  C   UNL     1       2.593   7.712  19.419  0.00  0.00    +0.000 A 
ATOM      3  C   UNL     1       1.570   7.751  20.358  0.00  0.00    +0.000 A 
ATOM      4  N   UNL     1       1.074   6.616  20.886  0.00  0.00    +0.000 NA
ATOM      5  C   UNL     1       1.582   5.432  20.453  0.00  0.00    +0.000 A 
ATOM      6  C   UNL     1       2.595   5.268  19.501  0.00  0.00    +0.000 A 
ENDROOT
BRANCH   3   7
ATOM      7  C   UNL     1       0.980   9.010  20.826  0.00  0.00    +0.000 A 
ATOM      8  C   UNL     1       0.785   9.272  22.183  0.00  0.00    +0.000 A 
ATOM      9  N   UNL     1       0.271  10.424  22.687  0.00  0.00    +0.000 NA
ATOM     10  C   UNL     1      -0.091  11.371  21.791  0.00  0.00    +0.000 A 
ATOM     11  C   UNL     1       0.038  11.226  20.420  0.00  0.00    +0.000 A 
ATOM     12  C   UNL     1      -0.387  12.299  19.469  0.00  0.00    +0.000 C 
ATOM     13  C   UNL     1       0.578  10.027  19.945  0.00  0.00    +0.000 A 
ENDBRANCH   3   7
BRANCH   6  14
ATOM     14  C   UNL     1       3.034   3.902  19.124  0.00  0.00    +0.000 A 
ATOM     15  C   UNL     1       2.526   3.249  17.987  0.00  0.00    +0.000 A 
ATOM     16  N   UNL     1       2.870   2.002  17.571  0.00  0.00    +0.000 NA
ATOM     17  C   UNL     1       3.754   1.337  18.344  0.00  0.00    +0.000 A 
ATOM     18  C   UNL     1       4.324   1.880  19.478  0.00  0.00    +0.000 A 
ATOM     19  F   UNL     1       5.186   1.170  20.215  0.00  0.00    +0.000 F 
ATOM     20  C   UNL     1       3.986   3.176  19.853  0.00  0.00    +0.000 A 
ENDBRANCH   6  14
BRANCH   1  22
ATOM     21  N   UNL     1       5.407   5.945  18.415  0.00  0.00    +0.000 N 
ATOM     22  C   UNL     1       4.234   6.549  18.015  0.00  0.00    +0.000 C 
ATOM     23  O   UNL     1       4.110   7.115  16.939  0.00  0.00    +0.000 OA
ATOM     24  H   UNL     1       5.519   5.587  19.353  0.00  0.00    +0.000 HD
BRANCH  21  25
ATOM     25  C   UNL     1       6.601   5.967  17.592  0.00  0.00    +0.000 C 
BRANCH  25  29
ATOM     26  C   UNL     1       6.257   3.821  13.913  0.00  0.00    +0.000 A 
ATOM     27  C   UNL     1       5.543   3.384  15.028  0.00  0.00    +0.000 A 
ATOM     28  C   UNL     1       5.621   4.085  16.231  0.00  0.00    +0.000 A 
ATOM     29  C   UNL     1       6.415   5.225  16.289  0.00  0.00    +0.000 A 
ATOM     30  N   UNL     1       7.062   5.716  15.202  0.00  0.00    +0.000 NA
ATOM     31  C   UNL     1       6.976   5.012  14.043  0.00  0.00    +0.000 A 
BRANCH  26  33
ATOM     32  C   UNL     1       5.014   3.302  11.963  0.00  0.00    +0.000 C 
ATOM     33  O   UNL     1       6.128   3.028  12.805  0.00  0.00    +0.000 OA
ENDBRANCH  26  33
BRANCH  31  34
ATOM     34  O   UNL     1       7.619   5.523  12.934  0.00  0.00    +0.000 OA
ATOM     35  C   UNL     1       8.985   5.848  13.154  0.00  0.00    +0.000 C 
ENDBRANCH  31  34
ENDBRANCH  25  29
ENDBRANCH  21  25
ENDBRANCH   1  22
TORSDOF 7
ENDMDL
MODEL 8
REMARK VINA RESULT:      -7.7      1.124      1.415
REMARK  Name = 
REMARK  10 active torsions:
REMARK  status: ('A' for Active; 'I' for Inactive)
REMARK    1  A    between atoms: C_1  and  O_2
REMARK    2  A    between atoms: O_2  and  C_3
REMARK    3  A    between atoms: C_6  and  C_7
REMARK    4  A    between atoms: C_7  and  N_8
REMARK    5  A    between atoms: C_9  and  C_11
REMARK    6  A    between atoms: C_13  and  C_14
REMARK    7  A    between atoms: C_18  and  C_19
REMARK    8  A    between atoms: C_23  and  C_24
REMARK    9  A    between atoms: C_32  and  O_33
REMARK   10  A    between atoms: O_33  and  C_34
REMARK                            x       y       z     vdW  Elec       q    Type
REMARK                         _______ _______ _______ _____ _____    ______ ____
ROOT
ATOM      1  C   UNL     1       1.000   8.557  20.101  0.00  0.00    +0.000 A 
ATOM      2  C   UNL     1       1.775   7.385  20.176  0.00  0.00    +0.000 A 
ATOM      3  C   UNL     1       2.662   7.071  19.155  0.00  0.00    +0.000 A 
ATOM      4  N   UNL     1       2.823   7.896  18.103  0.00  0.00    +0.000 NA
ATOM      5  C   UNL     1       2.073   9.028  18.056  0.00  0.00    +0.000 A 
ATOM      6  C   UNL     1       1.136   9.438  19.011  0.00  0.00    +0.000 A 
ENDROOT
BRANCH   3   7
ATOM      7  C   UNL     1       3.466   5.845  19.161  0.00  0.00    +0.000 A 
ATOM      8  C   UNL     1       3.023   4.676  19.782  0.00  0.00    +0.000 A 
ATOM      9  N   UNL     1       3.703   3.500  19.802  0.00  0.00    +0.000 NA
ATOM     10  C   UNL     1       4.906   3.482  19.184  0.00  0.00    +0.000 A 
ATOM     11  C   UNL     1       5.461   4.578  18.545  0.00  0.00    +0.000 A 
ATOM     12  C   UNL     1       6.801   4.512  17.885  0.00  0.00    +0.000 C 
ATOM     13  C   UNL     1       4.725   5.767  18.544  0.00  0.00    +0.000 A 
ENDBRANCH   3   7
BRANCH   6  14
ATOM     14  C   UNL     1       0.384  10.700  18.809  0.00  0.00    +0.000 A 
ATOM     15  C   UNL     1       1.004  11.957  18.918  0.00  0.00    +0.000 A 
ATOM     16  N   UNL     1       0.392  13.159  18.751  0.00  0.00    +0.000 NA
ATOM     17  C   UNL     1      -0.931  13.124  18.486  0.00  0.00    +0.000 A 
ATOM     18  C   UNL     1      -1.643  11.949  18.349  0.00  0.00    +0.000 A 
ATOM     19  F   UNL     1      -2.958  11.973  18.099  0.00  0.00    +0.000 F 
ATOM     20  C   UNL     1      -0.979  10.735  18.481  0.00  0.00    +0.000 A 
ENDBRANCH   6  14
BRANCH   1  22
ATOM     21  N   UNL     1       0.350  10.018  21.939  0.00  0.00    +0.000 N 
ATOM     22  C   UNL     1       0.126   8.829  21.279  0.00  0.00    +0.000 C 
ATOM     23  O   UNL     1      -0.735   8.030  21.620  0.00  0.00    +0.000 OA
ATOM     24  H   UNL     1       1.140  10.605  21.710  0.00  0.00    +0.000 HD
BRANCH  21  25
ATOM     25  C   UNL     1      -0.407  10.396  23.118  0.00  0.00    +0.000 C 
BRANCH  25  29
ATOM     26  C   UNL     1      -2.895  13.833  22.625  0.00  0.00    +0.000 A 
ATOM     27  C   UNL     1      -1.588  13.861  22.141  0.00  0.00    +0.000 A 
ATOM     28  C   UNL     1      -0.767  12.742  22.269  0.00  0.00    +0.000 A 
ATOM     29  C   UNL     1      -1.282  11.602  22.878  0.00  0.00    +0.000 A 
ATOM     30  N   UNL     1      -2.573  11.520  23.291  0.00  0.00    +0.000 NA
ATOM     31  C   UNL     1      -3.351  12.626  23.161  0.00  0.00    +0.000 A 
BRANCH  26  33
ATOM     32  C   UNL     1      -4.445  15.087  21.342  0.00  0.00    +0.000 C 
ATOM     33  O   UNL     1      -3.586  15.005  22.474  0.00  0.00    +0.000 OA
ENDBRANCH  26  33
BRANCH  31  34
ATOM     34  O   UNL     1      -4.667  12.535  23.564  0.00  0.00    +0.000 OA
ATOM     35  C   UNL     1      -4.837  12.419  24.971  0.00  0.00    +0.000 C 
ENDBRANCH  31  34
ENDBRANCH  25  29
ENDBRANCH  21  25
ENDBRANCH   1  22
TORSDOF 7
ENDMDL
MODEL 9
REMARK VINA RESULT:      -7.6      1.622      1.890
REMARK  Name = 
REMARK  10 active torsions:
REMARK  status: ('A' for Active; 'I' for Inactive)
REMARK    1  A    between atoms: C_1  and  O_2
REMARK    2  A    between atoms: O_2  and  C_3
REMARK    3  A    between atoms: C_6  and  C_7
REMARK    4  A    between atoms: C_7  and  N_8
REMARK    5  A    between atoms: C_9  and  C_11
REMARK    6  A    between atoms: C_13  and  C_14
REMARK    7  A    between atoms: C_18  and  C_19
REMARK    8  A    between atoms: C_23  and  C_24
REMARK    9  A    between atoms: C_32  and  O_33
REMARK   10  A    between atoms: O_33  and  C_34
REMARK                            x       y       z     vdW  Elec       q    Type
REMARK                         _______ _______ _______ _____ _____    ______ ____
ROOT
ATOM      1  C   UNL     1       1.248   8.952  20.407  0.00  0.00    +0.000 A 
ATOM      2  C   UNL     1       1.731   7.637  20.535  0.00  0.00    +0.000 A 
ATOM      3  C   UNL     1       2.190   6.953  19.418  0.00  0.00    +0.000 A 
ATOM      4  N   UNL     1       2.218   7.545  18.208  0.00  0.00    +0.000 NA
ATOM      5  C   UNL     1       1.757   8.819  18.109  0.00  0.00    +0.000 A 
ATOM      6  C   UNL     1       1.253   9.599  19.156  0.00  0.00    +0.000 A 
ENDROOT
BRANCH   3   7
ATOM      7  C   UNL     1       2.669   5.568  19.485  0.00  0.00    +0.000 A 
ATOM      8  C   UNL     1       3.573   5.055  18.554  0.00  0.00    +0.000 A 
ATOM      9  N   UNL     1       4.078   3.794  18.573  0.00  0.00    +0.000 NA
ATOM     10  C   UNL     1       3.647   2.982  19.565  0.00  0.00    +0.000 A 
ATOM     11  C   UNL     1       2.742   3.367  20.540  0.00  0.00    +0.000 A 
ATOM     12  C   UNL     1       2.289   2.427  21.611  0.00  0.00    +0.000 C 
ATOM     13  C   UNL     1       2.253   4.675  20.487  0.00  0.00    +0.000 A 
ENDBRANCH   3   7
BRANCH   6  14
ATOM     14  C   UNL     1       0.774  10.976  18.882  0.00  0.00    +0.000 A 
ATOM     15  C   UNL     1      -0.579  11.250  18.615  0.00  0.00    +0.000 A 
ATOM     16  N   UNL     1      -1.101  12.476  18.352  0.00  0.00    +0.000 NA
ATOM     17  C   UNL     1      -0.227  13.504  18.320  0.00  0.00    +0.000 A 
ATOM     18  C   UNL     1       1.122  13.356  18.574  0.00  0.00    +0.000 A 
ATOM     19  F   UNL     1       1.947  14.408  18.516  0.00  0.00    +0.000 F 
ATOM     20  C   UNL     1       1.619  12.095  18.884  0.00  0.00    +0.000 A 
ENDBRANCH   6  14
BRANCH   1  22
ATOM     21  N   UNL     1      -0.496   9.957  21.779  0.00  0.00    +0.000 N 
ATOM     22  C   UNL     1       0.836   9.615  21.678  0.00  0.00    +0.000 C 
ATOM     23  O   UNL     1       1.648   9.832  22.566  0.00  0.00    +0.000 OA
ATOM     24  H   UNL     1      -1.120   9.873  20.989  0.00  0.00    +0.000 HD
BRANCH  21  25
ATOM     25  C   UNL     1      -1.028  10.634  22.947  0.00  0.00    +0.000 C 
BRANCH  25  29
ATOM     26  C   UNL     1      -1.367  14.873  22.540  0.00  0.00    +0.000 A 
ATOM     27  C   UNL     1      -0.329  14.205  21.892  0.00  0.00    +0.000 A 
ATOM     28  C   UNL     1      -0.216  12.820  21.990  0.00  0.00    +0.000 A 
ATOM     29  C   UNL     1      -1.159  12.124  22.738  0.00  0.00    +0.000 A 
ATOM     30  N   UNL     1      -2.221  12.737  23.319  0.00  0.00    +0.000 NA
ATOM     31  C   UNL     1      -2.307  14.089  23.215  0.00  0.00    +0.000 A 
BRANCH  26  33
ATOM     32  C   UNL     1      -0.496  16.947  23.289  0.00  0.00    +0.000 C 
ATOM     33  O   UNL     1      -1.348  16.234  22.399  0.00  0.00    +0.000 OA
ENDBRANCH  26  33
BRANCH  31  34
ATOM     34  O   UNL     1      -3.397  14.708  23.789  0.00  0.00    +0.000 OA
ATOM     35  C   UNL     1      -3.214  15.057  25.155  0.00  0.00    +0.000 C 
ENDBRANCH  31  34
ENDBRANCH  25  29
ENDBRANCH  21  25
ENDBRANCH   1  22
TORSDOF 7
ENDMDL
