MODEL 1
REMARK VINA RESULT:      -7.3      0.000      0.000
REMARK  Name = 
REMARK  8 active torsions:
REMARK  status: ('A' for Active; 'I' for Inactive)
REMARK    1  A    between atoms: C_1  and  O_2
REMARK    2  A    between atoms: O_2  and  C_3
REMARK    3  A    between atoms: C_9  and  C_10
REMARK    4  A    between atoms: N_12  and  C_13
REMARK    5  A    between atoms: C_16  and  C_17
REMARK    6  A    between atoms: C_19  and  N_20
REMARK    7  A    between atoms: N_23  and  C_24
REMARK    8  A    between atoms: C_24  and  C_25
REMARK                            x       y       z     vdW  Elec       q    Type
REMARK                         _______ _______ _______ _____ _____    ______ ____
ROOT
ATOM      1  C   UNL     1      -0.032  13.742  18.918  0.00  0.00    +0.000 A 
ATOM      2  C   UNL     1      -0.118  15.125  18.785  0.00  0.00    +0.000 A 
ATOM      3  C   UNL     1       0.942  15.911  19.207  0.00  0.00    +0.000 A 
ATOM      4  C   UNL     1       2.059  15.282  19.741  0.00  0.00    +0.000 A 
ATOM      5  C   UNL     1       3.261  16.098  20.129  0.00  0.00    +0.000 C 
ATOM      6  N   UNL     1       2.153  13.932  19.887  0.00  0.00    +0.000 NA
ATOM      7  C   UNL     1       1.127  13.150  19.467  0.00  0.00    +0.000 A 
ENDROOT
BRANCH   7   8
ATOM      8  N   UNL     1       1.277  11.771  19.549  0.00  0.00    +0.000 N 
ATOM      9  C   UNL     1       0.945  11.013  20.762  0.00  0.00    +0.000 C 
ATOM     10  C   UNL     1       0.172   9.707  20.470  0.00  0.00    +0.000 C 
ATOM     11  N   UNL     1       0.728   8.870  19.386  0.00  0.00    +0.000 NA
ATOM     12  C   UNL     1       0.840   9.731  18.182  0.00  0.00    +0.000 C 
ATOM     13  C   UNL     1       1.673  11.021  18.356  0.00  0.00    +0.000 C 
BRANCH  11  14
ATOM     14  C   UNL     1       2.006   8.265  19.798  0.00  0.00    +0.000 C 
BRANCH  14  15
ATOM     15  C   UNL     1       2.077   6.769  19.575  0.00  0.00    +0.000 A 
ATOM     16  C   UNL     1       2.430   6.255  18.316  0.00  0.00    +0.000 A 
ATOM     17  C   UNL     1       2.484   4.878  18.105  0.00  0.00    +0.000 A 
ATOM     18  C   UNL     1       2.192   4.013  19.153  0.00  0.00    +0.000 A 
ATOM     19  F   UNL     1       2.240   2.690  18.947  0.00  0.00    +0.000 F 
ATOM     20  C   UNL     1       1.850   4.499  20.410  0.00  0.00    +0.000 A 
ATOM     21  C   UNL     1       1.793   5.877  20.622  0.00  0.00    +0.000 A 
ENDBRANCH  14  15
ENDBRANCH  11  14
ENDBRANCH   7   8
BRANCH   1  24
ATOM     22  C   UNL     1      -2.112  12.625  19.591  0.00  0.00    +0.000 C 
ATOM     23  O   UNL     1      -2.007  12.833  20.794  0.00  0.00    +0.000 OA
ATOM     24  N   UNL     1      -1.165  12.951  18.640  0.00  0.00    +0.000 N 
ATOM     25  H   UNL     1      -1.470  12.992  17.673  0.00  0.00    +0.000 HD
BRANCH  22  32
ATOM     26  C   UNL     1      -3.513  11.300  17.928  0.00  0.00    +0.000 A 
ATOM     27  N   UNL     1      -4.693  10.859  17.424  0.00  0.00    +0.000 NA
ATOM     28  C   UNL     1      -5.811  11.235  18.089  0.00  0.00    +0.000 A 
ATOM     29  C   UNL     1      -5.801  12.034  19.217  0.00  0.00    +0.000 A 
ATOM     30  F   UNL     1      -6.948  12.391  19.805  0.00  0.00    +0.000 F 
ATOM     31  C   UNL     1      -4.587  12.479  19.717  0.00  0.00    +0.000 A 
ATOM     32  C   UNL     1      -3.405  12.114  19.059  0.00  0.00    +0.000 A 
BRANCH  26  34
ATOM     33  C   UNL     1      -2.646  10.739  15.830  0.00  0.00    +0.000 C 
ATOM     34  O   UNL     1      -2.378  11.037  17.195  0.00  0.00    +0.000 OA
ENDBRANCH  26  34
ENDBRANCH  22  32
ENDBRANCH   1  24
TORSDOF 6
ENDMDL
MODEL 2
REMARK VINA RESULT:      -7.0      1.123      1.123
REMARK  Name = 
REMARK  8 active torsions:
REMARK  status: ('A' for Active; 'I' for Inactive)
REMARK    1  A    between atoms: C_1  and  O_2
REMARK    2  A    between atoms: O_2  and  C_3
REMARK    3  A    between atoms: C_9  and  C_10
REMARK    4  A    between atoms: N_12  and  C_13
REMARK    5  A    between atoms: C_16  and  C_17
REMARK    6  A    between atoms: C_19  and  N_20
REMARK    7  A    between atoms: N_23  and  C_24
REMARK    8  A    between atoms: C_24  and  C_25
REMARK                            x       y       z     vdW  Elec       q    Type
REMARK                         _______ _______ _______ _____ _____    ______ ____
ROOT
ATOM      1  C   UNL     1      -0.652  13.971  20.198  0.00  0.00    +0.000 A 
ATOM      2  C   UNL     1      -0.879  15.329  20.402  0.00  0.00    +0.000 A 
ATOM      3  C   UNL     1       0.002  16.049  21.194  0.00  0.00    +0.000 A 
ATOM      4  C   UNL     1       1.088  15.383  21.747  0.00  0.00    +0.000 A 
ATOM      5  C   UNL     1       2.109  16.151  22.540  0.00  0.00    +0.000 C 
ATOM      6  N   UNL     1       1.316  14.054  21.565  0.00  0.00    +0.000 NA
ATOM      7  C   UNL     1       0.468  13.340  20.783  0.00  0.00    +0.000 A 
ENDROOT
BRANCH   7   8
ATOM      8  N   UNL     1       0.766  12.004  20.542  0.00  0.00    +0.000 N 
ATOM      9  C   UNL     1       0.263  10.919  21.395  0.00  0.00    +0.000 C 
ATOM     10  C   UNL     1      -0.255   9.705  20.592  0.00  0.00    +0.000 C 
ATOM     11  N   UNL     1       0.631   9.238  19.505  0.00  0.00    +0.000 NA
ATOM     12  C   UNL     1       0.906  10.407  18.633  0.00  0.00    +0.000 C 
ATOM     13  C   UNL     1       1.511  11.642  19.336  0.00  0.00    +0.000 C 
BRANCH  11  14
ATOM     14  C   UNL     1       1.848   8.616  20.057  0.00  0.00    +0.000 C 
BRANCH  14  15
ATOM     15  C   UNL     1       2.023   7.163  19.669  0.00  0.00    +0.000 A 
ATOM     16  C   UNL     1       2.530   6.822  18.404  0.00  0.00    +0.000 A 
ATOM     17  C   UNL     1       2.681   5.484  18.041  0.00  0.00    +0.000 A 
ATOM     18  C   UNL     1       2.332   4.486  18.943  0.00  0.00    +0.000 A 
ATOM     19  F   UNL     1       2.474   3.202  18.590  0.00  0.00    +0.000 F 
ATOM     20  C   UNL     1       1.837   4.800  20.203  0.00  0.00    +0.000 A 
ATOM     21  C   UNL     1       1.683   6.138  20.568  0.00  0.00    +0.000 A 
ENDBRANCH  14  15
ENDBRANCH  11  14
ENDBRANCH   7   8
BRANCH   1  24
ATOM     22  C   UNL     1      -2.697  12.614  20.171  0.00  0.00    +0.000 C 
ATOM     23  O   UNL     1      -2.844  12.546  21.386  0.00  0.00    +0.000 OA
ATOM     24  N   UNL     1      -1.626  13.202  19.528  0.00  0.00    +0.000 N 
ATOM     25  H   UNL     1      -1.745  13.447  18.551  0.00  0.00    +0.000 HD
BRANCH  22  32
ATOM     26  C   UNL     1      -3.618  11.449  18.101  0.00  0.00    +0.000 A 
ATOM     27  N   UNL     1      -4.626  11.068  17.279  0.00  0.00    +0.000 NA
ATOM     28  C   UNL     1      -5.879  11.405  17.664  0.00  0.00    +0.000 A 
ATOM     29  C   UNL     1      -6.165  12.109  18.820  0.00  0.00    +0.000 A 
ATOM     30  F   UNL     1      -7.426  12.434  19.123  0.00  0.00    +0.000 F 
ATOM     31  C   UNL     1      -5.121  12.494  19.648  0.00  0.00    +0.000 A 
ATOM     32  C   UNL     1      -3.808  12.167  19.286  0.00  0.00    +0.000 A 
BRANCH  26  34
ATOM     33  C   UNL     1      -2.181  10.012  16.946  0.00  0.00    +0.000 C 
ATOM     34  O   UNL     1      -2.331  11.231  17.664  0.00  0.00    +0.000 OA
ENDBRANCH  26  34
ENDBRANCH  22  32
ENDBRANCH   1  24
TORSDOF 6
ENDMDL
MODEL 3
REMARK VINA RESULT:      -7.0      4.496     10.354
REMARK  Name = 
REMARK  8 active torsions:
REMARK  status: ('A' for Active; 'I' for Inactive)
REMARK    1  A    between atoms: C_1  and  O_2
REMARK    2  A    between atoms: O_2  and  C_3
REMARK    3  A    between atoms: C_9  and  C_10
REMARK    4  A    between atoms: N_12  and  C_13
REMARK    5  A    between atoms: C_16  and  C_17
REMARK    6  A    between atoms: C_19  and  N_20
REMARK    7  A    between atoms: N_23  and  C_24
REMARK    8  A    between atoms: C_24  and  C_25
REMARK                            x       y       z     vdW  Elec       q    Type
REMARK                         _______ _______ _______ _____ _____    ______ ____
ROOT
ATOM      1  C   UNL     1       3.207   3.802  18.920  0.00  0.00    +0.000 A 
ATOM      2  C   UNL     1       3.432   2.494  19.344  0.00  0.00    +0.000 A 
ATOM      3  C   UNL     1       2.811   2.042  20.497  0.00  0.00    +0.000 A 
ATOM      4  C   UNL     1       1.976   2.914  21.183  0.00  0.00    +0.000 A 
ATOM      5  C   UNL     1       1.220   2.429  22.389  0.00  0.00    +0.000 C 
ATOM      6  N   UNL     1       1.755   4.197  20.787  0.00  0.00    +0.000 NA
ATOM      7  C   UNL     1       2.348   4.649  19.654  0.00  0.00    +0.000 A 
ENDROOT
BRANCH   7   8
ATOM      8  N   UNL     1       2.043   5.935  19.222  0.00  0.00    +0.000 N 
ATOM      9  C   UNL     1       1.420   6.933  20.101  0.00  0.00    +0.000 C 
ATOM     10  C   UNL     1       2.059   8.335  19.977  0.00  0.00    +0.000 C 
ATOM     11  N   UNL     1       2.270   8.816  18.595  0.00  0.00    +0.000 NA
ATOM     12  C   UNL     1       3.061   7.779  17.887  0.00  0.00    +0.000 C 
ATOM     13  C   UNL     1       2.454   6.358  17.883  0.00  0.00    +0.000 C 
BRANCH  11  14
ATOM     14  C   UNL     1       0.982   9.117  17.946  0.00  0.00    +0.000 C 
BRANCH  14  15
ATOM     15  C   UNL     1       0.312  10.371  18.467  0.00  0.00    +0.000 A 
ATOM     16  C   UNL     1       1.075  11.516  18.752  0.00  0.00    +0.000 A 
ATOM     17  C   UNL     1       0.462  12.669  19.243  0.00  0.00    +0.000 A 
ATOM     18  C   UNL     1      -0.914  12.681  19.442  0.00  0.00    +0.000 A 
ATOM     19  F   UNL     1      -1.500  13.788  19.918  0.00  0.00    +0.000 F 
ATOM     20  C   UNL     1      -1.689  11.563  19.158  0.00  0.00    +0.000 A 
ATOM     21  C   UNL     1      -1.078  10.408  18.668  0.00  0.00    +0.000 A 
ENDBRANCH  14  15
ENDBRANCH  11  14
ENDBRANCH   7   8
BRANCH   1  24
ATOM     22  C   UNL     1       5.337   4.355  17.833  0.00  0.00    +0.000 C 
ATOM     23  O   UNL     1       6.060   4.111  18.792  0.00  0.00    +0.000 OA
ATOM     24  N   UNL     1       3.957   4.316  17.843  0.00  0.00    +0.000 N 
ATOM     25  H   UNL     1       3.485   4.258  16.947  0.00  0.00    +0.000 HD
BRANCH  22  32
ATOM     26  C   UNL     1       7.106   5.352  16.296  0.00  0.00    +0.000 A 
ATOM     27  N   UNL     1       7.658   5.579  15.078  0.00  0.00    +0.000 NA
ATOM     28  C   UNL     1       7.050   4.992  14.021  0.00  0.00    +0.000 A 
ATOM     29  C   UNL     1       5.918   4.204  14.126  0.00  0.00    +0.000 A 
ATOM     30  F   UNL     1       5.353   3.679  13.033  0.00  0.00    +0.000 F 
ATOM     31  C   UNL     1       5.364   3.985  15.378  0.00  0.00    +0.000 A 
ATOM     32  C   UNL     1       5.962   4.575  16.500  0.00  0.00    +0.000 A 
BRANCH  26  34
ATOM     33  C   UNL     1       7.308   7.429  17.352  0.00  0.00    +0.000 C 
ATOM     34  O   UNL     1       7.631   6.043  17.364  0.00  0.00    +0.000 OA
ENDBRANCH  26  34
ENDBRANCH  22  32
ENDBRANCH   1  24
TORSDOF 6
ENDMDL
MODEL 4
REMARK VINA RESULT:      -6.7      0.969      1.093
REMARK  Name = 
REMARK  8 active torsions:
REMARK  status: ('A' for Active; 'I' for Inactive)
REMARK    1  A    between atoms: C_1  and  O_2
REMARK    2  A    between atoms: O_2  and  C_3
REMARK    3  A    between atoms: C_9  and  C_10
REMARK    4  A    between atoms: N_12  and  C_13
REMARK    5  A    between atoms: C_16  and  C_17
REMARK    6  A    between atoms: C_19  and  N_20
REMARK    7  A    between atoms: N_23  and  C_24
REMARK    8  A    between atoms: C_24  and  C_25
REMARK                            x       y       z     vdW  Elec       q    Type
REMARK                         _______ _______ _______ _____ _____    ______ ____
ROOT
ATOM      1  C   UNL     1      -0.316  14.141  19.155  0.00  0.00    +0.000 A 
ATOM      2  C   UNL     1      -0.364  15.493  18.822  0.00  0.00    +0.000 A 
ATOM      3  C   UNL     1       0.789  16.255  18.922  0.00  0.00    +0.000 A 
ATOM      4  C   UNL     1       1.956  15.632  19.344  0.00  0.00    +0.000 A 
ATOM      5  C   UNL     1       3.243  16.409  19.382  0.00  0.00    +0.000 C 
ATOM      6  N   UNL     1       2.016  14.316  19.683  0.00  0.00    +0.000 NA
ATOM      7  C   UNL     1       0.897  13.556  19.579  0.00  0.00    +0.000 A 
ENDROOT
BRANCH   7   8
ATOM      8  N   UNL     1       0.999  12.196  19.849  0.00  0.00    +0.000 N 
ATOM      9  C   UNL     1       0.687  11.631  21.168  0.00  0.00    +0.000 C 
ATOM     10  C   UNL     1      -0.144  10.331  21.090  0.00  0.00    +0.000 C 
ATOM     11  N   UNL     1       0.337   9.327  20.117  0.00  0.00    +0.000 NA
ATOM     12  C   UNL     1       0.434  10.006  18.800  0.00  0.00    +0.000 C 
ATOM     13  C   UNL     1       1.320  11.271  18.762  0.00  0.00    +0.000 C 
BRANCH  11  14
ATOM     14  C   UNL     1       1.608   8.732  20.567  0.00  0.00    +0.000 C 
BRANCH  14  15
ATOM     15  C   UNL     1       1.910   7.387  19.942  0.00  0.00    +0.000 A 
ATOM     16  C   UNL     1       2.542   7.313  18.689  0.00  0.00    +0.000 A 
ATOM     17  C   UNL     1       2.812   6.075  18.107  0.00  0.00    +0.000 A 
ATOM     18  C   UNL     1       2.457   4.910  18.777  0.00  0.00    +0.000 A 
ATOM     19  F   UNL     1       2.712   3.723  18.212  0.00  0.00    +0.000 F 
ATOM     20  C   UNL     1       1.839   4.960  20.021  0.00  0.00    +0.000 A 
ATOM     21  C   UNL     1       1.567   6.197  20.605  0.00  0.00    +0.000 A 
ENDBRANCH  14  15
ENDBRANCH  11  14
ENDBRANCH   7   8
BRANCH   1  24
ATOM     22  C   UNL     1      -2.316  13.341  20.330  0.00  0.00    +0.000 C 
ATOM     23  O   UNL     1      -2.017  13.769  21.438  0.00  0.00    +0.000 OA
ATOM     24  N   UNL     1      -1.515  13.401  19.208  0.00  0.00    +0.000 N 
ATOM     25  H   UNL     1      -1.964  13.277  18.306  0.00  0.00    +0.000 HD
BRANCH  22  32
ATOM     26  C   UNL     1      -4.035  11.903  19.119  0.00  0.00    +0.000 A 
ATOM     27  N   UNL     1      -5.299  11.467  18.891  0.00  0.00    +0.000 NA
ATOM     28  C   UNL     1      -6.266  11.974  19.691  0.00  0.00    +0.000 A 
ATOM     29  C   UNL     1      -6.028  12.898  20.693  0.00  0.00    +0.000 A 
ATOM     30  F   UNL     1      -7.038  13.379  21.426  0.00  0.00    +0.000 F 
ATOM     31  C   UNL     1      -4.730  13.336  20.910  0.00  0.00    +0.000 A 
ATOM     32  C   UNL     1      -3.699  12.837  20.103  0.00  0.00    +0.000 A 
BRANCH  26  34
ATOM     33  C   UNL     1      -3.584  10.922  17.045  0.00  0.00    +0.000 C 
ATOM     34  O   UNL     1      -3.060  11.499  18.235  0.00  0.00    +0.000 OA
ENDBRANCH  26  34
ENDBRANCH  22  32
ENDBRANCH   1  24
TORSDOF 6
ENDMDL
MODEL 5
REMARK VINA RESULT:      -6.7      1.648      2.202
REMARK  Name = 
REMARK  8 active torsions:
REMARK  status: ('A' for Active; 'I' for Inactive)
REMARK    1  A    between atoms: C_1  and  O_2
REMARK    2  A    between atoms: O_2  and  C_3
REMARK    3  A    between atoms: C_9  and  C_10
REMARK    4  A    between atoms: N_12  and  C_13
REMARK    5  A    between atoms: C_16  and  C_17
REMARK    6  A    between atoms: C_19  and  N_20
REMARK    7  A    between atoms: N_23  and  C_24
REMARK    8  A    between atoms: C_24  and  C_25
REMARK                            x       y       z     vdW  Elec       q    Type
REMARK                         _______ _______ _______ _____ _____    ______ ____
ROOT
ATOM      1  C   UNL     1       0.407  13.275  19.093  0.00  0.00    +0.000 A 
ATOM      2  C   UNL     1       0.305  14.661  19.187  0.00  0.00    +0.000 A 
ATOM      3  C   UNL     1       1.065  15.331  20.133  0.00  0.00    +0.000 A 
ATOM      4  C   UNL     1       1.909  14.589  20.948  0.00  0.00    +0.000 A 
ATOM      5  C   UNL     1       2.809  15.291  21.926  0.00  0.00    +0.000 C 
ATOM      6  N   UNL     1       2.010  13.234  20.876  0.00  0.00    +0.000 NA
ATOM      7  C   UNL     1       1.281  12.566  19.946  0.00  0.00    +0.000 A 
ENDROOT
BRANCH   7   8
ATOM      8  N   UNL     1       1.462  11.192  19.833  0.00  0.00    +0.000 N 
ATOM      9  C   UNL     1       1.034  10.254  20.878  0.00  0.00    +0.000 C 
ATOM     10  C   UNL     1       0.330   8.998  20.315  0.00  0.00    +0.000 C 
ATOM     11  N   UNL     1       1.013   8.344  19.178  0.00  0.00    +0.000 NA
ATOM     12  C   UNL     1       1.218   9.381  18.136  0.00  0.00    +0.000 C 
ATOM     13  C   UNL     1       1.993  10.640  18.587  0.00  0.00    +0.000 C 
BRANCH  11  14
ATOM     14  C   UNL     1       2.262   7.700  19.621  0.00  0.00    +0.000 C 
BRANCH  14  15
ATOM     15  C   UNL     1       2.223   6.187  19.569  0.00  0.00    +0.000 A 
ATOM     16  C   UNL     1       2.536   5.511  18.378  0.00  0.00    +0.000 A 
ATOM     17  C   UNL     1       2.489   4.118  18.324  0.00  0.00    +0.000 A 
ATOM     18  C   UNL     1       2.138   3.400  19.461  0.00  0.00    +0.000 A 
ATOM     19  F   UNL     1       2.089   2.062  19.405  0.00  0.00    +0.000 F 
ATOM     20  C   UNL     1       1.834   4.048  20.653  0.00  0.00    +0.000 A 
ATOM     21  C   UNL     1       1.878   5.442  20.708  0.00  0.00    +0.000 A 
ENDBRANCH  14  15
ENDBRANCH  11  14
ENDBRANCH   7   8
BRANCH   1  24
ATOM     22  C   UNL     1      -1.619  11.946  18.699  0.00  0.00    +0.000 C 
ATOM     23  O   UNL     1      -1.915  11.778  19.877  0.00  0.00    +0.000 OA
ATOM     24  N   UNL     1      -0.477  12.575  18.246  0.00  0.00    +0.000 N 
ATOM     25  H   UNL     1      -0.474  12.902  17.286  0.00  0.00    +0.000 HD
BRANCH  22  32
ATOM     26  C   UNL     1      -3.992  11.753  17.793  0.00  0.00    +0.000 A 
ATOM     27  N   UNL     1      -4.898  11.395  16.851  0.00  0.00    +0.000 NA
ATOM     28  C   UNL     1      -4.404  10.860  15.710  0.00  0.00    +0.000 A 
ATOM     29  C   UNL     1      -3.055  10.659  15.477  0.00  0.00    +0.000 A 
ATOM     30  F   UNL     1      -2.640  10.096  14.337  0.00  0.00    +0.000 F 
ATOM     31  C   UNL     1      -2.142  11.027  16.453  0.00  0.00    +0.000 A 
ATOM     32  C   UNL     1      -2.611  11.585  17.650  0.00  0.00    +0.000 A 
BRANCH  26  34
ATOM     33  C   UNL     1      -5.769  11.659  19.309  0.00  0.00    +0.000 C 
ATOM     34  O   UNL     1      -4.480  12.178  19.008  0.00  0.00    +0.000 OA
ENDBRANCH  26  34
ENDBRANCH  22  32
ENDBRANCH   1  24
TORSDOF 6
ENDMDL
MODEL 6
REMARK VINA RESULT:      -6.6      1.649      2.321
REMARK  Name = 
REMARK  8 active torsions:
REMARK  status: ('A' for Active; 'I' for Inactive)
REMARK    1  A    between atoms: C_1  and  O_2
REMARK    2  A    between atoms: O_2  and  C_3
REMARK    3  A    between atoms: C_9  and  C_10
REMARK    4  A    between atoms: N_12  and  C_13
REMARK    5  A    between atoms: C_16  and  C_17
REMARK    6  A    between atoms: C_19  and  N_20
REMARK    7  A    between atoms: N_23  and  C_24
REMARK    8  A    between atoms: C_24  and  C_25
REMARK                            x       y       z     vdW  Elec       q    Type
REMARK                         _______ _______ _______ _____ _____    ______ ____
ROOT
ATOM      1  C   UNL     1      -0.384  13.997  19.216  0.00  0.00    +0.000 A 
ATOM      2  C   UNL     1      -0.474  15.338  18.852  0.00  0.00    +0.000 A 
ATOM      3  C   UNL     1       0.678  16.107  18.816  0.00  0.00    +0.000 A 
ATOM      4  C   UNL     1       1.886  15.502  19.137  0.00  0.00    +0.000 A 
ATOM      5  C   UNL     1       3.165  16.284  19.026  0.00  0.00    +0.000 C 
ATOM      6  N   UNL     1       1.988  14.196  19.506  0.00  0.00    +0.000 NA
ATOM      7  C   UNL     1       0.870  13.429  19.534  0.00  0.00    +0.000 A 
ENDROOT
BRANCH   7   8
ATOM      8  N   UNL     1       1.008  12.078  19.832  0.00  0.00    +0.000 N 
ATOM      9  C   UNL     1       0.832  11.549  21.190  0.00  0.00    +0.000 C 
ATOM     10  C   UNL     1       0.006  10.244  21.232  0.00  0.00    +0.000 C 
ATOM     11  N   UNL     1       0.395   9.215  20.245  0.00  0.00    +0.000 NA
ATOM     12  C   UNL     1       0.356   9.856  18.907  0.00  0.00    +0.000 C 
ATOM     13  C   UNL     1       1.225  11.123  18.744  0.00  0.00    +0.000 C 
BRANCH  11  14
ATOM     14  C   UNL     1       1.708   8.639  20.583  0.00  0.00    +0.000 C 
BRANCH  14  15
ATOM     15  C   UNL     1       1.960   7.282  19.961  0.00  0.00    +0.000 A 
ATOM     16  C   UNL     1       2.541   7.184  18.685  0.00  0.00    +0.000 A 
ATOM     17  C   UNL     1       2.764   5.935  18.106  0.00  0.00    +0.000 A 
ATOM     18  C   UNL     1       2.413   4.784  18.801  0.00  0.00    +0.000 A 
ATOM     19  F   UNL     1       2.624   3.586  18.240  0.00  0.00    +0.000 F 
ATOM     20  C   UNL     1       1.846   4.857  20.068  0.00  0.00    +0.000 A 
ATOM     21  C   UNL     1       1.620   6.105  20.650  0.00  0.00    +0.000 A 
ENDBRANCH  14  15
ENDBRANCH  11  14
ENDBRANCH   7   8
BRANCH   1  24
ATOM     22  C   UNL     1      -2.347  13.357  20.542  0.00  0.00    +0.000 C 
ATOM     23  O   UNL     1      -2.039  13.962  21.563  0.00  0.00    +0.000 OA
ATOM     24  N   UNL     1      -1.566  13.254  19.409  0.00  0.00    +0.000 N 
ATOM     25  H   UNL     1      -2.027  12.981  18.547  0.00  0.00    +0.000 HD
BRANCH  22  32
ATOM     26  C   UNL     1      -4.610  12.685  21.500  0.00  0.00    +0.000 A 
ATOM     27  N   UNL     1      -5.851  12.148  21.401  0.00  0.00    +0.000 NA
ATOM     28  C   UNL     1      -6.228  11.722  20.173  0.00  0.00    +0.000 A 
ATOM     29  C   UNL     1      -5.422  11.799  19.052  0.00  0.00    +0.000 A 
ATOM     30  F   UNL     1      -5.851  11.330  17.874  0.00  0.00    +0.000 F 
ATOM     31  C   UNL     1      -4.154  12.347  19.171  0.00  0.00    +0.000 A 
ATOM     32  C   UNL     1      -3.723  12.800  20.425  0.00  0.00    +0.000 A 
BRANCH  26  34
ATOM     33  C   UNL     1      -5.196  13.049  23.734  0.00  0.00    +0.000 C 
ATOM     34  O   UNL     1      -4.160  13.004  22.761  0.00  0.00    +0.000 OA
ENDBRANCH  26  34
ENDBRANCH  22  32
ENDBRANCH   1  24
TORSDOF 6
ENDMDL
MODEL 7
REMARK VINA RESULT:      -6.6      3.564      5.585
REMARK  Name = 
REMARK  8 active torsions:
REMARK  status: ('A' for Active; 'I' for Inactive)
REMARK    1  A    between atoms: C_1  and  O_2
REMARK    2  A    between atoms: O_2  and  C_3
REMARK    3  A    between atoms: C_9  and  C_10
REMARK    4  A    between atoms: N_12  and  C_13
REMARK    5  A    between atoms: C_16  and  C_17
REMARK    6  A    between atoms: C_19  and  N_20
REMARK    7  A    between atoms: N_23  and  C_24
REMARK    8  A    between atoms: C_24  and  C_25
REMARK                            x       y       z     vdW  Elec       q    Type
REMARK                         _______ _______ _______ _____ _____    ______ ____
ROOT
ATOM      1  C   UNL     1      -0.891  13.057  22.688  0.00  0.00    +0.000 A 
ATOM      2  C   UNL     1      -1.573  14.119  23.276  0.00  0.00    +0.000 A 
ATOM      3  C   UNL     1      -2.794  13.882  23.888  0.00  0.00    +0.000 A 
ATOM      4  C   UNL     1      -3.285  12.583  23.899  0.00  0.00    +0.000 A 
ATOM      5  C   UNL     1      -4.563  12.275  24.628  0.00  0.00    +0.000 C 
ATOM      6  N   UNL     1      -2.635  11.537  23.319  0.00  0.00    +0.000 NA
ATOM      7  C   UNL     1      -1.434  11.754  22.726  0.00  0.00    +0.000 A 
ENDROOT
BRANCH   7   8
ATOM      8  N   UNL     1      -0.747  10.659  22.214  0.00  0.00    +0.000 N 
ATOM      9  C   UNL     1      -0.654  10.393  20.773  0.00  0.00    +0.000 C 
ATOM     10  C   UNL     1       0.764   9.975  20.323  0.00  0.00    +0.000 C 
ATOM     11  N   UNL     1       1.415   8.942  21.157  0.00  0.00    +0.000 NA
ATOM     12  C   UNL     1       1.398   9.435  22.557  0.00  0.00    +0.000 C 
ATOM     13  C   UNL     1       0.006   9.796  23.123  0.00  0.00    +0.000 C 
BRANCH  11  14
ATOM     14  C   UNL     1       0.751   7.638  20.984  0.00  0.00    +0.000 C 
BRANCH  14  15
ATOM     15  C   UNL     1       1.635   6.578  20.363  0.00  0.00    +0.000 A 
ATOM     16  C   UNL     1       1.543   5.241  20.786  0.00  0.00    +0.000 A 
ATOM     17  C   UNL     1       2.365   4.264  20.223  0.00  0.00    +0.000 A 
ATOM     18  C   UNL     1       3.274   4.621  19.234  0.00  0.00    +0.000 A 
ATOM     19  F   UNL     1       4.065   3.682  18.699  0.00  0.00    +0.000 F 
ATOM     20  C   UNL     1       3.376   5.935  18.794  0.00  0.00    +0.000 A 
ATOM     21  C   UNL     1       2.556   6.914  19.357  0.00  0.00    +0.000 A 
ENDBRANCH  14  15
ENDBRANCH  11  14
ENDBRANCH   7   8
BRANCH   1  24
ATOM     22  C   UNL     1       0.235  13.885  20.670  0.00  0.00    +0.000 C 
ATOM     23  O   UNL     1      -0.777  14.073  20.004  0.00  0.00    +0.000 OA
ATOM     24  N   UNL     1       0.268  13.319  21.928  0.00  0.00    +0.000 N 
ATOM     25  H   UNL     1       1.102  13.469  22.486  0.00  0.00    +0.000 HD
BRANCH  22  32
ATOM     26  C   UNL     1       2.144  14.013  18.989  0.00  0.00    +0.000 A 
ATOM     27  N   UNL     1       3.340  14.481  18.554  0.00  0.00    +0.000 NA
ATOM     28  C   UNL     1       3.941  15.414  19.330  0.00  0.00    +0.000 A 
ATOM     29  C   UNL     1       3.409  15.885  20.516  0.00  0.00    +0.000 A 
ATOM     30  F   UNL     1       4.074  16.787  21.247  0.00  0.00    +0.000 F 
ATOM     31  C   UNL     1       2.187  15.393  20.948  0.00  0.00    +0.000 A 
ATOM     32  C   UNL     1       1.531  14.426  20.176  0.00  0.00    +0.000 A 
BRANCH  26  34
ATOM     33  C   UNL     1       2.511  11.951  17.949  0.00  0.00    +0.000 C 
ATOM     34  O   UNL     1       1.581  12.973  18.284  0.00  0.00    +0.000 OA
ENDBRANCH  26  34
ENDBRANCH  22  32
ENDBRANCH   1  24
TORSDOF 6
ENDMDL
MODEL 8
REMARK VINA RESULT:      -6.4      1.584      2.254
REMARK  Name = 
REMARK  8 active torsions:
REMARK  status: ('A' for Active; 'I' for Inactive)
REMARK    1  A    between atoms: C_1  and  O_2
REMARK    2  A    between atoms: O_2  and  C_3
REMARK    3  A    between atoms: C_9  and  C_10
REMARK    4  A    between atoms: N_12  and  C_13
REMARK    5  A    between atoms: C_16  and  C_17
REMARK    6  A    between atoms: C_19  and  N_20
REMARK    7  A    between atoms: N_23  and  C_24
REMARK    8  A    between atoms: C_24  and  C_25
REMARK                            x       y       z     vdW  Elec       q    Type
REMARK                         _______ _______ _______ _____ _____    ______ ____
ROOT
ATOM      1  C   UNL     1      -0.295  13.852  19.998  0.00  0.00    +0.000 A 
ATOM      2  C   UNL     1      -0.426  15.235  20.098  0.00  0.00    +0.000 A 
ATOM      3  C   UNL     1       0.475  15.944  20.877  0.00  0.00    +0.000 A 
ATOM      4  C   UNL     1       1.485  15.243  21.521  0.00  0.00    +0.000 A 
ATOM      5  C   UNL     1       2.530  15.990  22.303  0.00  0.00    +0.000 C 
ATOM      6  N   UNL     1       1.620  13.892  21.440  0.00  0.00    +0.000 NA
ATOM      7  C   UNL     1       0.752  13.186  20.673  0.00  0.00    +0.000 A 
ENDROOT
BRANCH   7   8
ATOM      8  N   UNL     1       0.957  11.818  20.537  0.00  0.00    +0.000 N 
ATOM      9  C   UNL     1       0.529  10.853  21.558  0.00  0.00    +0.000 C 
ATOM     10  C   UNL     1      -0.144   9.597  20.961  0.00  0.00    +0.000 C 
ATOM     11  N   UNL     1       0.568   8.975  19.824  0.00  0.00    +0.000 NA
ATOM     12  C   UNL     1       0.772  10.035  18.804  0.00  0.00    +0.000 C 
ATOM     13  C   UNL     1       1.518  11.298  19.290  0.00  0.00    +0.000 C 
BRANCH  11  14
ATOM     14  C   UNL     1       1.820   8.344  20.275  0.00  0.00    +0.000 C 
BRANCH  14  15
ATOM     15  C   UNL     1       2.031   6.946  19.733  0.00  0.00    +0.000 A 
ATOM     16  C   UNL     1       1.719   5.825  20.521  0.00  0.00    +0.000 A 
ATOM     17  C   UNL     1       1.924   4.537  20.028  0.00  0.00    +0.000 A 
ATOM     18  C   UNL     1       2.434   4.367  18.746  0.00  0.00    +0.000 A 
ATOM     19  F   UNL     1       2.634   3.128  18.277  0.00  0.00    +0.000 F 
ATOM     20  C   UNL     1       2.741   5.461  17.945  0.00  0.00    +0.000 A 
ATOM     21  C   UNL     1       2.538   6.751  18.437  0.00  0.00    +0.000 A 
ENDBRANCH  14  15
ENDBRANCH  11  14
ENDBRANCH   7   8
BRANCH   1  24
ATOM     22  C   UNL     1      -2.394  12.582  19.990  0.00  0.00    +0.000 C 
ATOM     23  O   UNL     1      -2.549  12.546  21.206  0.00  0.00    +0.000 OA
ATOM     24  N   UNL     1      -1.297  13.110  19.341  0.00  0.00    +0.000 N 
ATOM     25  H   UNL     1      -1.402  13.338  18.358  0.00  0.00    +0.000 HD
BRANCH  22  32
ATOM     26  C   UNL     1      -4.866  12.392  19.405  0.00  0.00    +0.000 A 
ATOM     27  N   UNL     1      -5.893  11.982  18.620  0.00  0.00    +0.000 NA
ATOM     28  C   UNL     1      -5.559  11.324  17.485  0.00  0.00    +0.000 A 
ATOM     29  C   UNL     1      -4.256  11.052  17.110  0.00  0.00    +0.000 A 
ATOM     30  F   UNL     1      -4.001  10.370  15.987  0.00  0.00    +0.000 F 
ATOM     31  C   UNL     1      -3.218  11.476  17.926  0.00  0.00    +0.000 A 
ATOM     32  C   UNL     1      -3.519  12.161  19.111  0.00  0.00    +0.000 A 
BRANCH  26  34
ATOM     33  C   UNL     1      -5.746  14.250  20.519  0.00  0.00    +0.000 C 
ATOM     34  O   UNL     1      -5.187  12.947  20.624  0.00  0.00    +0.000 OA
ENDBRANCH  26  34
ENDBRANCH  22  32
ENDBRANCH   1  24
TORSDOF 6
ENDMDL
MODEL 9
REMARK VINA RESULT:      -6.4      1.757      2.455
REMARK  Name = 
REMARK  8 active torsions:
REMARK  status: ('A' for Active; 'I' for Inactive)
REMARK    1  A    between atoms: C_1  and  O_2
REMARK    2  A    between atoms: O_2  and  C_3
REMARK    3  A    between atoms: C_9  and  C_10
REMARK    4  A    between atoms: N_12  and  C_13
REMARK    5  A    between atoms: C_16  and  C_17
REMARK    6  A    between atoms: C_19  and  N_20
REMARK    7  A    between atoms: N_23  and  C_24
REMARK    8  A    between atoms: C_24  and  C_25
REMARK                            x       y       z     vdW  Elec       q    Type
REMARK                         _______ _______ _______ _____ _____    ______ ____
ROOT
ATOM      1  C   UNL     1       0.099  13.742  20.414  0.00  0.00    +0.000 A 
ATOM      2  C   UNL     1       0.058  15.122  20.600  0.00  0.00    +0.000 A 
ATOM      3  C   UNL     1       1.095  15.743  21.278  0.00  0.00    +0.000 A 
ATOM      4  C   UNL     1       2.144  14.960  21.739  0.00  0.00    +0.000 A 
ATOM      5  C   UNL     1       3.326  15.612  22.403  0.00  0.00    +0.000 C 
ATOM      6  N   UNL     1       2.193  13.610  21.575  0.00  0.00    +0.000 NA
ATOM      7  C   UNL     1       1.190  12.991  20.903  0.00  0.00    +0.000 A 
ENDROOT
BRANCH   7   8
ATOM      8  N   UNL     1       1.300  11.624  20.674  0.00  0.00    +0.000 N 
ATOM      9  C   UNL     1       0.735  10.625  21.589  0.00  0.00    +0.000 C 
ATOM     10  C   UNL     1       0.009   9.473  20.858  0.00  0.00    +0.000 C 
ATOM     11  N   UNL     1       0.743   8.882  19.719  0.00  0.00    +0.000 NA
ATOM     12  C   UNL     1       1.092   9.993  18.799  0.00  0.00    +0.000 C 
ATOM     13  C   UNL     1       1.898  11.153  19.424  0.00  0.00    +0.000 C 
BRANCH  11  14
ATOM     14  C   UNL     1       1.912   8.120  20.192  0.00  0.00    +0.000 C 
BRANCH  14  15
ATOM     15  C   UNL     1       1.946   6.686  19.709  0.00  0.00    +0.000 A 
ATOM     16  C   UNL     1       1.564   5.640  20.565  0.00  0.00    +0.000 A 
ATOM     17  C   UNL     1       1.605   4.317  20.126  0.00  0.00    +0.000 A 
ATOM     18  C   UNL     1       2.022   4.038  18.829  0.00  0.00    +0.000 A 
ATOM     19  F   UNL     1       2.065   2.767  18.411  0.00  0.00    +0.000 F 
ATOM     20  C   UNL     1       2.395   5.058  17.962  0.00  0.00    +0.000 A 
ATOM     21  C   UNL     1       2.356   6.383  18.400  0.00  0.00    +0.000 A 
ENDBRANCH  14  15
ENDBRANCH  11  14
ENDBRANCH   7   8
BRANCH   1  24
ATOM     22  C   UNL     1      -1.209  12.908  18.513  0.00  0.00    +0.000 C 
ATOM     23  O   UNL     1      -0.532  13.423  17.631  0.00  0.00    +0.000 OA
ATOM     24  N   UNL     1      -1.024  13.087  19.869  0.00  0.00    +0.000 N 
ATOM     25  H   UNL     1      -1.448  12.407  20.492  0.00  0.00    +0.000 HD
BRANCH  22  32
ATOM     26  C   UNL     1      -3.492  11.799  18.728  0.00  0.00    +0.000 A 
ATOM     27  N   UNL     1      -4.411  10.855  18.406  0.00  0.00    +0.000 NA
ATOM     28  C   UNL     1      -4.059   9.976  17.438  0.00  0.00    +0.000 A 
ATOM     29  C   UNL     1      -2.836   9.992  16.793  0.00  0.00    +0.000 A 
ATOM     30  F   UNL     1      -2.544   9.072  15.867  0.00  0.00    +0.000 F 
ATOM     31  C   UNL     1      -1.906  10.962  17.137  0.00  0.00    +0.000 A 
ATOM     32  C   UNL     1      -2.230  11.892  18.134  0.00  0.00    +0.000 A 
BRANCH  26  34
ATOM     33  C   UNL     1      -5.167  12.674  20.105  0.00  0.00    +0.000 C 
ATOM     34  O   UNL     1      -3.780  12.619  19.795  0.00  0.00    +0.000 OA
ENDBRANCH  26  34
ENDBRANCH  22  32
ENDBRANCH   1  24
TORSDOF 6
ENDMDL
