MODEL 1
REMARK VINA RESULT:      -7.9      0.000      0.000
REMARK  Name = 
REMARK  11 active torsions:
REMARK  status: ('A' for Active; 'I' for Inactive)
REMARK    1  A    between atoms: C_1  and  O_2
REMARK    2  A    between atoms: O_2  and  C_3
REMARK    3  A    between atoms: C_6  and  C_7
REMARK    4  A    between atoms: C_7  and  N_8
REMARK    5  A    between atoms: C_9  and  C_11
REMARK    6  A    between atoms: C_11  and  O_12
REMARK    7  A    between atoms: O_12  and  C_13
REMARK    8  A    between atoms: C_13  and  C_15
REMARK    9  A    between atoms: C_15  and  C_16
REMARK   10  A    between atoms: C_16  and  C_17
REMARK   11  A    between atoms: C_19  and  O_20
REMARK                            x       y       z     vdW  Elec       q    Type
REMARK                         _______ _______ _______ _____ _____    ______ ____
ROOT
ATOM      1  C   UNL     1       2.853   2.700  20.787  0.00  0.00    +0.000 C 
ATOM      2  O   UNL     1       2.802   2.441  21.985  0.00  0.00    +0.000 OA
ENDROOT
BRANCH   1   3
ATOM      3  O   UNL     1       1.791   3.145  20.066  0.00  0.00    +0.000 OA
BRANCH   3   4
ATOM      4  C   UNL     1       1.146   4.290  20.628  0.00  0.00    +0.000 C 
BRANCH   4   6
ATOM      5  N   UNL     1       1.438   6.709  20.988  0.00  0.00    +0.000 N 
ATOM      6  C   UNL     1       1.676   5.650  20.139  0.00  0.00    +0.000 C 
ATOM      7  O   UNL     1       2.215   5.794  19.038  0.00  0.00    +0.000 OA
ATOM      8  H   UNL     1       1.119   6.530  21.931  0.00  0.00    +0.000 HD
BRANCH   5   9
ATOM      9  C   UNL     1       1.779   8.076  20.639  0.00  0.00    +0.000 C 
BRANCH   9  13
ATOM     10  C   UNL     1      -0.965  10.983  22.316  0.00  0.00    +0.000 A 
ATOM     11  C   UNL     1      -0.649  10.998  20.957  0.00  0.00    +0.000 A 
ATOM     12  C   UNL     1       0.242  10.063  20.421  0.00  0.00    +0.000 A 
ATOM     13  C   UNL     1       0.850   9.103  21.238  0.00  0.00    +0.000 A 
ATOM     14  C   UNL     1       0.551   9.111  22.609  0.00  0.00    +0.000 A 
ATOM     15  C   UNL     1      -0.354  10.042  23.144  0.00  0.00    +0.000 A 
BRANCH  10  17
ATOM     16  C   UNL     1      -1.285  13.213  23.057  0.00  0.00    +0.000 C 
ATOM     17  O   UNL     1      -1.844  11.952  22.713  0.00  0.00    +0.000 OA
ENDBRANCH  10  17
ENDBRANCH   9  13
ENDBRANCH   5   9
ENDBRANCH   4   6
ENDBRANCH   3   4
ENDBRANCH   1   3
BRANCH   1  18
ATOM     18  C   UNL     1       4.069   2.385  19.939  0.00  0.00    +0.000 C 
BRANCH  18  19
ATOM     19  C   UNL     1       4.004   2.729  18.448  0.00  0.00    +0.000 C 
BRANCH  19  20
ATOM     20  C   UNL     1       4.854   3.904  18.039  0.00  0.00    +0.000 A 
ATOM     21  N   UNL     1       4.577   4.476  16.865  0.00  0.00    +0.000 NA
ATOM     22  C   UNL     1       5.295   5.559  16.565  0.00  0.00    +0.000 A 
ATOM     23  C   UNL     1       6.265   6.126  17.368  0.00  0.00    +0.000 A 
ATOM     24  C   UNL     1       6.933   7.335  17.072  0.00  0.00    +0.000 A 
ATOM     25  C   UNL     1       7.961   7.782  17.891  0.00  0.00    +0.000 A 
ATOM     26  C   UNL     1       8.347   7.001  18.975  0.00  0.00    +0.000 A 
ATOM     27  C   UNL     1       7.649   5.821  19.274  0.00  0.00    +0.000 A 
ATOM     28  C   UNL     1       6.568   5.383  18.507  0.00  0.00    +0.000 A 
ATOM     29  N   UNL     1       5.863   4.284  18.851  0.00  0.00    +0.000 NA
BRANCH  22  30
ATOM     30  O   UNL     1       5.066   6.031  15.309  0.00  0.00    +0.000 OA
ATOM     31  H   UNL     1       4.829   5.199  14.836  0.00  0.00    +0.000 HD
ENDBRANCH  22  30
ENDBRANCH  19  20
ENDBRANCH  18  19
ENDBRANCH   1  18
TORSDOF 10
ENDMDL
MODEL 2
REMARK VINA RESULT:      -7.8      1.085      1.431
REMARK  Name = 
REMARK  11 active torsions:
REMARK  status: ('A' for Active; 'I' for Inactive)
REMARK    1  A    between atoms: C_1  and  O_2
REMARK    2  A    between atoms: O_2  and  C_3
REMARK    3  A    between atoms: C_6  and  C_7
REMARK    4  A    between atoms: C_7  and  N_8
REMARK    5  A    between atoms: C_9  and  C_11
REMARK    6  A    between atoms: C_11  and  O_12
REMARK    7  A    between atoms: O_12  and  C_13
REMARK    8  A    between atoms: C_13  and  C_15
REMARK    9  A    between atoms: C_15  and  C_16
REMARK   10  A    between atoms: C_16  and  C_17
REMARK   11  A    between atoms: C_19  and  O_20
REMARK                            x       y       z     vdW  Elec       q    Type
REMARK                         _______ _______ _______ _____ _____    ______ ____
ROOT
ATOM      1  C   UNL     1       1.381   3.627  18.916  0.00  0.00    +0.000 C 
ATOM      2  O   UNL     1       1.269   4.309  17.903  0.00  0.00    +0.000 OA
ENDROOT
BRANCH   1   3
ATOM      3  O   UNL     1       1.065   4.069  20.162  0.00  0.00    +0.000 OA
BRANCH   3   4
ATOM      4  C   UNL     1       2.109   4.816  20.793  0.00  0.00    +0.000 C 
BRANCH   4   6
ATOM      5  N   UNL     1       1.522   7.208  20.826  0.00  0.00    +0.000 N 
ATOM      6  C   UNL     1       2.318   6.241  20.251  0.00  0.00    +0.000 C 
ATOM      7  O   UNL     1       3.094   6.490  19.323  0.00  0.00    +0.000 OA
ATOM      8  H   UNL     1       1.003   6.991  21.667  0.00  0.00    +0.000 HD
BRANCH   5   9
ATOM      9  C   UNL     1       1.517   8.584  20.366  0.00  0.00    +0.000 C 
BRANCH   9  13
ATOM     10  C   UNL     1      -0.946  11.227  22.762  0.00  0.00    +0.000 A 
ATOM     11  C   UNL     1      -0.363  11.673  21.575  0.00  0.00    +0.000 A 
ATOM     12  C   UNL     1       0.437  10.820  20.809  0.00  0.00    +0.000 A 
ATOM     13  C   UNL     1       0.684   9.505  21.223  0.00  0.00    +0.000 A 
ATOM     14  C   UNL     1       0.119   9.072  22.432  0.00  0.00    +0.000 A 
ATOM     15  C   UNL     1      -0.695   9.926  23.194  0.00  0.00    +0.000 A 
BRANCH  10  17
ATOM     16  C   UNL     1      -1.296  13.516  23.275  0.00  0.00    +0.000 C 
ATOM     17  O   UNL     1      -1.699  12.161  23.418  0.00  0.00    +0.000 OA
ENDBRANCH  10  17
ENDBRANCH   9  13
ENDBRANCH   5   9
ENDBRANCH   4   6
ENDBRANCH   3   4
ENDBRANCH   1   3
BRANCH   1  18
ATOM     18  C   UNL     1       2.050   2.266  18.911  0.00  0.00    +0.000 C 
BRANCH  18  19
ATOM     19  C   UNL     1       3.526   2.199  19.314  0.00  0.00    +0.000 C 
BRANCH  19  20
ATOM     20  C   UNL     1       4.418   3.173  18.589  0.00  0.00    +0.000 A 
ATOM     21  N   UNL     1       4.285   3.248  17.263  0.00  0.00    +0.000 NA
ATOM     22  C   UNL     1       5.033   4.172  16.658  0.00  0.00    +0.000 A 
ATOM     23  C   UNL     1       5.899   5.044  17.290  0.00  0.00    +0.000 A 
ATOM     24  C   UNL     1       6.596   6.083  16.635  0.00  0.00    +0.000 A 
ATOM     25  C   UNL     1       7.517   6.851  17.334  0.00  0.00    +0.000 A 
ATOM     26  C   UNL     1       7.770   6.553  18.669  0.00  0.00    +0.000 A 
ATOM     27  C   UNL     1       7.042   5.540  19.311  0.00  0.00    +0.000 A 
ATOM     28  C   UNL     1       6.062   4.797  18.652  0.00  0.00    +0.000 A 
ATOM     29  N   UNL     1       5.322   3.876  19.304  0.00  0.00    +0.000 NA
BRANCH  22  30
ATOM     30  O   UNL     1       4.957   4.128  15.299  0.00  0.00    +0.000 OA
ATOM     31  H   UNL     1       3.992   4.277  15.160  0.00  0.00    +0.000 HD
ENDBRANCH  22  30
ENDBRANCH  19  20
ENDBRANCH  18  19
ENDBRANCH   1  18
TORSDOF 10
ENDMDL
MODEL 3
REMARK VINA RESULT:      -7.7      4.413      8.456
REMARK  Name = 
REMARK  11 active torsions:
REMARK  status: ('A' for Active; 'I' for Inactive)
REMARK    1  A    between atoms: C_1  and  O_2
REMARK    2  A    between atoms: O_2  and  C_3
REMARK    3  A    between atoms: C_6  and  C_7
REMARK    4  A    between atoms: C_7  and  N_8
REMARK    5  A    between atoms: C_9  and  C_11
REMARK    6  A    between atoms: C_11  and  O_12
REMARK    7  A    between atoms: O_12  and  C_13
REMARK    8  A    between atoms: C_13  and  C_15
REMARK    9  A    between atoms: C_15  and  C_16
REMARK   10  A    between atoms: C_16  and  C_17
REMARK   11  A    between atoms: C_19  and  O_20
REMARK                            x       y       z     vdW  Elec       q    Type
REMARK                         _______ _______ _______ _____ _____    ______ ____
ROOT
ATOM      1  C   UNL     1       6.884   5.499  17.116  0.00  0.00    +0.000 C 
ATOM      2  O   UNL     1       6.540   5.450  18.293  0.00  0.00    +0.000 OA
ENDROOT
BRANCH   1   3
ATOM      3  O   UNL     1       7.549   6.549  16.567  0.00  0.00    +0.000 OA
BRANCH   3   4
ATOM      4  C   UNL     1       7.210   7.814  17.142  0.00  0.00    +0.000 C 
BRANCH   4   6
ATOM      5  N   UNL     1       8.441   9.668  18.196  0.00  0.00    +0.000 N 
ATOM      6  C   UNL     1       8.169   8.318  18.235  0.00  0.00    +0.000 C 
ATOM      7  O   UNL     1       8.708   7.558  19.046  0.00  0.00    +0.000 OA
ATOM      8  H   UNL     1       7.882  10.273  17.609  0.00  0.00    +0.000 HD
BRANCH   5   9
ATOM      9  C   UNL     1       9.401  10.294  19.087  0.00  0.00    +0.000 C 
BRANCH   9  13
ATOM     10  C   UNL     1      11.321  13.816  17.447  0.00  0.00    +0.000 A 
ATOM     11  C   UNL     1       9.943  13.636  17.337  0.00  0.00    +0.000 A 
ATOM     12  C   UNL     1       9.327  12.496  17.861  0.00  0.00    +0.000 A 
ATOM     13  C   UNL     1      10.083  11.500  18.492  0.00  0.00    +0.000 A 
ATOM     14  C   UNL     1      11.473  11.672  18.574  0.00  0.00    +0.000 A 
ATOM     15  C   UNL     1      12.088  12.825  18.058  0.00  0.00    +0.000 A 
BRANCH  10  17
ATOM     16  C   UNL     1      11.059  16.155  17.155  0.00  0.00    +0.000 C 
ATOM     17  O   UNL     1      11.798  14.970  16.889  0.00  0.00    +0.000 OA
ENDBRANCH  10  17
ENDBRANCH   9  13
ENDBRANCH   5   9
ENDBRANCH   4   6
ENDBRANCH   3   4
ENDBRANCH   1   3
BRANCH   1  18
ATOM     18  C   UNL     1       6.449   4.462  16.099  0.00  0.00    +0.000 C 
BRANCH  18  19
ATOM     19  C   UNL     1       4.948   4.323  15.824  0.00  0.00    +0.000 C 
BRANCH  19  20
ATOM     20  C   UNL     1       4.152   3.751  16.968  0.00  0.00    +0.000 A 
ATOM     21  N   UNL     1       4.376   2.475  17.287  0.00  0.00    +0.000 NA
ATOM     22  C   UNL     1       3.713   2.020  18.351  0.00  0.00    +0.000 A 
ATOM     23  C   UNL     1       2.849   2.759  19.136  0.00  0.00    +0.000 A 
ATOM     24  C   UNL     1       2.246   2.281  20.320  0.00  0.00    +0.000 A 
ATOM     25  C   UNL     1       1.317   3.063  20.993  0.00  0.00    +0.000 A 
ATOM     26  C   UNL     1       0.963   4.298  20.461  0.00  0.00    +0.000 A 
ATOM     27  C   UNL     1       1.600   4.772  19.304  0.00  0.00    +0.000 A 
ATOM     28  C   UNL     1       2.585   4.036  18.644  0.00  0.00    +0.000 A 
ATOM     29  N   UNL     1       3.237   4.539  17.574  0.00  0.00    +0.000 NA
BRANCH  22  30
ATOM     30  O   UNL     1       3.876   0.685  18.562  0.00  0.00    +0.000 OA
ATOM     31  H   UNL     1       4.298   0.686  19.454  0.00  0.00    +0.000 HD
ENDBRANCH  22  30
ENDBRANCH  19  20
ENDBRANCH  18  19
ENDBRANCH   1  18
TORSDOF 10
ENDMDL
MODEL 4
REMARK VINA RESULT:      -7.7      1.959      7.754
REMARK  Name = 
REMARK  11 active torsions:
REMARK  status: ('A' for Active; 'I' for Inactive)
REMARK    1  A    between atoms: C_1  and  O_2
REMARK    2  A    between atoms: O_2  and  C_3
REMARK    3  A    between atoms: C_6  and  C_7
REMARK    4  A    between atoms: C_7  and  N_8
REMARK    5  A    between atoms: C_9  and  C_11
REMARK    6  A    between atoms: C_11  and  O_12
REMARK    7  A    between atoms: O_12  and  C_13
REMARK    8  A    between atoms: C_13  and  C_15
REMARK    9  A    between atoms: C_15  and  C_16
REMARK   10  A    between atoms: C_16  and  C_17
REMARK   11  A    between atoms: C_19  and  O_20
REMARK                            x       y       z     vdW  Elec       q    Type
REMARK                         _______ _______ _______ _____ _____    ______ ____
ROOT
ATOM      1  C   UNL     1       2.714   4.685  20.528  0.00  0.00    +0.000 C 
ATOM      2  O   UNL     1       3.902   4.729  20.223  0.00  0.00    +0.000 OA
ENDROOT
BRANCH   1   3
ATOM      3  O   UNL     1       1.999   3.533  20.613  0.00  0.00    +0.000 OA
BRANCH   3   4
ATOM      4  C   UNL     1       1.048   3.362  19.558  0.00  0.00    +0.000 C 
BRANCH   4   6
ATOM      5  N   UNL     1       2.858   3.057  17.916  0.00  0.00    +0.000 N 
ATOM      6  C   UNL     1       1.598   3.571  18.136  0.00  0.00    +0.000 C 
ATOM      7  O   UNL     1       0.984   4.209  17.275  0.00  0.00    +0.000 OA
ATOM      8  H   UNL     1       3.267   2.430  18.596  0.00  0.00    +0.000 HD
BRANCH   5   9
ATOM      9  C   UNL     1       3.568   3.252  16.665  0.00  0.00    +0.000 C 
BRANCH   9  13
ATOM     10  C   UNL     1       6.686   6.260  16.784  0.00  0.00    +0.000 A 
ATOM     11  C   UNL     1       6.986   4.930  16.488  0.00  0.00    +0.000 A 
ATOM     12  C   UNL     1       5.979   3.961  16.458  0.00  0.00    +0.000 A 
ATOM     13  C   UNL     1       4.650   4.300  16.741  0.00  0.00    +0.000 A 
ATOM     14  C   UNL     1       4.359   5.633  17.067  0.00  0.00    +0.000 A 
ATOM     15  C   UNL     1       5.370   6.608  17.084  0.00  0.00    +0.000 A 
BRANCH  10  17
ATOM     16  C   UNL     1       7.664   8.253  17.618  0.00  0.00    +0.000 C 
ATOM     17  O   UNL     1       7.761   7.105  16.787  0.00  0.00    +0.000 OA
ENDBRANCH  10  17
ENDBRANCH   9  13
ENDBRANCH   5   9
ENDBRANCH   4   6
ENDBRANCH   3   4
ENDBRANCH   1   3
BRANCH   1  18
ATOM     18  C   UNL     1       1.867   5.934  20.676  0.00  0.00    +0.000 C 
BRANCH  18  19
ATOM     19  C   UNL     1       2.179   7.118  19.756  0.00  0.00    +0.000 C 
BRANCH  19  20
ATOM     20  C   UNL     1       1.419   8.378  20.077  0.00  0.00    +0.000 A 
ATOM     21  N   UNL     1       1.318   9.291  19.108  0.00  0.00    +0.000 NA
ATOM     22  C   UNL     1       0.576  10.361  19.397  0.00  0.00    +0.000 A 
ATOM     23  C   UNL     1      -0.092  10.578  20.586  0.00  0.00    +0.000 A 
ATOM     24  C   UNL     1      -0.958  11.668  20.823  0.00  0.00    +0.000 A 
ATOM     25  C   UNL     1      -1.514  11.856  22.081  0.00  0.00    +0.000 A 
ATOM     26  C   UNL     1      -1.170  10.983  23.107  0.00  0.00    +0.000 A 
ATOM     27  C   UNL     1      -0.337   9.884  22.844  0.00  0.00    +0.000 A 
ATOM     28  C   UNL     1       0.182   9.633  21.574  0.00  0.00    +0.000 A 
ATOM     29  N   UNL     1       0.922   8.533  21.323  0.00  0.00    +0.000 NA
BRANCH  22  30
ATOM     30  O   UNL     1       0.606  11.319  18.430  0.00  0.00    +0.000 OA
ATOM     31  H   UNL     1       1.338  11.893  18.757  0.00  0.00    +0.000 HD
ENDBRANCH  22  30
ENDBRANCH  19  20
ENDBRANCH  18  19
ENDBRANCH   1  18
TORSDOF 10
ENDMDL
MODEL 5
REMARK VINA RESULT:      -7.5      5.015      7.847
REMARK  Name = 
REMARK  11 active torsions:
REMARK  status: ('A' for Active; 'I' for Inactive)
REMARK    1  A    between atoms: C_1  and  O_2
REMARK    2  A    between atoms: O_2  and  C_3
REMARK    3  A    between atoms: C_6  and  C_7
REMARK    4  A    between atoms: C_7  and  N_8
REMARK    5  A    between atoms: C_9  and  C_11
REMARK    6  A    between atoms: C_11  and  O_12
REMARK    7  A    between atoms: O_12  and  C_13
REMARK    8  A    between atoms: C_13  and  C_15
REMARK    9  A    between atoms: C_15  and  C_16
REMARK   10  A    between atoms: C_16  and  C_17
REMARK   11  A    between atoms: C_19  and  O_20
REMARK                            x       y       z     vdW  Elec       q    Type
REMARK                         _______ _______ _______ _____ _____    ______ ____
ROOT
ATOM      1  C   UNL     1       8.001   7.832  17.920  0.00  0.00    +0.000 C 
ATOM      2  O   UNL     1       8.364   7.035  18.779  0.00  0.00    +0.000 OA
ENDROOT
BRANCH   1   3
ATOM      3  O   UNL     1       7.432   7.465  16.742  0.00  0.00    +0.000 OA
BRANCH   3   4
ATOM      4  C   UNL     1       6.636   6.280  16.826  0.00  0.00    +0.000 C 
BRANCH   4   6
ATOM      5  N   UNL     1       4.333   7.080  17.172  0.00  0.00    +0.000 N 
ATOM      6  C   UNL     1       5.389   6.387  17.722  0.00  0.00    +0.000 C 
ATOM      7  O   UNL     1       5.360   5.942  18.873  0.00  0.00    +0.000 OA
ATOM      8  H   UNL     1       4.346   7.309  16.186  0.00  0.00    +0.000 HD
BRANCH   5   9
ATOM      9  C   UNL     1       3.118   7.363  17.914  0.00  0.00    +0.000 C 
BRANCH   9  13
ATOM     10  C   UNL     1       1.309   3.925  19.835  0.00  0.00    +0.000 A 
ATOM     11  C   UNL     1       1.730   5.023  20.584  0.00  0.00    +0.000 A 
ATOM     12  C   UNL     1       2.320   6.128  19.962  0.00  0.00    +0.000 A 
ATOM     13  C   UNL     1       2.517   6.148  18.576  0.00  0.00    +0.000 A 
ATOM     14  C   UNL     1       2.119   5.028  17.831  0.00  0.00    +0.000 A 
ATOM     15  C   UNL     1       1.514   3.925  18.456  0.00  0.00    +0.000 A 
BRANCH  10  17
ATOM     16  C   UNL     1       1.479   2.481  21.709  0.00  0.00    +0.000 C 
ATOM     17  O   UNL     1       0.754   2.910  20.564  0.00  0.00    +0.000 OA
ENDBRANCH  10  17
ENDBRANCH   9  13
ENDBRANCH   5   9
ENDBRANCH   4   6
ENDBRANCH   3   4
ENDBRANCH   1   3
BRANCH   1  18
ATOM     18  C   UNL     1       8.306   9.315  18.007  0.00  0.00    +0.000 C 
BRANCH  18  19
ATOM     19  C   UNL     1       9.088   9.808  19.228  0.00  0.00    +0.000 C 
BRANCH  19  20
ATOM     20  C   UNL     1       9.772  11.137  19.038  0.00  0.00    +0.000 A 
ATOM     21  N   UNL     1      10.328  11.371  17.847  0.00  0.00    +0.000 NA
ATOM     22  C   UNL     1      10.859  12.583  17.685  0.00  0.00    +0.000 A 
ATOM     23  C   UNL     1      10.860  13.593  18.628  0.00  0.00    +0.000 A 
ATOM     24  C   UNL     1      11.333  14.902  18.389  0.00  0.00    +0.000 A 
ATOM     25  C   UNL     1      11.381  15.825  19.425  0.00  0.00    +0.000 A 
ATOM     26  C   UNL     1      10.999  15.427  20.701  0.00  0.00    +0.000 A 
ATOM     27  C   UNL     1      10.497  14.133  20.912  0.00  0.00    +0.000 A 
ATOM     28  C   UNL     1      10.374  13.206  19.876  0.00  0.00    +0.000 A 
ATOM     29  N   UNL     1       9.823  11.992  20.083  0.00  0.00    +0.000 NA
BRANCH  22  30
ATOM     30  O   UNL     1      11.522  12.732  16.505  0.00  0.00    +0.000 OA
ATOM     31  H   UNL     1      11.217  11.930  16.017  0.00  0.00    +0.000 HD
ENDBRANCH  22  30
ENDBRANCH  19  20
ENDBRANCH  18  19
ENDBRANCH   1  18
TORSDOF 10
ENDMDL
MODEL 6
REMARK VINA RESULT:      -7.5      4.138      8.273
REMARK  Name = 
REMARK  11 active torsions:
REMARK  status: ('A' for Active; 'I' for Inactive)
REMARK    1  A    between atoms: C_1  and  O_2
REMARK    2  A    between atoms: O_2  and  C_3
REMARK    3  A    between atoms: C_6  and  C_7
REMARK    4  A    between atoms: C_7  and  N_8
REMARK    5  A    between atoms: C_9  and  C_11
REMARK    6  A    between atoms: C_11  and  O_12
REMARK    7  A    between atoms: O_12  and  C_13
REMARK    8  A    between atoms: C_13  and  C_15
REMARK    9  A    between atoms: C_15  and  C_16
REMARK   10  A    between atoms: C_16  and  C_17
REMARK   11  A    between atoms: C_19  and  O_20
REMARK                            x       y       z     vdW  Elec       q    Type
REMARK                         _______ _______ _______ _____ _____    ______ ____
ROOT
ATOM      1  C   UNL     1       6.829   5.626  15.380  0.00  0.00    +0.000 C 
ATOM      2  O   UNL     1       7.357   5.281  14.328  0.00  0.00    +0.000 OA
ENDROOT
BRANCH   1   3
ATOM      3  O   UNL     1       7.524   6.012  16.482  0.00  0.00    +0.000 OA
BRANCH   3   4
ATOM      4  C   UNL     1       7.489   7.420  16.726  0.00  0.00    +0.000 C 
BRANCH   4   6
ATOM      5  N   UNL     1       8.433   9.210  18.130  0.00  0.00    +0.000 N 
ATOM      6  C   UNL     1       8.109   7.873  18.061  0.00  0.00    +0.000 C 
ATOM      7  O   UNL     1       8.358   7.083  18.977  0.00  0.00    +0.000 OA
ATOM      8  H   UNL     1       8.092   9.844  17.418  0.00  0.00    +0.000 HD
BRANCH   5   9
ATOM      9  C   UNL     1       9.117   9.785  19.274  0.00  0.00    +0.000 C 
BRANCH   9  13
ATOM     10  C   UNL     1      10.668  13.750  18.461  0.00  0.00    +0.000 A 
ATOM     11  C   UNL     1      10.746  12.741  17.501  0.00  0.00    +0.000 A 
ATOM     12  C   UNL     1      10.251  11.461  17.769  0.00  0.00    +0.000 A 
ATOM     13  C   UNL     1       9.682  11.159  19.013  0.00  0.00    +0.000 A 
ATOM     14  C   UNL     1       9.633  12.170  19.985  0.00  0.00    +0.000 A 
ATOM     15  C   UNL     1      10.119  13.458  19.709  0.00  0.00    +0.000 A 
BRANCH  10  17
ATOM     16  C   UNL     1      11.437  15.898  19.108  0.00  0.00    +0.000 C 
ATOM     17  O   UNL     1      11.193  14.953  18.076  0.00  0.00    +0.000 OA
ENDBRANCH  10  17
ENDBRANCH   9  13
ENDBRANCH   5   9
ENDBRANCH   4   6
ENDBRANCH   3   4
ENDBRANCH   1   3
BRANCH   1  18
ATOM     18  C   UNL     1       5.338   5.493  15.623  0.00  0.00    +0.000 C 
BRANCH  18  19
ATOM     19  C   UNL     1       4.677   6.514  16.555  0.00  0.00    +0.000 C 
BRANCH  19  20
ATOM     20  C   UNL     1       3.820   5.910  17.637  0.00  0.00    +0.000 A 
ATOM     21  N   UNL     1       3.309   6.745  18.545  0.00  0.00    +0.000 NA
ATOM     22  C   UNL     1       2.493   6.193  19.444  0.00  0.00    +0.000 A 
ATOM     23  C   UNL     1       2.135   4.859  19.491  0.00  0.00    +0.000 A 
ATOM     24  C   UNL     1       1.185   4.325  20.389  0.00  0.00    +0.000 A 
ATOM     25  C   UNL     1       0.956   2.956  20.427  0.00  0.00    +0.000 A 
ATOM     26  C   UNL     1       1.706   2.124  19.603  0.00  0.00    +0.000 A 
ATOM     27  C   UNL     1       2.619   2.677  18.692  0.00  0.00    +0.000 A 
ATOM     28  C   UNL     1       2.821   4.053  18.584  0.00  0.00    +0.000 A 
ATOM     29  N   UNL     1       3.650   4.570  17.654  0.00  0.00    +0.000 NA
BRANCH  22  30
ATOM     30  O   UNL     1       2.098   7.056  20.421  0.00  0.00    +0.000 OA
ATOM     31  H   UNL     1       2.718   7.808  20.268  0.00  0.00    +0.000 HD
ENDBRANCH  22  30
ENDBRANCH  19  20
ENDBRANCH  18  19
ENDBRANCH   1  18
TORSDOF 10
ENDMDL
MODEL 7
REMARK VINA RESULT:      -7.5      2.421      5.381
REMARK  Name = 
REMARK  11 active torsions:
REMARK  status: ('A' for Active; 'I' for Inactive)
REMARK    1  A    between atoms: C_1  and  O_2
REMARK    2  A    between atoms: O_2  and  C_3
REMARK    3  A    between atoms: C_6  and  C_7
REMARK    4  A    between atoms: C_7  and  N_8
REMARK    5  A    between atoms: C_9  and  C_11
REMARK    6  A    between atoms: C_11  and  O_12
REMARK    7  A    between atoms: O_12  and  C_13
REMARK    8  A    between atoms: C_13  and  C_15
REMARK    9  A    between atoms: C_15  and  C_16
REMARK   10  A    between atoms: C_16  and  C_17
REMARK   11  A    between atoms: C_19  and  O_20
REMARK                            x       y       z     vdW  Elec       q    Type
REMARK                         _______ _______ _______ _____ _____    ______ ____
ROOT
ATOM      1  C   UNL     1       6.202   5.378  15.776  0.00  0.00    +0.000 C 
ATOM      2  O   UNL     1       5.638   6.292  15.182  0.00  0.00    +0.000 OA
ENDROOT
BRANCH   1   3
ATOM      3  O   UNL     1       7.336   5.539  16.506  0.00  0.00    +0.000 OA
BRANCH   3   4
ATOM      4  C   UNL     1       7.176   6.385  17.647  0.00  0.00    +0.000 C 
BRANCH   4   6
ATOM      5  N   UNL     1       4.821   6.367  18.368  0.00  0.00    +0.000 N 
ATOM      6  C   UNL     1       6.099   5.938  18.652  0.00  0.00    +0.000 C 
ATOM      7  O   UNL     1       6.371   5.299  19.673  0.00  0.00    +0.000 OA
ATOM      8  H   UNL     1       4.620   6.769  17.462  0.00  0.00    +0.000 HD
BRANCH   5   9
ATOM      9  C   UNL     1       3.703   6.123  19.261  0.00  0.00    +0.000 C 
BRANCH   9  13
ATOM     10  C   UNL     1       0.905   9.426  19.464  0.00  0.00    +0.000 A 
ATOM     11  C   UNL     1       1.066   8.558  20.544  0.00  0.00    +0.000 A 
ATOM     12  C   UNL     1       1.964   7.489  20.472  0.00  0.00    +0.000 A 
ATOM     13  C   UNL     1       2.709   7.256  19.310  0.00  0.00    +0.000 A 
ATOM     14  C   UNL     1       2.521   8.115  18.216  0.00  0.00    +0.000 A 
ATOM     15  C   UNL     1       1.628   9.196  18.295  0.00  0.00    +0.000 A 
BRANCH  10  17
ATOM     16  C   UNL     1      -0.184  11.344  18.591  0.00  0.00    +0.000 C 
ATOM     17  O   UNL     1      -0.007  10.426  19.661  0.00  0.00    +0.000 OA
ENDBRANCH  10  17
ENDBRANCH   9  13
ENDBRANCH   5   9
ENDBRANCH   4   6
ENDBRANCH   3   4
ENDBRANCH   1   3
BRANCH   1  18
ATOM     18  C   UNL     1       5.788   3.928  15.616  0.00  0.00    +0.000 C 
BRANCH  18  19
ATOM     19  C   UNL     1       4.298   3.597  15.749  0.00  0.00    +0.000 C 
BRANCH  19  20
ATOM     20  C   UNL     1       3.857   3.248  17.147  0.00  0.00    +0.000 A 
ATOM     21  N   UNL     1       4.773   2.715  17.959  0.00  0.00    +0.000 NA
ATOM     22  C   UNL     1       4.373   2.488  19.211  0.00  0.00    +0.000 A 
ATOM     23  C   UNL     1       3.120   2.773  19.718  0.00  0.00    +0.000 A 
ATOM     24  C   UNL     1       2.761   2.621  21.076  0.00  0.00    +0.000 A 
ATOM     25  C   UNL     1       1.451   2.843  21.478  0.00  0.00    +0.000 A 
ATOM     26  C   UNL     1       0.498   3.173  20.521  0.00  0.00    +0.000 A 
ATOM     27  C   UNL     1       0.881   3.354  19.183  0.00  0.00    +0.000 A 
ATOM     28  C   UNL     1       2.203   3.203  18.761  0.00  0.00    +0.000 A 
ATOM     29  N   UNL     1       2.565   3.451  17.485  0.00  0.00    +0.000 NA
BRANCH  22  30
ATOM     30  O   UNL     1       5.297   1.831  19.965  0.00  0.00    +0.000 OA
ATOM     31  H   UNL     1       5.064   0.892  19.771  0.00  0.00    +0.000 HD
ENDBRANCH  22  30
ENDBRANCH  19  20
ENDBRANCH  18  19
ENDBRANCH   1  18
TORSDOF 10
ENDMDL
MODEL 8
REMARK VINA RESULT:      -7.5      1.844      7.546
REMARK  Name = 
REMARK  11 active torsions:
REMARK  status: ('A' for Active; 'I' for Inactive)
REMARK    1  A    between atoms: C_1  and  O_2
REMARK    2  A    between atoms: O_2  and  C_3
REMARK    3  A    between atoms: C_6  and  C_7
REMARK    4  A    between atoms: C_7  and  N_8
REMARK    5  A    between atoms: C_9  and  C_11
REMARK    6  A    between atoms: C_11  and  O_12
REMARK    7  A    between atoms: O_12  and  C_13
REMARK    8  A    between atoms: C_13  and  C_15
REMARK    9  A    between atoms: C_15  and  C_16
REMARK   10  A    between atoms: C_16  and  C_17
REMARK   11  A    between atoms: C_19  and  O_20
REMARK                            x       y       z     vdW  Elec       q    Type
REMARK                         _______ _______ _______ _____ _____    ______ ____
ROOT
ATOM      1  C   UNL     1       1.902   4.692  18.785  0.00  0.00    +0.000 C 
ATOM      2  O   UNL     1       1.479   4.674  17.633  0.00  0.00    +0.000 OA
ENDROOT
BRANCH   1   3
ATOM      3  O   UNL     1       1.684   3.697  19.684  0.00  0.00    +0.000 OA
BRANCH   3   4
ATOM      4  C   UNL     1       2.503   2.542  19.480  0.00  0.00    +0.000 C 
BRANCH   4   6
ATOM      5  N   UNL     1       4.017   2.947  17.581  0.00  0.00    +0.000 N 
ATOM      6  C   UNL     1       3.920   2.825  18.950  0.00  0.00    +0.000 C 
ATOM      7  O   UNL     1       4.907   2.872  19.690  0.00  0.00    +0.000 OA
ATOM      8  H   UNL     1       3.175   3.036  17.026  0.00  0.00    +0.000 HD
BRANCH   5   9
ATOM      9  C   UNL     1       5.290   3.113  16.904  0.00  0.00    +0.000 C 
BRANCH   9  13
ATOM     10  C   UNL     1       6.828   7.151  17.254  0.00  0.00    +0.000 A 
ATOM     11  C   UNL     1       5.649   6.892  16.555  0.00  0.00    +0.000 A 
ATOM     12  C   UNL     1       5.160   5.588  16.438  0.00  0.00    +0.000 A 
ATOM     13  C   UNL     1       5.851   4.510  17.004  0.00  0.00    +0.000 A 
ATOM     14  C   UNL     1       7.052   4.772  17.681  0.00  0.00    +0.000 A 
ATOM     15  C   UNL     1       7.536   6.085  17.808  0.00  0.00    +0.000 A 
BRANCH  10  17
ATOM     16  C   UNL     1       8.313   8.789  18.111  0.00  0.00    +0.000 C 
ATOM     17  O   UNL     1       7.200   8.466  17.289  0.00  0.00    +0.000 OA
ENDBRANCH  10  17
ENDBRANCH   9  13
ENDBRANCH   5   9
ENDBRANCH   4   6
ENDBRANCH   3   4
ENDBRANCH   1   3
BRANCH   1  18
ATOM     18  C   UNL     1       2.571   5.913  19.386  0.00  0.00    +0.000 C 
BRANCH  18  19
ATOM     19  C   UNL     1       2.520   7.217  18.585  0.00  0.00    +0.000 C 
BRANCH  19  20
ATOM     20  C   UNL     1       1.783   8.342  19.264  0.00  0.00    +0.000 A 
ATOM     21  N   UNL     1       1.536   9.433  18.537  0.00  0.00    +0.000 NA
ATOM     22  C   UNL     1       0.816  10.380  19.141  0.00  0.00    +0.000 A 
ATOM     23  C   UNL     1       0.306  10.305  20.423  0.00  0.00    +0.000 A 
ATOM     24  C   UNL     1      -0.544  11.277  20.997  0.00  0.00    +0.000 A 
ATOM     25  C   UNL     1      -0.931  11.165  22.325  0.00  0.00    +0.000 A 
ATOM     26  C   UNL     1      -0.437  10.112  23.086  0.00  0.00    +0.000 A 
ATOM     27  C   UNL     1       0.378   9.137  22.489  0.00  0.00    +0.000 A 
ATOM     28  C   UNL     1       0.729   9.187  21.140  0.00  0.00    +0.000 A 
ATOM     29  N   UNL     1       1.453   8.203  20.566  0.00  0.00    +0.000 NA
BRANCH  22  30
ATOM     30  O   UNL     1       0.696  11.522  18.409  0.00  0.00    +0.000 OA
ATOM     31  H   UNL     1       0.364  11.161  17.553  0.00  0.00    +0.000 HD
ENDBRANCH  22  30
ENDBRANCH  19  20
ENDBRANCH  18  19
ENDBRANCH   1  18
TORSDOF 10
ENDMDL
MODEL 9
REMARK VINA RESULT:      -7.5      5.256      7.932
REMARK  Name = 
REMARK  11 active torsions:
REMARK  status: ('A' for Active; 'I' for Inactive)
REMARK    1  A    between atoms: C_1  and  O_2
REMARK    2  A    between atoms: O_2  and  C_3
REMARK    3  A    between atoms: C_6  and  C_7
REMARK    4  A    between atoms: C_7  and  N_8
REMARK    5  A    between atoms: C_9  and  C_11
REMARK    6  A    between atoms: C_11  and  O_12
REMARK    7  A    between atoms: O_12  and  C_13
REMARK    8  A    between atoms: C_13  and  C_15
REMARK    9  A    between atoms: C_15  and  C_16
REMARK   10  A    between atoms: C_16  and  C_17
REMARK   11  A    between atoms: C_19  and  O_20
REMARK                            x       y       z     vdW  Elec       q    Type
REMARK                         _______ _______ _______ _____ _____    ______ ____
ROOT
ATOM      1  C   UNL     1       7.842   7.230  17.916  0.00  0.00    +0.000 C 
ATOM      2  O   UNL     1       7.497   7.275  16.739  0.00  0.00    +0.000 OA
ENDROOT
BRANCH   1   3
ATOM      3  O   UNL     1       8.502   8.236  18.547  0.00  0.00    +0.000 OA
BRANCH   3   4
ATOM      4  C   UNL     1       8.336   9.515  17.930  0.00  0.00    +0.000 C 
BRANCH   4   6
ATOM      5  N   UNL     1       9.245  11.803  17.848  0.00  0.00    +0.000 N 
ATOM      6  C   UNL     1       9.062  10.681  18.627  0.00  0.00    +0.000 C 
ATOM      7  O   UNL     1       9.505  10.594  19.775  0.00  0.00    +0.000 OA
ATOM      8  H   UNL     1       8.754  11.885  16.967  0.00  0.00    +0.000 HD
BRANCH   5   9
ATOM      9  C   UNL     1       9.997  12.955  18.310  0.00  0.00    +0.000 C 
BRANCH   9  13
ATOM     10  C   UNL     1       7.579  16.532  18.684  0.00  0.00    +0.000 A 
ATOM     11  C   UNL     1       7.035  15.351  18.179  0.00  0.00    +0.000 A 
ATOM     12  C   UNL     1       7.820  14.201  18.053  0.00  0.00    +0.000 A 
ATOM     13  C   UNL     1       9.173  14.214  18.414  0.00  0.00    +0.000 A 
ATOM     14  C   UNL     1       9.722  15.413  18.894  0.00  0.00    +0.000 A 
ATOM     15  C   UNL     1       8.928  16.563  19.032  0.00  0.00    +0.000 A 
BRANCH  10  17
ATOM     16  C   UNL     1       6.104  17.828  20.014  0.00  0.00    +0.000 C 
ATOM     17  O   UNL     1       6.707  17.584  18.751  0.00  0.00    +0.000 OA
ENDBRANCH  10  17
ENDBRANCH   9  13
ENDBRANCH   5   9
ENDBRANCH   4   6
ENDBRANCH   3   4
ENDBRANCH   1   3
BRANCH   1  18
ATOM     18  C   UNL     1       7.723   5.970  18.750  0.00  0.00    +0.000 C 
BRANCH  18  19
ATOM     19  C   UNL     1       6.926   4.802  18.161  0.00  0.00    +0.000 C 
BRANCH  19  20
ATOM     20  C   UNL     1       5.480   4.755  18.582  0.00  0.00    +0.000 A 
ATOM     21  N   UNL     1       4.699   5.764  18.189  0.00  0.00    +0.000 NA
ATOM     22  C   UNL     1       3.409   5.657  18.512  0.00  0.00    +0.000 A 
ATOM     23  C   UNL     1       2.836   4.598  19.189  0.00  0.00    +0.000 A 
ATOM     24  C   UNL     1       1.450   4.461  19.422  0.00  0.00    +0.000 A 
ATOM     25  C   UNL     1       0.973   3.411  20.194  0.00  0.00    +0.000 A 
ATOM     26  C   UNL     1       1.882   2.527  20.765  0.00  0.00    +0.000 A 
ATOM     27  C   UNL     1       3.253   2.658  20.494  0.00  0.00    +0.000 A 
ATOM     28  C   UNL     1       3.754   3.664  19.667  0.00  0.00    +0.000 A 
ATOM     29  N   UNL     1       5.067   3.731  19.360  0.00  0.00    +0.000 NA
BRANCH  22  30
ATOM     30  O   UNL     1       2.678   6.763  18.202  0.00  0.00    +0.000 OA
ATOM     31  H   UNL     1       3.303   7.480  18.465  0.00  0.00    +0.000 HD
ENDBRANCH  22  30
ENDBRANCH  19  20
ENDBRANCH  18  19
ENDBRANCH   1  18
TORSDOF 10
ENDMDL
