MODEL 1
REMARK VINA RESULT:      -7.1      0.000      0.000
REMARK  Name = 
REMARK  10 active torsions:
REMARK  status: ('A' for Active; 'I' for Inactive)
REMARK    1  A    between atoms: C_1  and  C_2
REMARK    2  A    between atoms: C_5  and  C_6
REMARK    3  A    between atoms: C_6  and  C_7
REMARK    4  A    between atoms: C_7  and  C_8
REMARK    5  A    between atoms: C_7  and  C_14
REMARK    6  A    between atoms: C_8  and  CA_9
REMARK    7  A    between atoms: CA_9  and  N_10
REMARK    8  A    between atoms: CA_9  and  C_11
REMARK    9  A    between atoms: C_11  and  OXT_13
REMARK   10  A    between atoms: C_14  and  O_16
REMARK                            x       y       z     vdW  Elec       q    Type
REMARK                         _______ _______ _______ _____ _____    ______ ____
ROOT
ATOM      1  C   UNL     1       6.085   4.478  16.174  0.00  0.00    +0.000 C 
ENDROOT
BRANCH   1   2
ATOM      2  C   UNL     1       6.722   4.473  14.787  0.00  0.00    +0.000 C 
ATOM      3  O   UNL     1       7.535   5.292  14.385  0.00  0.00    +0.000 OA
BRANCH   2   4
ATOM      4  O   UNL     1       6.262   3.478  13.991  0.00  0.00    +0.000 OA
ATOM      5  H   UNL     1       5.643   3.774  13.297  0.00  0.00    +0.000 HD
ENDBRANCH   2   4
ENDBRANCH   1   2
BRANCH   1   6
ATOM      6  C   UNL     1       4.560   4.323  16.006  0.00  0.00    +0.000 C 
BRANCH   6  11
ATOM      7  C   UNL     1       1.747   3.286  21.016  0.00  0.00    +0.000 C 
ATOM      8  C   UNL     1       2.413   3.510  19.694  0.00  0.00    +0.000 A 
ATOM      9  C   UNL     1       3.352   2.603  19.206  0.00  0.00    +0.000 A 
ATOM     10  C   UNL     1       4.017   2.843  18.001  0.00  0.00    +0.000 A 
ATOM     11  C   UNL     1       3.742   3.984  17.237  0.00  0.00    +0.000 A 
ATOM     12  C   UNL     1       2.765   4.874  17.710  0.00  0.00    +0.000 A 
ATOM     13  C   UNL     1       2.110   4.644  18.927  0.00  0.00    +0.000 A 
ENDBRANCH   6  11
ENDBRANCH   1   6
BRANCH   1  14
ATOM     14  C   UNL     1       6.578   5.681  17.008  0.00  0.00    +0.000 C 
BRANCH  14  15
ATOM     15  CA  UNL     1       7.648   5.417  18.089  0.00  0.00    +0.000 C 
BRANCH  15  16
ATOM     16  N   UNL     1       8.303   4.123  17.866  0.00  0.00    +0.000 NA
ATOM     17  H1  UNL     1       8.435   3.629  18.751  0.00  0.00    +0.000 HD
ATOM     18  H2  UNL     1       9.223   4.198  17.442  0.00  0.00    +0.000 HD
ENDBRANCH  15  16
BRANCH  15  19
ATOM     19  C   UNL     1       6.996   5.441  19.491  0.00  0.00    +0.000 C 
ATOM     20  O   UNL     1       5.795   5.427  19.712  0.00  0.00    +0.000 OA
BRANCH  19  21
ATOM     21  OXT UNL     1       7.910   5.471  20.495  0.00  0.00    +0.000 OA
ATOM     22  HXT UNL     1       7.509   5.411  21.381  0.00  0.00    +0.000 HD
ENDBRANCH  19  21
ENDBRANCH  15  19
ENDBRANCH  14  15
ENDBRANCH   1  14
TORSDOF 9
ENDMDL
MODEL 2
REMARK VINA RESULT:      -6.9      1.191      1.252
REMARK  Name = 
REMARK  10 active torsions:
REMARK  status: ('A' for Active; 'I' for Inactive)
REMARK    1  A    between atoms: C_1  and  C_2
REMARK    2  A    between atoms: C_5  and  C_6
REMARK    3  A    between atoms: C_6  and  C_7
REMARK    4  A    between atoms: C_7  and  C_8
REMARK    5  A    between atoms: C_7  and  C_14
REMARK    6  A    between atoms: C_8  and  CA_9
REMARK    7  A    between atoms: CA_9  and  N_10
REMARK    8  A    between atoms: CA_9  and  C_11
REMARK    9  A    between atoms: C_11  and  OXT_13
REMARK   10  A    between atoms: C_14  and  O_16
REMARK                            x       y       z     vdW  Elec       q    Type
REMARK                         _______ _______ _______ _____ _____    ______ ____
ROOT
ATOM      1  C   UNL     1       5.936   4.231  16.376  0.00  0.00    +0.000 C 
ENDROOT
BRANCH   1   2
ATOM      2  C   UNL     1       6.705   4.404  15.069  0.00  0.00    +0.000 C 
ATOM      3  O   UNL     1       7.532   5.277  14.852  0.00  0.00    +0.000 OA
BRANCH   2   4
ATOM      4  O   UNL     1       6.351   3.506  14.118  0.00  0.00    +0.000 OA
ATOM      5  H   UNL     1       6.377   2.578  14.415  0.00  0.00    +0.000 HD
ENDBRANCH   2   4
ENDBRANCH   1   2
BRANCH   1   6
ATOM      6  C   UNL     1       4.458   3.955  16.035  0.00  0.00    +0.000 C 
BRANCH   6  11
ATOM      7  C   UNL     1       1.158   2.911  20.736  0.00  0.00    +0.000 C 
ATOM      8  C   UNL     1       1.950   3.142  19.487  0.00  0.00    +0.000 A 
ATOM      9  C   UNL     1       2.877   2.198  19.047  0.00  0.00    +0.000 A 
ATOM     10  C   UNL     1       3.659   2.441  17.914  0.00  0.00    +0.000 A 
ATOM     11  C   UNL     1       3.516   3.622  17.175  0.00  0.00    +0.000 A 
ATOM     12  C   UNL     1       2.551   4.550  17.597  0.00  0.00    +0.000 A 
ATOM     13  C   UNL     1       1.779   4.317  18.742  0.00  0.00    +0.000 A 
ENDBRANCH   6  11
ENDBRANCH   1   6
BRANCH   1  14
ATOM     14  C   UNL     1       6.223   5.396  17.348  0.00  0.00    +0.000 C 
BRANCH  14  15
ATOM     15  CA  UNL     1       6.502   5.049  18.826  0.00  0.00    +0.000 C 
BRANCH  15  16
ATOM     16  N   UNL     1       5.322   5.322  19.655  0.00  0.00    +0.000 NA
ATOM     17  H1  UNL     1       5.508   6.089  20.304  0.00  0.00    +0.000 HD
ATOM     18  H2  UNL     1       5.029   4.532  20.223  0.00  0.00    +0.000 HD
ENDBRANCH  15  16
BRANCH  15  19
ATOM     19  C   UNL     1       7.707   5.869  19.342  0.00  0.00    +0.000 C 
ATOM     20  O   UNL     1       8.224   6.809  18.757  0.00  0.00    +0.000 OA
BRANCH  19  21
ATOM     21  OXT UNL     1       8.153   5.444  20.552  0.00  0.00    +0.000 OA
ATOM     22  HXT UNL     1       7.434   5.178  21.154  0.00  0.00    +0.000 HD
ENDBRANCH  19  21
ENDBRANCH  15  19
ENDBRANCH  14  15
ENDBRANCH   1  14
TORSDOF 9
ENDMDL
MODEL 3
REMARK VINA RESULT:      -6.8      1.315      1.823
REMARK  Name = 
REMARK  10 active torsions:
REMARK  status: ('A' for Active; 'I' for Inactive)
REMARK    1  A    between atoms: C_1  and  C_2
REMARK    2  A    between atoms: C_5  and  C_6
REMARK    3  A    between atoms: C_6  and  C_7
REMARK    4  A    between atoms: C_7  and  C_8
REMARK    5  A    between atoms: C_7  and  C_14
REMARK    6  A    between atoms: C_8  and  CA_9
REMARK    7  A    between atoms: CA_9  and  N_10
REMARK    8  A    between atoms: CA_9  and  C_11
REMARK    9  A    between atoms: C_11  and  OXT_13
REMARK   10  A    between atoms: C_14  and  O_16
REMARK                            x       y       z     vdW  Elec       q    Type
REMARK                         _______ _______ _______ _____ _____    ______ ____
ROOT
ATOM      1  C   UNL     1       5.490   4.616  16.449  0.00  0.00    +0.000 C 
ENDROOT
BRANCH   1   2
ATOM      2  C   UNL     1       6.103   4.461  15.060  0.00  0.00    +0.000 C 
ATOM      3  O   UNL     1       5.492   4.124  14.057  0.00  0.00    +0.000 OA
BRANCH   2   4
ATOM      4  O   UNL     1       7.439   4.691  15.036  0.00  0.00    +0.000 OA
ATOM      5  H   UNL     1       7.688   5.567  14.688  0.00  0.00    +0.000 HD
ENDBRANCH   2   4
ENDBRANCH   1   2
BRANCH   1   6
ATOM      6  C   UNL     1       4.122   3.904  16.456  0.00  0.00    +0.000 C 
BRANCH   6  11
ATOM      7  C   UNL     1       1.336   2.749  21.455  0.00  0.00    +0.000 C 
ATOM      8  C   UNL     1       2.063   3.119  20.198  0.00  0.00    +0.000 A 
ATOM      9  C   UNL     1       1.375   3.657  19.111  0.00  0.00    +0.000 A 
ATOM     10  C   UNL     1       2.043   3.946  17.918  0.00  0.00    +0.000 A 
ATOM     11  C   UNL     1       3.420   3.730  17.789  0.00  0.00    +0.000 A 
ATOM     12  C   UNL     1       4.116   3.229  18.900  0.00  0.00    +0.000 A 
ATOM     13  C   UNL     1       3.446   2.922  20.092  0.00  0.00    +0.000 A 
ENDBRANCH   6  11
ENDBRANCH   1   6
BRANCH   1  14
ATOM     14  C   UNL     1       5.514   6.091  16.906  0.00  0.00    +0.000 C 
BRANCH  14  15
ATOM     15  CA  UNL     1       6.712   6.562  17.757  0.00  0.00    +0.000 C 
BRANCH  15  16
ATOM     16  N   UNL     1       7.751   7.156  16.907  0.00  0.00    +0.000 NA
ATOM     17  H1  UNL     1       7.914   8.131  17.166  0.00  0.00    +0.000 HD
ATOM     18  H2  UNL     1       7.518   7.158  15.918  0.00  0.00    +0.000 HD
ENDBRANCH  15  16
BRANCH  15  19
ATOM     19  C   UNL     1       7.299   5.369  18.546  0.00  0.00    +0.000 C 
ATOM     20  O   UNL     1       8.031   4.507  18.084  0.00  0.00    +0.000 OA
BRANCH  19  21
ATOM     21  OXT UNL     1       6.922   5.366  19.851  0.00  0.00    +0.000 OA
ATOM     22  HXT UNL     1       6.526   6.209  20.138  0.00  0.00    +0.000 HD
ENDBRANCH  19  21
ENDBRANCH  15  19
ENDBRANCH  14  15
ENDBRANCH   1  14
TORSDOF 9
ENDMDL
MODEL 4
REMARK VINA RESULT:      -6.8      1.060      1.309
REMARK  Name = 
REMARK  10 active torsions:
REMARK  status: ('A' for Active; 'I' for Inactive)
REMARK    1  A    between atoms: C_1  and  C_2
REMARK    2  A    between atoms: C_5  and  C_6
REMARK    3  A    between atoms: C_6  and  C_7
REMARK    4  A    between atoms: C_7  and  C_8
REMARK    5  A    between atoms: C_7  and  C_14
REMARK    6  A    between atoms: C_8  and  CA_9
REMARK    7  A    between atoms: CA_9  and  N_10
REMARK    8  A    between atoms: CA_9  and  C_11
REMARK    9  A    between atoms: C_11  and  OXT_13
REMARK   10  A    between atoms: C_14  and  O_16
REMARK                            x       y       z     vdW  Elec       q    Type
REMARK                         _______ _______ _______ _____ _____    ______ ____
ROOT
ATOM      1  C   UNL     1       6.262   4.580  16.121  0.00  0.00    +0.000 C 
ENDROOT
BRANCH   1   2
ATOM      2  C   UNL     1       6.764   4.560  14.680  0.00  0.00    +0.000 C 
ATOM      3  O   UNL     1       6.352   3.815  13.803  0.00  0.00    +0.000 OA
BRANCH   2   4
ATOM      4  O   UNL     1       7.774   5.435  14.454  0.00  0.00    +0.000 OA
ATOM      5  H   UNL     1       7.607   6.334  14.793  0.00  0.00    +0.000 HD
ENDBRANCH   2   4
ENDBRANCH   1   2
BRANCH   1   6
ATOM      6  C   UNL     1       4.943   5.378  16.163  0.00  0.00    +0.000 C 
BRANCH   6  11
ATOM      7  C   UNL     1       1.044   3.433  20.049  0.00  0.00    +0.000 C 
ATOM      8  C   UNL     1       1.987   3.935  18.999  0.00  0.00    +0.000 A 
ATOM      9  C   UNL     1       2.649   3.047  18.153  0.00  0.00    +0.000 A 
ATOM     10  C   UNL     1       3.573   3.512  17.213  0.00  0.00    +0.000 A 
ATOM     11  C   UNL     1       3.840   4.879  17.076  0.00  0.00    +0.000 A 
ATOM     12  C   UNL     1       3.139   5.774  17.901  0.00  0.00    +0.000 A 
ATOM     13  C   UNL     1       2.226   5.309  18.855  0.00  0.00    +0.000 A 
ENDBRANCH   6  11
ENDBRANCH   1   6
BRANCH   1  14
ATOM     14  C   UNL     1       7.377   5.021  17.093  0.00  0.00    +0.000 C 
BRANCH  14  15
ATOM     15  CA  UNL     1       7.019   6.061  18.176  0.00  0.00    +0.000 C 
BRANCH  15  16
ATOM     16  N   UNL     1       8.057   7.095  18.267  0.00  0.00    +0.000 NA
ATOM     17  H1  UNL     1       8.466   7.112  19.203  0.00  0.00    +0.000 HD
ATOM     18  H2  UNL     1       7.715   8.035  18.088  0.00  0.00    +0.000 HD
ENDBRANCH  15  16
BRANCH  15  19
ATOM     19  C   UNL     1       6.854   5.361  19.545  0.00  0.00    +0.000 C 
ATOM     20  O   UNL     1       5.892   4.687  19.882  0.00  0.00    +0.000 OA
BRANCH  19  21
ATOM     21  OXT UNL     1       7.915   5.561  20.368  0.00  0.00    +0.000 OA
ATOM     22  HXT UNL     1       7.813   6.341  20.943  0.00  0.00    +0.000 HD
ENDBRANCH  19  21
ENDBRANCH  15  19
ENDBRANCH  14  15
ENDBRANCH   1  14
TORSDOF 9
ENDMDL
MODEL 5
REMARK VINA RESULT:      -6.7      1.117      1.264
REMARK  Name = 
REMARK  10 active torsions:
REMARK  status: ('A' for Active; 'I' for Inactive)
REMARK    1  A    between atoms: C_1  and  C_2
REMARK    2  A    between atoms: C_5  and  C_6
REMARK    3  A    between atoms: C_6  and  C_7
REMARK    4  A    between atoms: C_7  and  C_8
REMARK    5  A    between atoms: C_7  and  C_14
REMARK    6  A    between atoms: C_8  and  CA_9
REMARK    7  A    between atoms: CA_9  and  N_10
REMARK    8  A    between atoms: CA_9  and  C_11
REMARK    9  A    between atoms: C_11  and  OXT_13
REMARK   10  A    between atoms: C_14  and  O_16
REMARK                            x       y       z     vdW  Elec       q    Type
REMARK                         _______ _______ _______ _____ _____    ______ ____
ROOT
ATOM      1  C   UNL     1       6.153   4.091  16.064  0.00  0.00    +0.000 C 
ENDROOT
BRANCH   1   2
ATOM      2  C   UNL     1       6.745   4.314  14.675  0.00  0.00    +0.000 C 
ATOM      3  O   UNL     1       7.502   5.224  14.373  0.00  0.00    +0.000 OA
BRANCH   2   4
ATOM      4  O   UNL     1       6.310   3.415  13.758  0.00  0.00    +0.000 OA
ATOM      5  H   UNL     1       6.337   2.489  14.062  0.00  0.00    +0.000 HD
ENDBRANCH   2   4
ENDBRANCH   1   2
BRANCH   1   6
ATOM      6  C   UNL     1       4.711   4.637  16.069  0.00  0.00    +0.000 C 
BRANCH   6  11
ATOM      7  C   UNL     1       1.425   2.847  20.551  0.00  0.00    +0.000 C 
ATOM      8  C   UNL     1       2.210   3.285  19.353  0.00  0.00    +0.000 A 
ATOM      9  C   UNL     1       3.042   2.390  18.681  0.00  0.00    +0.000 A 
ATOM     10  C   UNL     1       3.819   2.814  17.600  0.00  0.00    +0.000 A 
ATOM     11  C   UNL     1       3.767   4.136  17.145  0.00  0.00    +0.000 A 
ATOM     12  C   UNL     1       2.895   5.024  17.796  0.00  0.00    +0.000 A 
ATOM     13  C   UNL     1       2.128   4.606  18.891  0.00  0.00    +0.000 A 
ENDBRANCH   6  11
ENDBRANCH   1   6
BRANCH   1  14
ATOM     14  C   UNL     1       7.103   4.613  17.164  0.00  0.00    +0.000 C 
BRANCH  14  15
ATOM     15  CA  UNL     1       6.842   6.026  17.729  0.00  0.00    +0.000 C 
BRANCH  15  16
ATOM     16  N   UNL     1       7.120   7.050  16.715  0.00  0.00    +0.000 NA
ATOM     17  H1  UNL     1       7.361   6.616  15.822  0.00  0.00    +0.000 HD
ATOM     18  H2  UNL     1       7.895   7.662  16.954  0.00  0.00    +0.000 HD
ENDBRANCH  15  16
BRANCH  15  19
ATOM     19  C   UNL     1       7.727   6.266  18.974  0.00  0.00    +0.000 C 
ATOM     20  O   UNL     1       8.588   7.129  19.073  0.00  0.00    +0.000 OA
BRANCH  19  21
ATOM     21  OXT UNL     1       7.449   5.410  19.990  0.00  0.00    +0.000 OA
ATOM     22  HXT UNL     1       8.066   5.491  20.740  0.00  0.00    +0.000 HD
ENDBRANCH  19  21
ENDBRANCH  15  19
ENDBRANCH  14  15
ENDBRANCH   1  14
TORSDOF 9
ENDMDL
MODEL 6
REMARK VINA RESULT:      -6.7      3.212      5.577
REMARK  Name = 
REMARK  10 active torsions:
REMARK  status: ('A' for Active; 'I' for Inactive)
REMARK    1  A    between atoms: C_1  and  C_2
REMARK    2  A    between atoms: C_5  and  C_6
REMARK    3  A    between atoms: C_6  and  C_7
REMARK    4  A    between atoms: C_7  and  C_8
REMARK    5  A    between atoms: C_7  and  C_14
REMARK    6  A    between atoms: C_8  and  CA_9
REMARK    7  A    between atoms: CA_9  and  N_10
REMARK    8  A    between atoms: CA_9  and  C_11
REMARK    9  A    between atoms: C_11  and  OXT_13
REMARK   10  A    between atoms: C_14  and  O_16
REMARK                            x       y       z     vdW  Elec       q    Type
REMARK                         _______ _______ _______ _____ _____    ______ ____
ROOT
ATOM      1  C   UNL     1       3.453   3.403  18.410  0.00  0.00    +0.000 C 
ENDROOT
BRANCH   1   2
ATOM      2  C   UNL     1       4.025   2.082  18.917  0.00  0.00    +0.000 C 
ATOM      3  O   UNL     1       3.676   0.974  18.538  0.00  0.00    +0.000 OA
BRANCH   2   4
ATOM      4  O   UNL     1       4.954   2.240  19.892  0.00  0.00    +0.000 OA
ATOM      5  H   UNL     1       5.734   1.663  19.798  0.00  0.00    +0.000 HD
ENDBRANCH   2   4
ENDBRANCH   1   2
BRANCH   1   6
ATOM      6  C   UNL     1       4.172   3.769  17.096  0.00  0.00    +0.000 C 
BRANCH   6  11
ATOM      7  C   UNL     1       8.000   8.132  17.730  0.00  0.00    +0.000 C 
ATOM      8  C   UNL     1       7.047   7.000  17.495  0.00  0.00    +0.000 A 
ATOM      9  C   UNL     1       5.806   7.226  16.902  0.00  0.00    +0.000 A 
ATOM     10  C   UNL     1       4.894   6.180  16.737  0.00  0.00    +0.000 A 
ATOM     11  C   UNL     1       5.208   4.876  17.138  0.00  0.00    +0.000 A 
ATOM     12  C   UNL     1       6.475   4.645  17.696  0.00  0.00    +0.000 A 
ATOM     13  C   UNL     1       7.385   5.694  17.877  0.00  0.00    +0.000 A 
ENDBRANCH   6  11
ENDBRANCH   1   6
BRANCH   1  14
ATOM     14  C   UNL     1       3.449   4.472  19.525  0.00  0.00    +0.000 C 
BRANCH  14  15
ATOM     15  CA  UNL     1       2.100   4.804  20.198  0.00  0.00    +0.000 C 
BRANCH  15  16
ATOM     16  N   UNL     1       2.200   6.043  20.978  0.00  0.00    +0.000 NA
ATOM     17  H1  UNL     1       1.607   5.995  21.809  0.00  0.00    +0.000 HD
ATOM     18  H2  UNL     1       1.909   6.872  20.468  0.00  0.00    +0.000 HD
ENDBRANCH  15  16
BRANCH  15  19
ATOM     19  C   UNL     1       1.669   3.638  21.118  0.00  0.00    +0.000 C 
ATOM     20  O   UNL     1       2.207   3.334  22.172  0.00  0.00    +0.000 OA
BRANCH  19  21
ATOM     21  OXT UNL     1       0.594   2.961  20.639  0.00  0.00    +0.000 OA
ATOM     22  HXT UNL     1      -0.257   3.339  20.927  0.00  0.00    +0.000 HD
ENDBRANCH  19  21
ENDBRANCH  15  19
ENDBRANCH  14  15
ENDBRANCH   1  14
TORSDOF 9
ENDMDL
MODEL 7
REMARK VINA RESULT:      -6.7      1.525      1.884
REMARK  Name = 
REMARK  10 active torsions:
REMARK  status: ('A' for Active; 'I' for Inactive)
REMARK    1  A    between atoms: C_1  and  C_2
REMARK    2  A    between atoms: C_5  and  C_6
REMARK    3  A    between atoms: C_6  and  C_7
REMARK    4  A    between atoms: C_7  and  C_8
REMARK    5  A    between atoms: C_7  and  C_14
REMARK    6  A    between atoms: C_8  and  CA_9
REMARK    7  A    between atoms: CA_9  and  N_10
REMARK    8  A    between atoms: CA_9  and  C_11
REMARK    9  A    between atoms: C_11  and  OXT_13
REMARK   10  A    between atoms: C_14  and  O_16
REMARK                            x       y       z     vdW  Elec       q    Type
REMARK                         _______ _______ _______ _____ _____    ______ ____
ROOT
ATOM      1  C   UNL     1       5.191   4.974  16.581  0.00  0.00    +0.000 C 
ENDROOT
BRANCH   1   2
ATOM      2  C   UNL     1       4.856   6.451  16.392  0.00  0.00    +0.000 C 
ATOM      3  O   UNL     1       4.342   7.168  17.238  0.00  0.00    +0.000 OA
BRANCH   2   4
ATOM      4  O   UNL     1       5.141   6.909  15.148  0.00  0.00    +0.000 OA
ATOM      5  H   UNL     1       4.405   6.828  14.514  0.00  0.00    +0.000 HD
ENDBRANCH   2   4
ENDBRANCH   1   2
BRANCH   1   6
ATOM      6  C   UNL     1       3.894   4.158  16.407  0.00  0.00    +0.000 C 
BRANCH   6  11
ATOM      7  C   UNL     1       1.380   2.772  21.491  0.00  0.00    +0.000 C 
ATOM      8  C   UNL     1       1.962   3.099  20.150  0.00  0.00    +0.000 A 
ATOM      9  C   UNL     1       2.721   2.159  19.455  0.00  0.00    +0.000 A 
ATOM     10  C   UNL     1       3.313   2.485  18.232  0.00  0.00    +0.000 A 
ATOM     11  C   UNL     1       3.140   3.750  17.658  0.00  0.00    +0.000 A 
ATOM     12  C   UNL     1       2.339   4.680  18.341  0.00  0.00    +0.000 A 
ATOM     13  C   UNL     1       1.759   4.362  19.576  0.00  0.00    +0.000 A 
ENDBRANCH   6  11
ENDBRANCH   1   6
BRANCH   1  14
ATOM     14  C   UNL     1       5.991   4.748  17.882  0.00  0.00    +0.000 C 
BRANCH  14  15
ATOM     15  CA  UNL     1       7.479   5.160  17.894  0.00  0.00    +0.000 C 
BRANCH  15  16
ATOM     16  N   UNL     1       8.342   3.991  17.693  0.00  0.00    +0.000 NA
ATOM     17  H1  UNL     1       8.492   3.821  16.696  0.00  0.00    +0.000 HD
ATOM     18  H2  UNL     1       7.962   3.130  18.075  0.00  0.00    +0.000 HD
ENDBRANCH  15  16
BRANCH  15  19
ATOM     19  C   UNL     1       7.825   5.843  19.237  0.00  0.00    +0.000 C 
ATOM     20  O   UNL     1       7.594   5.383  20.344  0.00  0.00    +0.000 OA
BRANCH  19  21
ATOM     21  OXT UNL     1       8.441   7.043  19.073  0.00  0.00    +0.000 OA
ATOM     22  HXT UNL     1       8.600   7.510  19.913  0.00  0.00    +0.000 HD
ENDBRANCH  19  21
ENDBRANCH  15  19
ENDBRANCH  14  15
ENDBRANCH   1  14
TORSDOF 9
ENDMDL
MODEL 8
REMARK VINA RESULT:      -6.6      1.591      1.700
REMARK  Name = 
REMARK  10 active torsions:
REMARK  status: ('A' for Active; 'I' for Inactive)
REMARK    1  A    between atoms: C_1  and  C_2
REMARK    2  A    between atoms: C_5  and  C_6
REMARK    3  A    between atoms: C_6  and  C_7
REMARK    4  A    between atoms: C_7  and  C_8
REMARK    5  A    between atoms: C_7  and  C_14
REMARK    6  A    between atoms: C_8  and  CA_9
REMARK    7  A    between atoms: CA_9  and  N_10
REMARK    8  A    between atoms: CA_9  and  C_11
REMARK    9  A    between atoms: C_11  and  OXT_13
REMARK   10  A    between atoms: C_14  and  O_16
REMARK                            x       y       z     vdW  Elec       q    Type
REMARK                         _______ _______ _______ _____ _____    ______ ____
ROOT
ATOM      1  C   UNL     1       5.782   4.407  16.980  0.00  0.00    +0.000 C 
ENDROOT
BRANCH   1   2
ATOM      2  C   UNL     1       6.412   4.711  15.623  0.00  0.00    +0.000 C 
ATOM      3  O   UNL     1       7.611   4.820  15.415  0.00  0.00    +0.000 OA
BRANCH   2   4
ATOM      4  O   UNL     1       5.498   4.904  14.641  0.00  0.00    +0.000 OA
ATOM      5  H   UNL     1       5.028   4.094  14.368  0.00  0.00    +0.000 HD
ENDBRANCH   2   4
ENDBRANCH   1   2
BRANCH   1   6
ATOM      6  C   UNL     1       4.318   3.980  16.749  0.00  0.00    +0.000 C 
BRANCH   6  11
ATOM      7  C   UNL     1       1.332   2.748  21.613  0.00  0.00    +0.000 C 
ATOM      8  C   UNL     1       2.073   2.996  20.335  0.00  0.00    +0.000 A 
ATOM      9  C   UNL     1       3.377   2.533  20.166  0.00  0.00    +0.000 A 
ATOM     10  C   UNL     1       4.088   2.816  18.998  0.00  0.00    +0.000 A 
ATOM     11  C   UNL     1       3.507   3.546  17.955  0.00  0.00    +0.000 A 
ATOM     12  C   UNL     1       2.179   3.974  18.110  0.00  0.00    +0.000 A 
ATOM     13  C   UNL     1       1.469   3.707  19.288  0.00  0.00    +0.000 A 
ENDBRANCH   6  11
ENDBRANCH   1   6
BRANCH   1  14
ATOM     14  C   UNL     1       6.025   5.560  17.977  0.00  0.00    +0.000 C 
BRANCH  14  15
ATOM     15  CA  UNL     1       7.466   5.781  18.486  0.00  0.00    +0.000 C 
BRANCH  15  16
ATOM     16  N   UNL     1       7.539   5.586  19.938  0.00  0.00    +0.000 NA
ATOM     17  H1  UNL     1       7.039   4.739  20.213  0.00  0.00    +0.000 HD
ATOM     18  H2  UNL     1       7.129   6.346  20.474  0.00  0.00    +0.000 HD
ENDBRANCH  15  16
BRANCH  15  19
ATOM     19  C   UNL     1       7.939   7.208  18.123  0.00  0.00    +0.000 C 
ATOM     20  O   UNL     1       7.660   7.805  17.095  0.00  0.00    +0.000 OA
BRANCH  19  21
ATOM     21  OXT UNL     1       8.715   7.765  19.089  0.00  0.00    +0.000 OA
ATOM     22  HXT UNL     1       8.986   7.130  19.776  0.00  0.00    +0.000 HD
ENDBRANCH  19  21
ENDBRANCH  15  19
ENDBRANCH  14  15
ENDBRANCH   1  14
TORSDOF 9
ENDMDL
MODEL 9
REMARK VINA RESULT:      -6.6      1.207      1.888
REMARK  Name = 
REMARK  10 active torsions:
REMARK  status: ('A' for Active; 'I' for Inactive)
REMARK    1  A    between atoms: C_1  and  C_2
REMARK    2  A    between atoms: C_5  and  C_6
REMARK    3  A    between atoms: C_6  and  C_7
REMARK    4  A    between atoms: C_7  and  C_8
REMARK    5  A    between atoms: C_7  and  C_14
REMARK    6  A    between atoms: C_8  and  CA_9
REMARK    7  A    between atoms: CA_9  and  N_10
REMARK    8  A    between atoms: CA_9  and  C_11
REMARK    9  A    between atoms: C_11  and  OXT_13
REMARK   10  A    between atoms: C_14  and  O_16
REMARK                            x       y       z     vdW  Elec       q    Type
REMARK                         _______ _______ _______ _____ _____    ______ ____
ROOT
ATOM      1  C   UNL     1       6.187   4.159  16.039  0.00  0.00    +0.000 C 
ENDROOT
BRANCH   1   2
ATOM      2  C   UNL     1       6.723   4.362  14.625  0.00  0.00    +0.000 C 
ATOM      3  O   UNL     1       6.381   3.717  13.645  0.00  0.00    +0.000 OA
BRANCH   2   4
ATOM      4  O   UNL     1       7.679   5.320  14.548  0.00  0.00    +0.000 OA
ATOM      5  H   UNL     1       8.271   5.233  13.778  0.00  0.00    +0.000 HD
ENDBRANCH   2   4
ENDBRANCH   1   2
BRANCH   1   6
ATOM      6  C   UNL     1       4.730   4.664  16.081  0.00  0.00    +0.000 C 
BRANCH   6  11
ATOM      7  C   UNL     1       1.058   3.000  20.304  0.00  0.00    +0.000 C 
ATOM      8  C   UNL     1       2.054   3.440  19.276  0.00  0.00    +0.000 A 
ATOM      9  C   UNL     1       2.163   4.783  18.919  0.00  0.00    +0.000 A 
ATOM     10  C   UNL     1       3.051   5.184  17.918  0.00  0.00    +0.000 A 
ATOM     11  C   UNL     1       3.872   4.258  17.264  0.00  0.00    +0.000 A 
ATOM     12  C   UNL     1       3.791   2.913  17.656  0.00  0.00    +0.000 A 
ATOM     13  C   UNL     1       2.889   2.505  18.648  0.00  0.00    +0.000 A 
ENDBRANCH   6  11
ENDBRANCH   1   6
BRANCH   1  14
ATOM     14  C   UNL     1       7.158   4.738  17.091  0.00  0.00    +0.000 C 
BRANCH  14  15
ATOM     15  CA  UNL     1       6.769   6.065  17.777  0.00  0.00    +0.000 C 
BRANCH  15  16
ATOM     16  N   UNL     1       6.736   7.162  16.803  0.00  0.00    +0.000 NA
ATOM     17  H1  UNL     1       6.554   8.052  17.269  0.00  0.00    +0.000 HD
ATOM     18  H2  UNL     1       6.015   7.059  16.095  0.00  0.00    +0.000 HD
ENDBRANCH  15  16
BRANCH  15  19
ATOM     19  C   UNL     1       7.778   6.392  18.902  0.00  0.00    +0.000 C 
ATOM     20  O   UNL     1       8.560   7.331  18.898  0.00  0.00    +0.000 OA
BRANCH  19  21
ATOM     21  OXT UNL     1       7.712   5.517  19.938  0.00  0.00    +0.000 OA
ATOM     22  HXT UNL     1       8.457   5.602  20.559  0.00  0.00    +0.000 HD
ENDBRANCH  19  21
ENDBRANCH  15  19
ENDBRANCH  14  15
ENDBRANCH   1  14
TORSDOF 9
ENDMDL
