MODEL 1
REMARK VINA RESULT:      -8.1      0.000      0.000
REMARK  Name = 
REMARK  4 active torsions:
REMARK  status: ('A' for Active; 'I' for Inactive)
REMARK    1  A    between atoms: C_2  and  C_3
REMARK    2  A    between atoms: C_6  and  C_8
REMARK    3  A    between atoms: C_14  and  C_15
REMARK    4  A    between atoms: C_22  and  C_23
REMARK                            x       y       z     vdW  Elec       q    Type
REMARK                         _______ _______ _______ _____ _____    ______ ____
ROOT
ATOM      1  C   UNL     1       6.410   5.073  17.607  0.00  0.00    +0.000 A 
ATOM      2  C   UNL     1       7.060   5.760  16.599  0.00  0.00    +0.000 A 
ATOM      3  N   UNL     1       7.835   6.925  16.813  0.00  0.00    +0.000 N 
ATOM      4  C   UNL     1       7.369   8.017  17.532  0.00  0.00    +0.000 C 
ATOM      5  O   UNL     1       6.249   8.095  18.021  0.00  0.00    +0.000 OA
ATOM      6  N   UNL     1       7.043   5.386  15.299  0.00  0.00    +0.000 NA
ATOM      7  C   UNL     1       6.262   4.337  14.984  0.00  0.00    +0.000 A 
ATOM      8  N   UNL     1       5.577   3.630  15.889  0.00  0.00    +0.000 NA
ATOM      9  C   UNL     1       5.637   3.995  17.185  0.00  0.00    +0.000 A 
ATOM     10  H   UNL     1       8.441   7.135  16.036  0.00  0.00    +0.000 HD
ENDROOT
BRANCH   9  11
ATOM     11  C   UNL     1       4.602   3.333  18.008  0.00  0.00    +0.000 A 
ATOM     12  C   UNL     1       4.889   2.552  19.154  0.00  0.00    +0.000 A 
ATOM     13  C   UNL     1       3.909   2.317  20.126  0.00  0.00    +0.000 A 
ATOM     14  C   UNL     1       2.666   2.869  19.916  0.00  0.00    +0.000 A 
ATOM     15  C   UNL     1       2.339   3.481  18.729  0.00  0.00    +0.000 A 
ATOM     16  C   UNL     1       3.262   3.676  17.738  0.00  0.00    +0.000 A 
ATOM     17  O   UNL     1       1.092   4.030  18.755  0.00  0.00    +0.000 OA
ATOM     18  C   UNL     1       0.896   4.037  20.182  0.00  0.00    +0.000 C 
ATOM     19  O   UNL     1       1.672   3.009  20.837  0.00  0.00    +0.000 OA
ENDBRANCH   9  11
BRANCH   7  20
ATOM     20  C   UNL     1       6.065   3.963  13.573  0.00  0.00    +0.000 A 
ATOM     21  C   UNL     1       7.114   3.963  12.638  0.00  0.00    +0.000 A 
ATOM     22  C   UNL     1       6.900   3.584  11.306  0.00  0.00    +0.000 A 
ATOM     23  C   UNL     1       5.630   3.206  10.877  0.00  0.00    +0.000 A 
ATOM     24  C   UNL     1       4.567   3.221  11.772  0.00  0.00    +0.000 A 
ATOM     25  C   UNL     1       4.785   3.598  13.098  0.00  0.00    +0.000 A 
ENDBRANCH   7  20
BRANCH   4  26
ATOM     26  C   UNL     1       8.425   9.111  17.708  0.00  0.00    +0.000 C 
ATOM     27  C   UNL     1       7.928  10.535  17.476  0.00  0.00    +0.000 C 
ATOM     28  C   UNL     1       9.071  11.395  18.007  0.00  0.00    +0.000 C 
ATOM     29  C   UNL     1       9.714  10.578  19.127  0.00  0.00    +0.000 C 
ATOM     30  C   UNL     1       8.999   9.227  19.123  0.00  0.00    +0.000 C 
ENDBRANCH   4  26
BRANCH   1  32
ATOM     31  N   UNL     1       6.787   5.580  20.120  0.00  0.00    +0.000 NA
ATOM     32  C   UNL     1       6.587   5.398  18.990  0.00  0.00    +0.000 C 
ENDBRANCH   1  32
TORSDOF 4
ENDMDL
MODEL 2
REMARK VINA RESULT:      -7.5      9.161     10.704
REMARK  Name = 
REMARK  4 active torsions:
REMARK  status: ('A' for Active; 'I' for Inactive)
REMARK    1  A    between atoms: C_2  and  C_3
REMARK    2  A    between atoms: C_6  and  C_8
REMARK    3  A    between atoms: C_14  and  C_15
REMARK    4  A    between atoms: C_22  and  C_23
REMARK                            x       y       z     vdW  Elec       q    Type
REMARK                         _______ _______ _______ _____ _____    ______ ____
ROOT
ATOM      1  C   UNL     1       6.494  14.239  22.218  0.00  0.00    +0.000 A 
ATOM      2  C   UNL     1       6.626  14.590  20.888  0.00  0.00    +0.000 A 
ATOM      3  N   UNL     1       5.681  15.376  20.183  0.00  0.00    +0.000 N 
ATOM      4  C   UNL     1       4.322  15.098  20.184  0.00  0.00    +0.000 C 
ATOM      5  O   UNL     1       3.812  14.144  20.760  0.00  0.00    +0.000 OA
ATOM      6  N   UNL     1       7.679  14.238  20.115  0.00  0.00    +0.000 NA
ATOM      7  C   UNL     1       8.588  13.419  20.673  0.00  0.00    +0.000 A 
ATOM      8  N   UNL     1       8.527  13.007  21.944  0.00  0.00    +0.000 NA
ATOM      9  C   UNL     1       7.490  13.400  22.709  0.00  0.00    +0.000 A 
ATOM     10  H   UNL     1       6.054  15.752  19.326  0.00  0.00    +0.000 HD
ENDROOT
BRANCH   9  11
ATOM     11  C   UNL     1       7.391  12.628  23.967  0.00  0.00    +0.000 A 
ATOM     12  C   UNL     1       8.077  12.972  25.157  0.00  0.00    +0.000 A 
ATOM     13  C   UNL     1       7.636  12.503  26.401  0.00  0.00    +0.000 A 
ATOM     14  C   UNL     1       6.521  11.696  26.412  0.00  0.00    +0.000 A 
ATOM     15  C   UNL     1       5.958  11.226  25.250  0.00  0.00    +0.000 A 
ATOM     16  C   UNL     1       6.403  11.624  24.018  0.00  0.00    +0.000 A 
ATOM     17  O   UNL     1       4.819  10.513  25.476  0.00  0.00    +0.000 OA
ATOM     18  C   UNL     1       4.557  10.958  26.820  0.00  0.00    +0.000 C 
ATOM     19  O   UNL     1       5.766  11.367  27.498  0.00  0.00    +0.000 OA
ENDBRANCH   9  11
BRANCH   7  20
ATOM     20  C   UNL     1       9.680  12.863  19.855  0.00  0.00    +0.000 A 
ATOM     21  C   UNL     1       9.632  12.835  18.451  0.00  0.00    +0.000 A 
ATOM     22  C   UNL     1      10.694  12.318  17.698  0.00  0.00    +0.000 A 
ATOM     23  C   UNL     1      11.825  11.807  18.333  0.00  0.00    +0.000 A 
ATOM     24  C   UNL     1      11.890  11.797  19.721  0.00  0.00    +0.000 A 
ATOM     25  C   UNL     1      10.829  12.315  20.467  0.00  0.00    +0.000 A 
ENDBRANCH   7  20
BRANCH   4  26
ATOM     26  C   UNL     1       3.497  16.145  19.432  0.00  0.00    +0.000 C 
ATOM     27  C   UNL     1       3.705  16.170  17.920  0.00  0.00    +0.000 C 
ATOM     28  C   UNL     1       2.569  17.062  17.426  0.00  0.00    +0.000 C 
ATOM     29  C   UNL     1       1.425  16.857  18.419  0.00  0.00    +0.000 C 
ATOM     30  C   UNL     1       1.981  15.951  19.518  0.00  0.00    +0.000 C 
ENDBRANCH   4  26
BRANCH   1  32
ATOM     31  N   UNL     1       4.601  15.106  23.761  0.00  0.00    +0.000 NA
ATOM     32  C   UNL     1       5.455  14.768  23.048  0.00  0.00    +0.000 C 
ENDBRANCH   1  32
TORSDOF 4
ENDMDL
MODEL 3
REMARK VINA RESULT:      -7.4      5.266     12.013
REMARK  Name = 
REMARK  4 active torsions:
REMARK  status: ('A' for Active; 'I' for Inactive)
REMARK    1  A    between atoms: C_2  and  C_3
REMARK    2  A    between atoms: C_6  and  C_8
REMARK    3  A    between atoms: C_14  and  C_15
REMARK    4  A    between atoms: C_22  and  C_23
REMARK                            x       y       z     vdW  Elec       q    Type
REMARK                         _______ _______ _______ _____ _____    ______ ____
ROOT
ATOM      1  C   UNL     1      10.205  11.955  19.669  0.00  0.00    +0.000 A 
ATOM      2  C   UNL     1       9.398  11.003  20.264  0.00  0.00    +0.000 A 
ATOM      3  N   UNL     1       9.018   9.791  19.639  0.00  0.00    +0.000 N 
ATOM      4  C   UNL     1       8.480   9.740  18.361  0.00  0.00    +0.000 C 
ATOM      5  O   UNL     1       8.256  10.724  17.666  0.00  0.00    +0.000 OA
ATOM      6  N   UNL     1       8.896  11.116  21.515  0.00  0.00    +0.000 NA
ATOM      7  C   UNL     1       9.133  12.274  22.157  0.00  0.00    +0.000 A 
ATOM      8  N   UNL     1       9.879  13.260  21.649  0.00  0.00    +0.000 NA
ATOM      9  C   UNL     1      10.403  13.113  20.416  0.00  0.00    +0.000 A 
ATOM     10  H   UNL     1       8.663   9.113  20.294  0.00  0.00    +0.000 HD
ENDROOT
BRANCH   9  11
ATOM     11  C   UNL     1      10.928  14.382  19.870  0.00  0.00    +0.000 A 
ATOM     12  C   UNL     1      12.109  14.477  19.094  0.00  0.00    +0.000 A 
ATOM     13  C   UNL     1      12.331  15.574  18.254  0.00  0.00    +0.000 A 
ATOM     14  C   UNL     1      11.362  16.551  18.222  0.00  0.00    +0.000 A 
ATOM     15  C   UNL     1      10.300  16.544  19.096  0.00  0.00    +0.000 A 
ATOM     16  C   UNL     1      10.088  15.511  19.968  0.00  0.00    +0.000 A 
ATOM     17  O   UNL     1       9.415  17.549  18.846  0.00  0.00    +0.000 OA
ATOM     18  C   UNL     1       9.845  17.879  17.511  0.00  0.00    +0.000 C 
ATOM     19  O   UNL     1      11.232  17.539  17.292  0.00  0.00    +0.000 OA
ENDBRANCH   9  11
BRANCH   7  20
ATOM     20  C   UNL     1       8.493  12.539  23.458  0.00  0.00    +0.000 A 
ATOM     21  C   UNL     1       7.785  11.553  24.166  0.00  0.00    +0.000 A 
ATOM     22  C   UNL     1       7.203  11.829  25.410  0.00  0.00    +0.000 A 
ATOM     23  C   UNL     1       7.306  13.101  25.969  0.00  0.00    +0.000 A 
ATOM     24  C   UNL     1       7.976  14.105  25.280  0.00  0.00    +0.000 A 
ATOM     25  C   UNL     1       8.556  13.825  24.041  0.00  0.00    +0.000 A 
ENDBRANCH   7  20
BRANCH   4  26
ATOM     26  C   UNL     1       8.242   8.310  17.869  0.00  0.00    +0.000 C 
ATOM     27  C   UNL     1       8.315   7.233  18.948  0.00  0.00    +0.000 C 
ATOM     28  C   UNL     1       7.751   5.999  18.249  0.00  0.00    +0.000 C 
ATOM     29  C   UNL     1       6.742   6.529  17.230  0.00  0.00    +0.000 C 
ATOM     30  C   UNL     1       6.848   8.054  17.291  0.00  0.00    +0.000 C 
ENDBRANCH   4  26
BRANCH   1  32
ATOM     31  N   UNL     1      11.434  11.629  17.411  0.00  0.00    +0.000 NA
ATOM     32  C   UNL     1      10.855  11.729  18.414  0.00  0.00    +0.000 C 
ENDBRANCH   1  32
TORSDOF 4
ENDMDL
MODEL 4
REMARK VINA RESULT:      -7.3      8.079     11.602
REMARK  Name = 
REMARK  4 active torsions:
REMARK  status: ('A' for Active; 'I' for Inactive)
REMARK    1  A    between atoms: C_2  and  C_3
REMARK    2  A    between atoms: C_6  and  C_8
REMARK    3  A    between atoms: C_14  and  C_15
REMARK    4  A    between atoms: C_22  and  C_23
REMARK                            x       y       z     vdW  Elec       q    Type
REMARK                         _______ _______ _______ _____ _____    ______ ____
ROOT
ATOM      1  C   UNL     1       0.077  13.394  19.162  0.00  0.00    +0.000 A 
ATOM      2  C   UNL     1      -0.777  12.308  19.212  0.00  0.00    +0.000 A 
ATOM      3  N   UNL     1      -2.176  12.415  19.400  0.00  0.00    +0.000 N 
ATOM      4  C   UNL     1      -2.742  13.164  20.422  0.00  0.00    +0.000 C 
ATOM      5  O   UNL     1      -2.100  13.775  21.269  0.00  0.00    +0.000 OA
ATOM      6  N   UNL     1      -0.375  11.024  19.069  0.00  0.00    +0.000 NA
ATOM      7  C   UNL     1       0.951  10.816  18.970  0.00  0.00    +0.000 A 
ATOM      8  N   UNL     1       1.852  11.803  18.940  0.00  0.00    +0.000 NA
ATOM      9  C   UNL     1       1.428  13.078  19.044  0.00  0.00    +0.000 A 
ATOM     10  H   UNL     1      -2.666  11.572  19.148  0.00  0.00    +0.000 HD
ENDROOT
BRANCH   9  11
ATOM     11  C   UNL     1       2.535  14.022  19.309  0.00  0.00    +0.000 A 
ATOM     12  C   UNL     1       2.936  14.420  20.608  0.00  0.00    +0.000 A 
ATOM     13  C   UNL     1       4.215  14.943  20.835  0.00  0.00    +0.000 A 
ATOM     14  C   UNL     1       5.052  15.059  19.749  0.00  0.00    +0.000 A 
ATOM     15  C   UNL     1       4.609  14.833  18.468  0.00  0.00    +0.000 A 
ATOM     16  C   UNL     1       3.345  14.374  18.210  0.00  0.00    +0.000 A 
ATOM     17  O   UNL     1       5.610  14.921  17.548  0.00  0.00    +0.000 OA
ATOM     18  C   UNL     1       6.730  14.811  18.448  0.00  0.00    +0.000 C 
ATOM     19  O   UNL     1       6.399  15.267  19.779  0.00  0.00    +0.000 OA
ENDBRANCH   9  11
BRANCH   7  20
ATOM     20  C   UNL     1       1.482   9.442  18.969  0.00  0.00    +0.000 A 
ATOM     21  C   UNL     1       2.068   8.860  17.831  0.00  0.00    +0.000 A 
ATOM     22  C   UNL     1       2.582   7.557  17.866  0.00  0.00    +0.000 A 
ATOM     23  C   UNL     1       2.513   6.803  19.035  0.00  0.00    +0.000 A 
ATOM     24  C   UNL     1       1.916   7.342  20.168  0.00  0.00    +0.000 A 
ATOM     25  C   UNL     1       1.406   8.641  20.130  0.00  0.00    +0.000 A 
ENDBRANCH   7  20
BRANCH   4  26
ATOM     26  C   UNL     1      -4.271  13.203  20.358  0.00  0.00    +0.000 C 
ATOM     27  C   UNL     1      -4.901  12.265  19.332  0.00  0.00    +0.000 C 
ATOM     28  C   UNL     1      -6.383  12.291  19.698  0.00  0.00    +0.000 C 
ATOM     29  C   UNL     1      -6.428  12.530  21.208  0.00  0.00    +0.000 C 
ATOM     30  C   UNL     1      -4.979  12.755  21.640  0.00  0.00    +0.000 C 
ENDBRANCH   4  26
BRANCH   1  32
ATOM     31  N   UNL     1      -0.731  15.853  19.056  0.00  0.00    +0.000 NA
ATOM     32  C   UNL     1      -0.402  14.742  19.147  0.00  0.00    +0.000 C 
ENDBRANCH   1  32
TORSDOF 4
ENDMDL
MODEL 5
REMARK VINA RESULT:      -7.1      8.456     11.877
REMARK  Name = 
REMARK  4 active torsions:
REMARK  status: ('A' for Active; 'I' for Inactive)
REMARK    1  A    between atoms: C_2  and  C_3
REMARK    2  A    between atoms: C_6  and  C_8
REMARK    3  A    between atoms: C_14  and  C_15
REMARK    4  A    between atoms: C_22  and  C_23
REMARK                            x       y       z     vdW  Elec       q    Type
REMARK                         _______ _______ _______ _____ _____    ______ ____
ROOT
ATOM      1  C   UNL     1       0.159  13.523  18.956  0.00  0.00    +0.000 A 
ATOM      2  C   UNL     1      -0.687  12.450  19.158  0.00  0.00    +0.000 A 
ATOM      3  N   UNL     1      -2.061  12.579  19.475  0.00  0.00    +0.000 N 
ATOM      4  C   UNL     1      -2.523  13.394  20.499  0.00  0.00    +0.000 C 
ATOM      5  O   UNL     1      -1.800  14.051  21.239  0.00  0.00    +0.000 OA
ATOM      6  N   UNL     1      -0.303  11.157  19.057  0.00  0.00    +0.000 NA
ATOM      7  C   UNL     1       1.006  10.932  18.841  0.00  0.00    +0.000 A 
ATOM      8  N   UNL     1       1.901  11.909  18.661  0.00  0.00    +0.000 NA
ATOM      9  C   UNL     1       1.492  13.190  18.727  0.00  0.00    +0.000 A 
ATOM     10  H   UNL     1      -2.575  11.725  19.326  0.00  0.00    +0.000 HD
ENDROOT
BRANCH   9  11
ATOM     11  C   UNL     1       2.621  14.141  18.822  0.00  0.00    +0.000 A 
ATOM     12  C   UNL     1       3.125  14.876  17.722  0.00  0.00    +0.000 A 
ATOM     13  C   UNL     1       3.868  16.046  17.921  0.00  0.00    +0.000 A 
ATOM     14  C   UNL     1       4.089  16.441  19.221  0.00  0.00    +0.000 A 
ATOM     15  C   UNL     1       3.747  15.642  20.286  0.00  0.00    +0.000 A 
ATOM     16  C   UNL     1       3.069  14.465  20.119  0.00  0.00    +0.000 A 
ATOM     17  O   UNL     1       3.974  16.250  21.484  0.00  0.00    +0.000 OA
ATOM     18  C   UNL     1       4.089  17.606  21.013  0.00  0.00    +0.000 C 
ATOM     19  O   UNL     1       4.526  17.663  19.636  0.00  0.00    +0.000 OA
ENDBRANCH   9  11
BRANCH   7  20
ATOM     20  C   UNL     1       1.532   9.556  18.874  0.00  0.00    +0.000 A 
ATOM     21  C   UNL     1       2.152   8.959  17.763  0.00  0.00    +0.000 A 
ATOM     22  C   UNL     1       2.660   7.655  17.829  0.00  0.00    +0.000 A 
ATOM     23  C   UNL     1       2.551   6.915  19.005  0.00  0.00    +0.000 A 
ATOM     24  C   UNL     1       1.920   7.469  20.111  0.00  0.00    +0.000 A 
ATOM     25  C   UNL     1       1.416   8.770  20.042  0.00  0.00    +0.000 A 
ENDBRANCH   7  20
BRANCH   4  26
ATOM     26  C   UNL     1      -4.050  13.441  20.583  0.00  0.00    +0.000 C 
ATOM     27  C   UNL     1      -4.781  12.503  19.627  0.00  0.00    +0.000 C 
ATOM     28  C   UNL     1      -6.220  12.538  20.135  0.00  0.00    +0.000 C 
ATOM     29  C   UNL     1      -6.119  12.783  21.640  0.00  0.00    +0.000 C 
ATOM     30  C   UNL     1      -4.633  13.002  21.929  0.00  0.00    +0.000 C 
ENDBRANCH   4  26
BRANCH   1  32
ATOM     31  N   UNL     1      -0.626  15.992  18.921  0.00  0.00    +0.000 NA
ATOM     32  C   UNL     1      -0.316  14.872  18.904  0.00  0.00    +0.000 C 
ENDBRANCH   1  32
TORSDOF 4
ENDMDL
MODEL 6
REMARK VINA RESULT:      -7.1      9.000     10.797
REMARK  Name = 
REMARK  4 active torsions:
REMARK  status: ('A' for Active; 'I' for Inactive)
REMARK    1  A    between atoms: C_2  and  C_3
REMARK    2  A    between atoms: C_6  and  C_8
REMARK    3  A    between atoms: C_14  and  C_15
REMARK    4  A    between atoms: C_22  and  C_23
REMARK                            x       y       z     vdW  Elec       q    Type
REMARK                         _______ _______ _______ _____ _____    ______ ____
ROOT
ATOM      1  C   UNL     1       6.259  14.552  21.705  0.00  0.00    +0.000 A 
ATOM      2  C   UNL     1       6.217  14.995  20.397  0.00  0.00    +0.000 A 
ATOM      3  N   UNL     1       5.140  15.733  19.849  0.00  0.00    +0.000 N 
ATOM      4  C   UNL     1       3.817  15.334  19.968  0.00  0.00    +0.000 C 
ATOM      5  O   UNL     1       3.454  14.303  20.524  0.00  0.00    +0.000 OA
ATOM      6  N   UNL     1       7.208  14.789  19.498  0.00  0.00    +0.000 NA
ATOM      7  C   UNL     1       8.237  14.023  19.902  0.00  0.00    +0.000 A 
ATOM      8  N   UNL     1       8.348  13.529  21.140  0.00  0.00    +0.000 NA
ATOM      9  C   UNL     1       7.369  13.778  22.032  0.00  0.00    +0.000 A 
ATOM     10  H   UNL     1       5.386  16.195  18.988  0.00  0.00    +0.000 HD
ENDROOT
BRANCH   9  11
ATOM     11  C   UNL     1       7.470  12.924  23.235  0.00  0.00    +0.000 A 
ATOM     12  C   UNL     1       8.349  13.186  24.314  0.00  0.00    +0.000 A 
ATOM     13  C   UNL     1       8.115  12.636  25.580  0.00  0.00    +0.000 A 
ATOM     14  C   UNL     1       7.008  11.831  25.724  0.00  0.00    +0.000 A 
ATOM     15  C   UNL     1       6.253  11.441  24.644  0.00  0.00    +0.000 A 
ATOM     16  C   UNL     1       6.492  11.920  23.384  0.00  0.00    +0.000 A 
ATOM     17  O   UNL     1       5.159  10.716  25.009  0.00  0.00    +0.000 OA
ATOM     18  C   UNL     1       5.129  11.071  26.404  0.00  0.00    +0.000 C 
ATOM     19  O   UNL     1       6.439  11.431  26.897  0.00  0.00    +0.000 OA
ENDBRANCH   9  11
BRANCH   7  20
ATOM     20  C   UNL     1       9.278  13.621  18.940  0.00  0.00    +0.000 A 
ATOM     21  C   UNL     1       9.604  12.275  18.699  0.00  0.00    +0.000 A 
ATOM     22  C   UNL     1      10.586  11.922  17.764  0.00  0.00    +0.000 A 
ATOM     23  C   UNL     1      11.271  12.907  17.055  0.00  0.00    +0.000 A 
ATOM     24  C   UNL     1      10.989  14.248  17.291  0.00  0.00    +0.000 A 
ATOM     25  C   UNL     1      10.009  14.595  18.223  0.00  0.00    +0.000 A 
ENDBRANCH   7  20
BRANCH   4  26
ATOM     26  C   UNL     1       2.831  16.346  19.380  0.00  0.00    +0.000 C 
ATOM     27  C   UNL     1       3.047  16.680  17.907  0.00  0.00    +0.000 C 
ATOM     28  C   UNL     1       1.780  17.442  17.531  0.00  0.00    +0.000 C 
ATOM     29  C   UNL     1       0.677  16.871  18.423  0.00  0.00    +0.000 C 
ATOM     30  C   UNL     1       1.371  15.887  19.366  0.00  0.00    +0.000 C 
ENDBRANCH   4  26
BRANCH   1  32
ATOM     31  N   UNL     1       4.431  15.152  23.441  0.00  0.00    +0.000 NA
ATOM     32  C   UNL     1       5.274  14.931  22.672  0.00  0.00    +0.000 C 
ENDBRANCH   1  32
TORSDOF 4
ENDMDL
MODEL 7
REMARK VINA RESULT:      -7.1      8.907     10.783
REMARK  Name = 
REMARK  4 active torsions:
REMARK  status: ('A' for Active; 'I' for Inactive)
REMARK    1  A    between atoms: C_2  and  C_3
REMARK    2  A    between atoms: C_6  and  C_8
REMARK    3  A    between atoms: C_14  and  C_15
REMARK    4  A    between atoms: C_22  and  C_23
REMARK                            x       y       z     vdW  Elec       q    Type
REMARK                         _______ _______ _______ _____ _____    ______ ____
ROOT
ATOM      1  C   UNL     1       6.484  14.253  22.356  0.00  0.00    +0.000 A 
ATOM      2  C   UNL     1       6.628  14.625  21.033  0.00  0.00    +0.000 A 
ATOM      3  N   UNL     1       5.699  15.435  20.337  0.00  0.00    +0.000 N 
ATOM      4  C   UNL     1       4.336  15.175  20.324  0.00  0.00    +0.000 C 
ATOM      5  O   UNL     1       3.810  14.218  20.881  0.00  0.00    +0.000 OA
ATOM      6  N   UNL     1       7.682  14.273  20.261  0.00  0.00    +0.000 NA
ATOM      7  C   UNL     1       8.577  13.432  20.810  0.00  0.00    +0.000 A 
ATOM      8  N   UNL     1       8.503  12.999  22.074  0.00  0.00    +0.000 NA
ATOM      9  C   UNL     1       7.466  13.393  22.839  0.00  0.00    +0.000 A 
ATOM     10  H   UNL     1       6.081  15.821  19.488  0.00  0.00    +0.000 HD
ENDROOT
BRANCH   9  11
ATOM     11  C   UNL     1       7.349  12.601  24.082  0.00  0.00    +0.000 A 
ATOM     12  C   UNL     1       8.030  12.916  25.283  0.00  0.00    +0.000 A 
ATOM     13  C   UNL     1       7.575  12.431  26.515  0.00  0.00    +0.000 A 
ATOM     14  C   UNL     1       6.451  11.637  26.505  0.00  0.00    +0.000 A 
ATOM     15  C   UNL     1       5.890  11.194  25.331  0.00  0.00    +0.000 A 
ATOM     16  C   UNL     1       6.349  11.607  24.109  0.00  0.00    +0.000 A 
ATOM     17  O   UNL     1       4.742  10.490  25.536  0.00  0.00    +0.000 OA
ATOM     18  C   UNL     1       4.475  10.915  26.886  0.00  0.00    +0.000 C 
ATOM     19  O   UNL     1       5.685  11.298  27.580  0.00  0.00    +0.000 OA
ENDBRANCH   9  11
BRANCH   7  20
ATOM     20  C   UNL     1       9.667  12.877  19.989  0.00  0.00    +0.000 A 
ATOM     21  C   UNL     1      11.020  12.993  20.352  0.00  0.00    +0.000 A 
ATOM     22  C   UNL     1      12.034  12.438  19.560  0.00  0.00    +0.000 A 
ATOM     23  C   UNL     1      11.719  11.763  18.383  0.00  0.00    +0.000 A 
ATOM     24  C   UNL     1      10.392  11.655  17.984  0.00  0.00    +0.000 A 
ATOM     25  C   UNL     1       9.384  12.209  18.777  0.00  0.00    +0.000 A 
ENDBRANCH   7  20
BRANCH   4  26
ATOM     26  C   UNL     1       3.530  16.246  19.585  0.00  0.00    +0.000 C 
ATOM     27  C   UNL     1       2.435  15.713  18.666  0.00  0.00    +0.000 C 
ATOM     28  C   UNL     1       1.629  16.962  18.321  0.00  0.00    +0.000 C 
ATOM     29  C   UNL     1       1.753  17.880  19.538  0.00  0.00    +0.000 C 
ATOM     30  C   UNL     1       2.724  17.182  20.491  0.00  0.00    +0.000 C 
ENDBRANCH   4  26
BRANCH   1  32
ATOM     31  N   UNL     1       4.673  15.219  23.938  0.00  0.00    +0.000 NA
ATOM     32  C   UNL     1       5.447  14.781  23.189  0.00  0.00    +0.000 C 
ENDBRANCH   1  32
TORSDOF 4
ENDMDL
MODEL 8
REMARK VINA RESULT:      -7.0      9.892     11.803
REMARK  Name = 
REMARK  4 active torsions:
REMARK  status: ('A' for Active; 'I' for Inactive)
REMARK    1  A    between atoms: C_2  and  C_3
REMARK    2  A    between atoms: C_6  and  C_8
REMARK    3  A    between atoms: C_14  and  C_15
REMARK    4  A    between atoms: C_22  and  C_23
REMARK                            x       y       z     vdW  Elec       q    Type
REMARK                         _______ _______ _______ _____ _____    ______ ____
ROOT
ATOM      1  C   UNL     1      -0.803  13.668  21.017  0.00  0.00    +0.000 A 
ATOM      2  C   UNL     1      -0.106  13.338  19.871  0.00  0.00    +0.000 A 
ATOM      3  N   UNL     1       1.218  13.764  19.604  0.00  0.00    +0.000 N 
ATOM      4  C   UNL     1       1.617  15.088  19.707  0.00  0.00    +0.000 C 
ATOM      5  O   UNL     1       0.871  16.014  20.006  0.00  0.00    +0.000 OA
ATOM      6  N   UNL     1      -0.603  12.557  18.884  0.00  0.00    +0.000 NA
ATOM      7  C   UNL     1      -1.886  12.173  19.009  0.00  0.00    +0.000 A 
ATOM      8  N   UNL     1      -2.645  12.469  20.070  0.00  0.00    +0.000 NA
ATOM      9  C   UNL     1      -2.119  13.215  21.061  0.00  0.00    +0.000 A 
ATOM     10  H   UNL     1       1.657  13.227  18.873  0.00  0.00    +0.000 HD
ENDROOT
BRANCH   9  11
ATOM     11  C   UNL     1      -3.147  13.717  21.997  0.00  0.00    +0.000 A 
ATOM     12  C   UNL     1      -3.854  14.930  21.813  0.00  0.00    +0.000 A 
ATOM     13  C   UNL     1      -5.081  15.150  22.452  0.00  0.00    +0.000 A 
ATOM     14  C   UNL     1      -5.559  14.146  23.263  0.00  0.00    +0.000 A 
ATOM     15  C   UNL     1      -4.798  13.045  23.575  0.00  0.00    +0.000 A 
ATOM     16  C   UNL     1      -3.570  12.831  23.009  0.00  0.00    +0.000 A 
ATOM     17  O   UNL     1      -5.483  12.135  24.323  0.00  0.00    +0.000 OA
ATOM     18  C   UNL     1      -6.816  12.616  24.067  0.00  0.00    +0.000 C 
ATOM     19  O   UNL     1      -6.829  14.024  23.744  0.00  0.00    +0.000 OA
ENDBRANCH   9  11
BRANCH   7  20
ATOM     20  C   UNL     1      -2.551  11.455  17.907  0.00  0.00    +0.000 A 
ATOM     21  C   UNL     1      -3.883  11.707  17.537  0.00  0.00    +0.000 A 
ATOM     22  C   UNL     1      -4.482  11.020  16.472  0.00  0.00    +0.000 A 
ATOM     23  C   UNL     1      -3.767  10.060  15.761  0.00  0.00    +0.000 A 
ATOM     24  C   UNL     1      -2.456   9.770  16.121  0.00  0.00    +0.000 A 
ATOM     25  C   UNL     1      -1.862  10.457  17.182  0.00  0.00    +0.000 A 
ENDBRANCH   7  20
BRANCH   4  26
ATOM     26  C   UNL     1       3.116  15.282  19.463  0.00  0.00    +0.000 C 
ATOM     27  C   UNL     1       3.670  14.571  18.233  0.00  0.00    +0.000 C 
ATOM     28  C   UNL     1       5.062  15.175  18.076  0.00  0.00    +0.000 C 
ATOM     29  C   UNL     1       4.955  16.599  18.621  0.00  0.00    +0.000 C 
ATOM     30  C   UNL     1       3.539  16.727  19.184  0.00  0.00    +0.000 C 
ENDBRANCH   4  26
BRANCH   1  32
ATOM     31  N   UNL     1       0.229  14.886  23.059  0.00  0.00    +0.000 NA
ATOM     32  C   UNL     1      -0.189  14.353  22.114  0.00  0.00    +0.000 C 
ENDBRANCH   1  32
TORSDOF 4
ENDMDL
MODEL 9
REMARK VINA RESULT:      -7.0      8.323     11.721
REMARK  Name = 
REMARK  4 active torsions:
REMARK  status: ('A' for Active; 'I' for Inactive)
REMARK    1  A    between atoms: C_2  and  C_3
REMARK    2  A    between atoms: C_6  and  C_8
REMARK    3  A    between atoms: C_14  and  C_15
REMARK    4  A    between atoms: C_22  and  C_23
REMARK                            x       y       z     vdW  Elec       q    Type
REMARK                         _______ _______ _______ _____ _____    ______ ____
ROOT
ATOM      1  C   UNL     1       0.027  12.937  19.868  0.00  0.00    +0.000 A 
ATOM      2  C   UNL     1      -0.685  11.824  20.274  0.00  0.00    +0.000 A 
ATOM      3  N   UNL     1      -1.916  11.888  20.970  0.00  0.00    +0.000 N 
ATOM      4  C   UNL     1      -2.101  12.668  22.102  0.00  0.00    +0.000 C 
ATOM      5  O   UNL     1      -1.225  13.347  22.624  0.00  0.00    +0.000 OA
ATOM      6  N   UNL     1      -0.294  10.551  20.036  0.00  0.00    +0.000 NA
ATOM      7  C   UNL     1       0.908  10.388  19.455  0.00  0.00    +0.000 A 
ATOM      8  N   UNL     1       1.677  11.406  19.053  0.00  0.00    +0.000 NA
ATOM      9  C   UNL     1       1.252  12.667  19.264  0.00  0.00    +0.000 A 
ATOM     10  H   UNL     1      -2.417  11.014  20.950  0.00  0.00    +0.000 HD
ENDROOT
BRANCH   9  11
ATOM     11  C   UNL     1       2.323  13.666  19.061  0.00  0.00    +0.000 A 
ATOM     12  C   UNL     1       2.574  14.311  17.825  0.00  0.00    +0.000 A 
ATOM     13  C   UNL     1       3.273  15.523  17.776  0.00  0.00    +0.000 A 
ATOM     14  C   UNL     1       3.707  16.050  18.971  0.00  0.00    +0.000 A 
ATOM     15  C   UNL     1       3.614  15.345  20.148  0.00  0.00    +0.000 A 
ATOM     16  C   UNL     1       2.984  14.132  20.215  0.00  0.00    +0.000 A 
ATOM     17  O   UNL     1       4.024  16.074  21.223  0.00  0.00    +0.000 OA
ATOM     18  C   UNL     1       3.972  17.382  20.622  0.00  0.00    +0.000 C 
ATOM     19  O   UNL     1       4.144  17.323  19.188  0.00  0.00    +0.000 OA
ENDBRANCH   9  11
BRANCH   7  20
ATOM     20  C   UNL     1       1.476   9.037  19.303  0.00  0.00    +0.000 A 
ATOM     21  C   UNL     1       2.040   8.587  18.097  0.00  0.00    +0.000 A 
ATOM     22  C   UNL     1       2.590   7.303  17.988  0.00  0.00    +0.000 A 
ATOM     23  C   UNL     1       2.579   6.437  19.079  0.00  0.00    +0.000 A 
ATOM     24  C   UNL     1       2.005   6.844  20.277  0.00  0.00    +0.000 A 
ATOM     25  C   UNL     1       1.459   8.125  20.382  0.00  0.00    +0.000 A 
ENDBRANCH   7  20
BRANCH   4  26
ATOM     26  C   UNL     1      -3.543  12.645  22.615  0.00  0.00    +0.000 C 
ATOM     27  C   UNL     1      -3.702  12.281  24.088  0.00  0.00    +0.000 C 
ATOM     28  C   UNL     1      -5.158  12.631  24.380  0.00  0.00    +0.000 C 
ATOM     29  C   UNL     1      -5.496  13.795  23.449  0.00  0.00    +0.000 C 
ATOM     30  C   UNL     1      -4.263  13.996  22.567  0.00  0.00    +0.000 C 
ENDBRANCH   4  26
BRANCH   1  32
ATOM     31  N   UNL     1      -0.873  15.364  19.998  0.00  0.00    +0.000 NA
ATOM     32  C   UNL     1      -0.497  14.264  19.986  0.00  0.00    +0.000 C 
ENDBRANCH   1  32
TORSDOF 4
ENDMDL
