MODEL 1
REMARK VINA RESULT:      -6.0      0.000      0.000
REMARK  Name = 
REMARK  17 active torsions:
REMARK  status: ('A' for Active; 'I' for Inactive)
REMARK    1  A    between atoms: C_1  and  C_2
REMARK    2  A    between atoms: C_2  and  C_3
REMARK    3  A    between atoms: C_3  and  C_4
REMARK    4  A    between atoms: C_4  and  C_5
REMARK    5  A    between atoms: C_5  and  C_6
REMARK    6  A    between atoms: C_6  and  C_7
REMARK    7  A    between atoms: C_7  and  C_8
REMARK    8  A    between atoms: C_8  and  C_9
REMARK    9  A    between atoms: C_9  and  C_10
REMARK   10  A    between atoms: C_10  and  C_11
REMARK   11  A    between atoms: C_11  and  C_12
REMARK   12  A    between atoms: C_12  and  C_13
REMARK   13  A    between atoms: C_13  and  C_14
REMARK   14  A    between atoms: C_14  and  C_15
REMARK   15  A    between atoms: C_15  and  C_16
REMARK   16  A    between atoms: C_16  and  C_17
REMARK   17  A    between atoms: C_17  and  C_19
REMARK                            x       y       z     vdW  Elec       q    Type
REMARK                         _______ _______ _______ _____ _____    ______ ____
ROOT
ATOM      1  C   UNL     1       5.338   6.085  15.548  0.00  0.00    +0.000 C 
ENDROOT
BRANCH   1   2
ATOM      2  C   UNL     1       5.125   4.629  15.166  0.00  0.00    +0.000 C 
BRANCH   2   3
ATOM      3  C   UNL     1       6.450   3.974  14.817  0.00  0.00    +0.000 C 
BRANCH   3   4
ATOM      4  C   UNL     1       7.156   4.772  13.734  0.00  0.00    +0.000 C 
BRANCH   4   5
ATOM      5  C   UNL     1       6.767   4.255  12.360  0.00  0.00    +0.000 C 
BRANCH   5   6
ATOM      6  C   UNL     1       6.264   2.825  12.459  0.00  0.00    +0.000 C 
BRANCH   6   7
ATOM      7  C   UNL     1       5.235   2.551  11.375  0.00  0.00    +0.000 C 
BRANCH   7   8
ATOM      8  C   UNL     1       4.064   3.517  11.496  0.00  0.00    +0.000 C 
BRANCH   8   9
ATOM      9  C   UNL     1       3.006   3.203  10.446  0.00  0.00    +0.000 C 
BRANCH   9  11
ATOM     10  C   UNL     1       2.101   5.053   9.017  0.00  0.00    +0.000 C 
ATOM     11  C   UNL     1       3.221   4.040   9.191  0.00  0.00    +0.000 C 
ENDBRANCH   9  11
ENDBRANCH   8   9
ENDBRANCH   7   8
ENDBRANCH   6   7
ENDBRANCH   5   6
ENDBRANCH   4   5
ENDBRANCH   3   4
ENDBRANCH   2   3
ENDBRANCH   1   2
BRANCH   1  12
ATOM     12  C   UNL     1       4.909   6.318  16.988  0.00  0.00    +0.000 C 
BRANCH  12  13
ATOM     13  C   UNL     1       6.128   6.421  17.889  0.00  0.00    +0.000 C 
BRANCH  13  14
ATOM     14  C   UNL     1       6.103   5.336  18.957  0.00  0.00    +0.000 C 
BRANCH  14  15
ATOM     15  C   UNL     1       5.023   4.315  18.625  0.00  0.00    +0.000 C 
BRANCH  15  16
ATOM     16  C   UNL     1       3.922   4.302  19.677  0.00  0.00    +0.000 C 
BRANCH  16  17
ATOM     17  C   UNL     1       2.769   3.400  19.260  0.00  0.00    +0.000 C 
ATOM     18  O   UNL     1       2.491   2.374  19.885  0.00  0.00    +0.000 OA
BRANCH  17  19
ATOM     19  C   UNL     1       2.002   3.850  18.030  0.00  0.00    +0.000 C 
ATOM     20  F   UNL     1       1.991   5.206  17.885  0.00  0.00    +0.000 F 
ATOM     21  F   UNL     1       2.530   3.352  16.881  0.00  0.00    +0.000 F 
ATOM     22  F   UNL     1       0.698   3.464  18.066  0.00  0.00    +0.000 F 
ENDBRANCH  17  19
ENDBRANCH  16  17
ENDBRANCH  15  16
ENDBRANCH  14  15
ENDBRANCH  13  14
ENDBRANCH  12  13
ENDBRANCH   1  12
TORSDOF 16
ENDMDL
MODEL 2
REMARK VINA RESULT:      -5.8      2.266      3.520
REMARK  Name = 
REMARK  17 active torsions:
REMARK  status: ('A' for Active; 'I' for Inactive)
REMARK    1  A    between atoms: C_1  and  C_2
REMARK    2  A    between atoms: C_2  and  C_3
REMARK    3  A    between atoms: C_3  and  C_4
REMARK    4  A    between atoms: C_4  and  C_5
REMARK    5  A    between atoms: C_5  and  C_6
REMARK    6  A    between atoms: C_6  and  C_7
REMARK    7  A    between atoms: C_7  and  C_8
REMARK    8  A    between atoms: C_8  and  C_9
REMARK    9  A    between atoms: C_9  and  C_10
REMARK   10  A    between atoms: C_10  and  C_11
REMARK   11  A    between atoms: C_11  and  C_12
REMARK   12  A    between atoms: C_12  and  C_13
REMARK   13  A    between atoms: C_13  and  C_14
REMARK   14  A    between atoms: C_14  and  C_15
REMARK   15  A    between atoms: C_15  and  C_16
REMARK   16  A    between atoms: C_16  and  C_17
REMARK   17  A    between atoms: C_17  and  C_19
REMARK                            x       y       z     vdW  Elec       q    Type
REMARK                         _______ _______ _______ _____ _____    ______ ____
ROOT
ATOM      1  C   UNL     1       6.415   5.510  19.081  0.00  0.00    +0.000 C 
ENDROOT
BRANCH   1   2
ATOM      2  C   UNL     1       6.885   6.005  17.723  0.00  0.00    +0.000 C 
BRANCH   2   3
ATOM      3  C   UNL     1       5.865   6.958  17.125  0.00  0.00    +0.000 C 
BRANCH   3   4
ATOM      4  C   UNL     1       5.614   6.606  15.668  0.00  0.00    +0.000 C 
BRANCH   4   5
ATOM      5  C   UNL     1       6.132   5.210  15.368  0.00  0.00    +0.000 C 
BRANCH   5   6
ATOM      6  C   UNL     1       5.355   4.596  14.215  0.00  0.00    +0.000 C 
BRANCH   6   7
ATOM      7  C   UNL     1       6.148   3.461  13.589  0.00  0.00    +0.000 C 
BRANCH   7   8
ATOM      8  C   UNL     1       6.027   3.501  12.072  0.00  0.00    +0.000 C 
BRANCH   8   9
ATOM      9  C   UNL     1       5.445   2.194  11.550  0.00  0.00    +0.000 C 
BRANCH   9  11
ATOM     10  C   UNL     1       6.123  -0.208  11.324  0.00  0.00    +0.000 C 
ATOM     11  C   UNL     1       6.552   1.237  11.126  0.00  0.00    +0.000 C 
ENDBRANCH   9  11
ENDBRANCH   8   9
ENDBRANCH   7   8
ENDBRANCH   6   7
ENDBRANCH   5   6
ENDBRANCH   4   5
ENDBRANCH   3   4
ENDBRANCH   2   3
ENDBRANCH   1   2
BRANCH   1  12
ATOM     12  C   UNL     1       5.840   4.107  18.958  0.00  0.00    +0.000 C 
BRANCH  12  13
ATOM     13  C   UNL     1       4.359   4.175  18.625  0.00  0.00    +0.000 C 
BRANCH  13  14
ATOM     14  C   UNL     1       4.036   3.304  17.420  0.00  0.00    +0.000 C 
BRANCH  14  15
ATOM     15  C   UNL     1       2.534   3.063  17.348  0.00  0.00    +0.000 C 
BRANCH  15  16
ATOM     16  C   UNL     1       1.780   3.921  18.354  0.00  0.00    +0.000 C 
BRANCH  16  17
ATOM     17  C   UNL     1       1.067   3.063  19.389  0.00  0.00    +0.000 C 
ATOM     18  O   UNL     1       0.100   2.358  19.091  0.00  0.00    +0.000 OA
BRANCH  17  19
ATOM     19  C   UNL     1       1.625   3.144  20.799  0.00  0.00    +0.000 C 
ATOM     20  F   UNL     1       1.819   4.428  21.214  0.00  0.00    +0.000 F 
ATOM     21  F   UNL     1       0.798   2.572  21.714  0.00  0.00    +0.000 F 
ATOM     22  F   UNL     1       2.830   2.524  20.913  0.00  0.00    +0.000 F 
ENDBRANCH  17  19
ENDBRANCH  16  17
ENDBRANCH  15  16
ENDBRANCH  14  15
ENDBRANCH  13  14
ENDBRANCH  12  13
ENDBRANCH   1  12
TORSDOF 16
ENDMDL
MODEL 3
REMARK VINA RESULT:      -5.8      2.045      3.229
REMARK  Name = 
REMARK  17 active torsions:
REMARK  status: ('A' for Active; 'I' for Inactive)
REMARK    1  A    between atoms: C_1  and  C_2
REMARK    2  A    between atoms: C_2  and  C_3
REMARK    3  A    between atoms: C_3  and  C_4
REMARK    4  A    between atoms: C_4  and  C_5
REMARK    5  A    between atoms: C_5  and  C_6
REMARK    6  A    between atoms: C_6  and  C_7
REMARK    7  A    between atoms: C_7  and  C_8
REMARK    8  A    between atoms: C_8  and  C_9
REMARK    9  A    between atoms: C_9  and  C_10
REMARK   10  A    between atoms: C_10  and  C_11
REMARK   11  A    between atoms: C_11  and  C_12
REMARK   12  A    between atoms: C_12  and  C_13
REMARK   13  A    between atoms: C_13  and  C_14
REMARK   14  A    between atoms: C_14  and  C_15
REMARK   15  A    between atoms: C_15  and  C_16
REMARK   16  A    between atoms: C_16  and  C_17
REMARK   17  A    between atoms: C_17  and  C_19
REMARK                            x       y       z     vdW  Elec       q    Type
REMARK                         _______ _______ _______ _____ _____    ______ ____
ROOT
ATOM      1  C   UNL     1       4.851   6.853  17.098  0.00  0.00    +0.000 C 
ENDROOT
BRANCH   1   2
ATOM      2  C   UNL     1       6.371   6.845  17.112  0.00  0.00    +0.000 C 
BRANCH   2   3
ATOM      3  C   UNL     1       6.885   5.846  18.134  0.00  0.00    +0.000 C 
BRANCH   3   4
ATOM      4  C   UNL     1       7.254   4.541  17.448  0.00  0.00    +0.000 C 
BRANCH   4   5
ATOM      5  C   UNL     1       7.337   4.743  15.945  0.00  0.00    +0.000 C 
BRANCH   5   6
ATOM      6  C   UNL     1       6.387   3.796  15.232  0.00  0.00    +0.000 C 
BRANCH   6   7
ATOM      7  C   UNL     1       5.481   4.569  14.288  0.00  0.00    +0.000 C 
BRANCH   7   8
ATOM      8  C   UNL     1       4.975   3.663  13.173  0.00  0.00    +0.000 C 
BRANCH   8   9
ATOM      9  C   UNL     1       6.145   3.071  12.398  0.00  0.00    +0.000 C 
BRANCH   9  11
ATOM     10  C   UNL     1       6.768   1.118  10.956  0.00  0.00    +0.000 C 
ATOM     11  C   UNL     1       5.656   2.074  11.354  0.00  0.00    +0.000 C 
ENDBRANCH   9  11
ENDBRANCH   8   9
ENDBRANCH   7   8
ENDBRANCH   6   7
ENDBRANCH   5   6
ENDBRANCH   4   5
ENDBRANCH   3   4
ENDBRANCH   2   3
ENDBRANCH   1   2
BRANCH   1  12
ATOM     12  C   UNL     1       4.310   6.270  18.394  0.00  0.00    +0.000 C 
BRANCH  12  13
ATOM     13  C   UNL     1       2.797   6.397  18.435  0.00  0.00    +0.000 C 
BRANCH  13  14
ATOM     14  C   UNL     1       2.295   6.414  19.872  0.00  0.00    +0.000 C 
BRANCH  14  15
ATOM     15  C   UNL     1       1.790   5.029  20.255  0.00  0.00    +0.000 C 
BRANCH  15  16
ATOM     16  C   UNL     1       1.520   4.171  19.027  0.00  0.00    +0.000 C 
BRANCH  16  17
ATOM     17  C   UNL     1       2.256   2.841  19.109  0.00  0.00    +0.000 C 
ATOM     18  O   UNL     1       1.965   1.990  19.953  0.00  0.00    +0.000 OA
BRANCH  17  19
ATOM     19  C   UNL     1       3.365   2.646  18.090  0.00  0.00    +0.000 C 
ATOM     20  F   UNL     1       4.602   2.888  18.609  0.00  0.00    +0.000 F 
ATOM     21  F   UNL     1       3.400   1.377  17.603  0.00  0.00    +0.000 F 
ATOM     22  F   UNL     1       3.234   3.476  17.021  0.00  0.00    +0.000 F 
ENDBRANCH  17  19
ENDBRANCH  16  17
ENDBRANCH  15  16
ENDBRANCH  14  15
ENDBRANCH  13  14
ENDBRANCH  12  13
ENDBRANCH   1  12
TORSDOF 16
ENDMDL
MODEL 4
REMARK VINA RESULT:      -5.8      3.697      6.289
REMARK  Name = 
REMARK  17 active torsions:
REMARK  status: ('A' for Active; 'I' for Inactive)
REMARK    1  A    between atoms: C_1  and  C_2
REMARK    2  A    between atoms: C_2  and  C_3
REMARK    3  A    between atoms: C_3  and  C_4
REMARK    4  A    between atoms: C_4  and  C_5
REMARK    5  A    between atoms: C_5  and  C_6
REMARK    6  A    between atoms: C_6  and  C_7
REMARK    7  A    between atoms: C_7  and  C_8
REMARK    8  A    between atoms: C_8  and  C_9
REMARK    9  A    between atoms: C_9  and  C_10
REMARK   10  A    between atoms: C_10  and  C_11
REMARK   11  A    between atoms: C_11  and  C_12
REMARK   12  A    between atoms: C_12  and  C_13
REMARK   13  A    between atoms: C_13  and  C_14
REMARK   14  A    between atoms: C_14  and  C_15
REMARK   15  A    between atoms: C_15  and  C_16
REMARK   16  A    between atoms: C_16  and  C_17
REMARK   17  A    between atoms: C_17  and  C_19
REMARK                            x       y       z     vdW  Elec       q    Type
REMARK                         _______ _______ _______ _____ _____    ______ ____
ROOT
ATOM      1  C   UNL     1       5.076   6.229  15.985  0.00  0.00    +0.000 C 
ENDROOT
BRANCH   1   2
ATOM      2  C   UNL     1       5.086   4.718  15.828  0.00  0.00    +0.000 C 
BRANCH   2   3
ATOM      3  C   UNL     1       6.418   4.146  16.283  0.00  0.00    +0.000 C 
BRANCH   3   4
ATOM      4  C   UNL     1       7.371   5.272  16.645  0.00  0.00    +0.000 C 
BRANCH   4   5
ATOM      5  C   UNL     1       7.606   5.301  18.146  0.00  0.00    +0.000 C 
BRANCH   5   6
ATOM      6  C   UNL     1       7.860   6.725  18.612  0.00  0.00    +0.000 C 
BRANCH   6   7
ATOM      7  C   UNL     1       7.823   7.681  17.432  0.00  0.00    +0.000 C 
BRANCH   7   8
ATOM      8  C   UNL     1       7.933   9.123  17.911  0.00  0.00    +0.000 C 
BRANCH   8   9
ATOM      9  C   UNL     1       9.015   9.248  18.975  0.00  0.00    +0.000 C 
BRANCH   9  11
ATOM     10  C   UNL     1       9.245  11.530  17.963  0.00  0.00    +0.000 C 
ATOM     11  C   UNL     1       9.350  10.712  19.240  0.00  0.00    +0.000 C 
ENDBRANCH   9  11
ENDBRANCH   8   9
ENDBRANCH   7   8
ENDBRANCH   6   7
ENDBRANCH   5   6
ENDBRANCH   4   5
ENDBRANCH   3   4
ENDBRANCH   2   3
ENDBRANCH   1   2
BRANCH   1  12
ATOM     12  C   UNL     1       3.907   6.659  16.858  0.00  0.00    +0.000 C 
BRANCH  12  13
ATOM     13  C   UNL     1       4.268   6.514  18.327  0.00  0.00    +0.000 C 
BRANCH  13  14
ATOM     14  C   UNL     1       3.818   5.162  18.862  0.00  0.00    +0.000 C 
BRANCH  14  15
ATOM     15  C   UNL     1       2.401   4.867  18.387  0.00  0.00    +0.000 C 
BRANCH  15  16
ATOM     16  C   UNL     1       1.419   4.815  19.550  0.00  0.00    +0.000 C 
BRANCH  16  17
ATOM     17  C   UNL     1       1.237   3.392  20.056  0.00  0.00    +0.000 C 
ATOM     18  O   UNL     1       0.562   2.565  19.437  0.00  0.00    +0.000 OA
BRANCH  17  19
ATOM     19  C   UNL     1       1.932   3.072  21.367  0.00  0.00    +0.000 C 
ATOM     20  F   UNL     1       3.014   2.258  21.203  0.00  0.00    +0.000 F 
ATOM     21  F   UNL     1       2.391   4.188  21.994  0.00  0.00    +0.000 F 
ATOM     22  F   UNL     1       1.111   2.435  22.245  0.00  0.00    +0.000 F 
ENDBRANCH  17  19
ENDBRANCH  16  17
ENDBRANCH  15  16
ENDBRANCH  14  15
ENDBRANCH  13  14
ENDBRANCH  12  13
ENDBRANCH   1  12
TORSDOF 16
ENDMDL
MODEL 5
REMARK VINA RESULT:      -5.7      1.902      3.555
REMARK  Name = 
REMARK  17 active torsions:
REMARK  status: ('A' for Active; 'I' for Inactive)
REMARK    1  A    between atoms: C_1  and  C_2
REMARK    2  A    between atoms: C_2  and  C_3
REMARK    3  A    between atoms: C_3  and  C_4
REMARK    4  A    between atoms: C_4  and  C_5
REMARK    5  A    between atoms: C_5  and  C_6
REMARK    6  A    between atoms: C_6  and  C_7
REMARK    7  A    between atoms: C_7  and  C_8
REMARK    8  A    between atoms: C_8  and  C_9
REMARK    9  A    between atoms: C_9  and  C_10
REMARK   10  A    between atoms: C_10  and  C_11
REMARK   11  A    between atoms: C_11  and  C_12
REMARK   12  A    between atoms: C_12  and  C_13
REMARK   13  A    between atoms: C_13  and  C_14
REMARK   14  A    between atoms: C_14  and  C_15
REMARK   15  A    between atoms: C_15  and  C_16
REMARK   16  A    between atoms: C_16  and  C_17
REMARK   17  A    between atoms: C_17  and  C_19
REMARK                            x       y       z     vdW  Elec       q    Type
REMARK                         _______ _______ _______ _____ _____    ______ ____
ROOT
ATOM      1  C   UNL     1       2.455   6.865  18.027  0.00  0.00    +0.000 C 
ENDROOT
BRANCH   1   2
ATOM      2  C   UNL     1       3.667   6.058  17.591  0.00  0.00    +0.000 C 
BRANCH   2   3
ATOM      3  C   UNL     1       4.772   6.981  17.108  0.00  0.00    +0.000 C 
BRANCH   3   4
ATOM      4  C   UNL     1       5.950   6.164  16.605  0.00  0.00    +0.000 C 
BRANCH   4   5
ATOM      5  C   UNL     1       5.714   4.686  16.864  0.00  0.00    +0.000 C 
BRANCH   5   6
ATOM      6  C   UNL     1       5.474   3.953  15.554  0.00  0.00    +0.000 C 
BRANCH   6   7
ATOM      7  C   UNL     1       6.256   4.611  14.430  0.00  0.00    +0.000 C 
BRANCH   7   8
ATOM      8  C   UNL     1       6.248   3.729  13.188  0.00  0.00    +0.000 C 
BRANCH   8   9
ATOM      9  C   UNL     1       4.855   3.688  12.574  0.00  0.00    +0.000 C 
BRANCH   9  11
ATOM     10  C   UNL     1       5.879   1.730  11.392  0.00  0.00    +0.000 C 
ATOM     11  C   UNL     1       4.844   2.840  11.308  0.00  0.00    +0.000 C 
ENDBRANCH   9  11
ENDBRANCH   8   9
ENDBRANCH   7   8
ENDBRANCH   6   7
ENDBRANCH   5   6
ENDBRANCH   4   5
ENDBRANCH   3   4
ENDBRANCH   2   3
ENDBRANCH   1   2
BRANCH   1  12
ATOM     12  C   UNL     1       2.432   7.003  19.541  0.00  0.00    +0.000 C 
BRANCH  12  13
ATOM     13  C   UNL     1       2.811   5.685  20.194  0.00  0.00    +0.000 C 
BRANCH  13  14
ATOM     14  C   UNL     1       1.584   4.804  20.384  0.00  0.00    +0.000 C 
BRANCH  14  15
ATOM     15  C   UNL     1       1.919   3.655  21.325  0.00  0.00    +0.000 C 
BRANCH  15  16
ATOM     16  C   UNL     1       1.710   2.303  20.657  0.00  0.00    +0.000 C 
BRANCH  16  17
ATOM     17  C   UNL     1       1.732   2.426  19.141  0.00  0.00    +0.000 C 
ATOM     18  O   UNL     1       0.707   2.664  18.495  0.00  0.00    +0.000 OA
BRANCH  17  19
ATOM     19  C   UNL     1       3.089   2.231  18.490  0.00  0.00    +0.000 C 
ATOM     20  F   UNL     1       3.130   2.699  17.210  0.00  0.00    +0.000 F 
ATOM     21  F   UNL     1       4.080   2.877  19.161  0.00  0.00    +0.000 F 
ATOM     22  F   UNL     1       3.446   0.920  18.424  0.00  0.00    +0.000 F 
ENDBRANCH  17  19
ENDBRANCH  16  17
ENDBRANCH  15  16
ENDBRANCH  14  15
ENDBRANCH  13  14
ENDBRANCH  12  13
ENDBRANCH   1  12
TORSDOF 16
ENDMDL
MODEL 6
REMARK VINA RESULT:      -5.7      1.557      2.808
REMARK  Name = 
REMARK  17 active torsions:
REMARK  status: ('A' for Active; 'I' for Inactive)
REMARK    1  A    between atoms: C_1  and  C_2
REMARK    2  A    between atoms: C_2  and  C_3
REMARK    3  A    between atoms: C_3  and  C_4
REMARK    4  A    between atoms: C_4  and  C_5
REMARK    5  A    between atoms: C_5  and  C_6
REMARK    6  A    between atoms: C_6  and  C_7
REMARK    7  A    between atoms: C_7  and  C_8
REMARK    8  A    between atoms: C_8  and  C_9
REMARK    9  A    between atoms: C_9  and  C_10
REMARK   10  A    between atoms: C_10  and  C_11
REMARK   11  A    between atoms: C_11  and  C_12
REMARK   12  A    between atoms: C_12  and  C_13
REMARK   13  A    between atoms: C_13  and  C_14
REMARK   14  A    between atoms: C_14  and  C_15
REMARK   15  A    between atoms: C_15  and  C_16
REMARK   16  A    between atoms: C_16  and  C_17
REMARK   17  A    between atoms: C_17  and  C_19
REMARK                            x       y       z     vdW  Elec       q    Type
REMARK                         _______ _______ _______ _____ _____    ______ ____
ROOT
ATOM      1  C   UNL     1       4.951   5.534  18.738  0.00  0.00    +0.000 C 
ENDROOT
BRANCH   1   2
ATOM      2  C   UNL     1       5.785   5.514  17.468  0.00  0.00    +0.000 C 
BRANCH   2   3
ATOM      3  C   UNL     1       5.294   6.573  16.496  0.00  0.00    +0.000 C 
BRANCH   3   4
ATOM      4  C   UNL     1       5.382   6.053  15.071  0.00  0.00    +0.000 C 
BRANCH   4   5
ATOM      5  C   UNL     1       6.191   4.768  15.029  0.00  0.00    +0.000 C 
BRANCH   5   6
ATOM      6  C   UNL     1       5.581   3.793  14.036  0.00  0.00    +0.000 C 
BRANCH   6   7
ATOM      7  C   UNL     1       6.489   3.628  12.830  0.00  0.00    +0.000 C 
BRANCH   7   8
ATOM      8  C   UNL     1       5.753   2.921  11.701  0.00  0.00    +0.000 C 
BRANCH   8   9
ATOM      9  C   UNL     1       4.252   3.151  11.818  0.00  0.00    +0.000 C 
BRANCH   9  11
ATOM     10  C   UNL     1       2.914   3.493   9.727  0.00  0.00    +0.000 C 
ATOM     11  C   UNL     1       3.775   4.164  10.784  0.00  0.00    +0.000 C 
ENDBRANCH   9  11
ENDBRANCH   8   9
ENDBRANCH   7   8
ENDBRANCH   6   7
ENDBRANCH   5   6
ENDBRANCH   4   5
ENDBRANCH   3   4
ENDBRANCH   2   3
ENDBRANCH   1   2
BRANCH   1  12
ATOM     12  C   UNL     1       3.636   6.256  18.491  0.00  0.00    +0.000 C 
BRANCH  12  13
ATOM     13  C   UNL     1       2.564   5.265  18.070  0.00  0.00    +0.000 C 
BRANCH  13  14
ATOM     14  C   UNL     1       1.712   4.852  19.262  0.00  0.00    +0.000 C 
BRANCH  14  15
ATOM     15  C   UNL     1       2.612   4.404  20.405  0.00  0.00    +0.000 C 
BRANCH  15  16
ATOM     16  C   UNL     1       2.623   2.888  20.550  0.00  0.00    +0.000 C 
BRANCH  16  17
ATOM     17  C   UNL     1       3.806   2.271  19.817  0.00  0.00    +0.000 C 
ATOM     18  O   UNL     1       4.915   2.171  20.347  0.00  0.00    +0.000 OA
BRANCH  17  19
ATOM     19  C   UNL     1       3.522   1.799  18.402  0.00  0.00    +0.000 C 
ATOM     20  F   UNL     1       3.978   0.536  18.169  0.00  0.00    +0.000 F 
ATOM     21  F   UNL     1       2.192   1.779  18.122  0.00  0.00    +0.000 F 
ATOM     22  F   UNL     1       4.111   2.592  17.467  0.00  0.00    +0.000 F 
ENDBRANCH  17  19
ENDBRANCH  16  17
ENDBRANCH  15  16
ENDBRANCH  14  15
ENDBRANCH  13  14
ENDBRANCH  12  13
ENDBRANCH   1  12
TORSDOF 16
ENDMDL
MODEL 7
REMARK VINA RESULT:      -5.7      1.774      3.479
REMARK  Name = 
REMARK  17 active torsions:
REMARK  status: ('A' for Active; 'I' for Inactive)
REMARK    1  A    between atoms: C_1  and  C_2
REMARK    2  A    between atoms: C_2  and  C_3
REMARK    3  A    between atoms: C_3  and  C_4
REMARK    4  A    between atoms: C_4  and  C_5
REMARK    5  A    between atoms: C_5  and  C_6
REMARK    6  A    between atoms: C_6  and  C_7
REMARK    7  A    between atoms: C_7  and  C_8
REMARK    8  A    between atoms: C_8  and  C_9
REMARK    9  A    between atoms: C_9  and  C_10
REMARK   10  A    between atoms: C_10  and  C_11
REMARK   11  A    between atoms: C_11  and  C_12
REMARK   12  A    between atoms: C_12  and  C_13
REMARK   13  A    between atoms: C_13  and  C_14
REMARK   14  A    between atoms: C_14  and  C_15
REMARK   15  A    between atoms: C_15  and  C_16
REMARK   16  A    between atoms: C_16  and  C_17
REMARK   17  A    between atoms: C_17  and  C_19
REMARK                            x       y       z     vdW  Elec       q    Type
REMARK                         _______ _______ _______ _____ _____    ______ ____
ROOT
ATOM      1  C   UNL     1       2.769   6.603  18.450  0.00  0.00    +0.000 C 
ENDROOT
BRANCH   1   2
ATOM      2  C   UNL     1       4.237   6.362  18.136  0.00  0.00    +0.000 C 
BRANCH   2   3
ATOM      3  C   UNL     1       4.549   6.783  16.710  0.00  0.00    +0.000 C 
BRANCH   3   4
ATOM      4  C   UNL     1       5.686   5.941  16.156  0.00  0.00    +0.000 C 
BRANCH   4   5
ATOM      5  C   UNL     1       5.172   5.014  15.068  0.00  0.00    +0.000 C 
BRANCH   5   6
ATOM      6  C   UNL     1       6.240   4.000  14.691  0.00  0.00    +0.000 C 
BRANCH   6   7
ATOM      7  C   UNL     1       7.196   4.595  13.672  0.00  0.00    +0.000 C 
BRANCH   7   8
ATOM      8  C   UNL     1       6.897   4.054  12.281  0.00  0.00    +0.000 C 
BRANCH   8   9
ATOM      9  C   UNL     1       6.176   2.715  12.375  0.00  0.00    +0.000 C 
BRANCH   9  11
ATOM     10  C   UNL     1       3.960   3.279  11.347  0.00  0.00    +0.000 C 
ATOM     11  C   UNL     1       5.258   2.506  11.176  0.00  0.00    +0.000 C 
ENDBRANCH   9  11
ENDBRANCH   8   9
ENDBRANCH   7   8
ENDBRANCH   6   7
ENDBRANCH   5   6
ENDBRANCH   4   5
ENDBRANCH   3   4
ENDBRANCH   2   3
ENDBRANCH   1   2
BRANCH   1  12
ATOM     12  C   UNL     1       2.059   5.280  18.689  0.00  0.00    +0.000 C 
BRANCH  12  13
ATOM     13  C   UNL     1       1.617   5.176  20.139  0.00  0.00    +0.000 C 
BRANCH  13  14
ATOM     14  C   UNL     1       1.433   3.720  20.544  0.00  0.00    +0.000 C 
BRANCH  14  15
ATOM     15  C   UNL     1       2.586   3.286  21.439  0.00  0.00    +0.000 C 
BRANCH  15  16
ATOM     16  C   UNL     1       3.336   2.098  20.852  0.00  0.00    +0.000 C 
BRANCH  16  17
ATOM     17  C   UNL     1       4.130   2.499  19.618  0.00  0.00    +0.000 C 
ATOM     18  O   UNL     1       5.110   3.244  19.693  0.00  0.00    +0.000 OA
BRANCH  17  19
ATOM     19  C   UNL     1       3.628   1.926  18.305  0.00  0.00    +0.000 C 
ATOM     20  F   UNL     1       2.272   1.789  18.276  0.00  0.00    +0.000 F 
ATOM     21  F   UNL     1       3.951   2.710  17.243  0.00  0.00    +0.000 F 
ATOM     22  F   UNL     1       4.138   0.691  18.053  0.00  0.00    +0.000 F 
ENDBRANCH  17  19
ENDBRANCH  16  17
ENDBRANCH  15  16
ENDBRANCH  14  15
ENDBRANCH  13  14
ENDBRANCH  12  13
ENDBRANCH   1  12
TORSDOF 16
ENDMDL
MODEL 8
REMARK VINA RESULT:      -5.6      1.996      3.067
REMARK  Name = 
REMARK  17 active torsions:
REMARK  status: ('A' for Active; 'I' for Inactive)
REMARK    1  A    between atoms: C_1  and  C_2
REMARK    2  A    between atoms: C_2  and  C_3
REMARK    3  A    between atoms: C_3  and  C_4
REMARK    4  A    between atoms: C_4  and  C_5
REMARK    5  A    between atoms: C_5  and  C_6
REMARK    6  A    between atoms: C_6  and  C_7
REMARK    7  A    between atoms: C_7  and  C_8
REMARK    8  A    between atoms: C_8  and  C_9
REMARK    9  A    between atoms: C_9  and  C_10
REMARK   10  A    between atoms: C_10  and  C_11
REMARK   11  A    between atoms: C_11  and  C_12
REMARK   12  A    between atoms: C_12  and  C_13
REMARK   13  A    between atoms: C_13  and  C_14
REMARK   14  A    between atoms: C_14  and  C_15
REMARK   15  A    between atoms: C_15  and  C_16
REMARK   16  A    between atoms: C_16  and  C_17
REMARK   17  A    between atoms: C_17  and  C_19
REMARK                            x       y       z     vdW  Elec       q    Type
REMARK                         _______ _______ _______ _____ _____    ______ ____
ROOT
ATOM      1  C   UNL     1       4.407   3.927  17.388  0.00  0.00    +0.000 C 
ENDROOT
BRANCH   1   2
ATOM      2  C   UNL     1       5.719   4.463  17.934  0.00  0.00    +0.000 C 
BRANCH   2   3
ATOM      3  C   UNL     1       6.563   5.043  16.812  0.00  0.00    +0.000 C 
BRANCH   3   4
ATOM      4  C   UNL     1       5.789   5.003  15.505  0.00  0.00    +0.000 C 
BRANCH   4   5
ATOM      5  C   UNL     1       6.333   3.907  14.604  0.00  0.00    +0.000 C 
BRANCH   5   6
ATOM      6  C   UNL     1       5.840   4.101  13.180  0.00  0.00    +0.000 C 
BRANCH   6   7
ATOM      7  C   UNL     1       6.298   2.950  12.301  0.00  0.00    +0.000 C 
BRANCH   7   8
ATOM      8  C   UNL     1       5.141   2.428  11.460  0.00  0.00    +0.000 C 
BRANCH   8   9
ATOM      9  C   UNL     1       4.082   3.508  11.285  0.00  0.00    +0.000 C 
BRANCH   9  11
ATOM     10  C   UNL     1       2.669   4.523   9.480  0.00  0.00    +0.000 C 
ATOM     11  C   UNL     1       3.219   3.230  10.060  0.00  0.00    +0.000 C 
ENDBRANCH   9  11
ENDBRANCH   8   9
ENDBRANCH   7   8
ENDBRANCH   6   7
ENDBRANCH   5   6
ENDBRANCH   4   5
ENDBRANCH   3   4
ENDBRANCH   2   3
ENDBRANCH   1   2
BRANCH   1  12
ATOM     12  C   UNL     1       3.891   2.801  18.271  0.00  0.00    +0.000 C 
BRANCH  12  13
ATOM     13  C   UNL     1       2.538   3.170  18.856  0.00  0.00    +0.000 C 
BRANCH  13  14
ATOM     14  C   UNL     1       2.592   3.175  20.377  0.00  0.00    +0.000 C 
BRANCH  14  15
ATOM     15  C   UNL     1       2.550   4.609  20.888  0.00  0.00    +0.000 C 
BRANCH  15  16
ATOM     16  C   UNL     1       1.487   5.430  20.170  0.00  0.00    +0.000 C 
BRANCH  16  17
ATOM     17  C   UNL     1       2.006   6.814  19.810  0.00  0.00    +0.000 C 
ATOM     18  O   UNL     1       2.052   7.725  20.641  0.00  0.00    +0.000 OA
BRANCH  17  19
ATOM     19  C   UNL     1       2.453   6.990  18.370  0.00  0.00    +0.000 C 
ATOM     20  F   UNL     1       1.976   8.138  17.809  0.00  0.00    +0.000 F 
ATOM     21  F   UNL     1       3.806   7.045  18.253  0.00  0.00    +0.000 F 
ATOM     22  F   UNL     1       2.028   5.974  17.571  0.00  0.00    +0.000 F 
ENDBRANCH  17  19
ENDBRANCH  16  17
ENDBRANCH  15  16
ENDBRANCH  14  15
ENDBRANCH  13  14
ENDBRANCH  12  13
ENDBRANCH   1  12
TORSDOF 16
ENDMDL
MODEL 9
REMARK VINA RESULT:      -5.6      4.021      7.533
REMARK  Name = 
REMARK  17 active torsions:
REMARK  status: ('A' for Active; 'I' for Inactive)
REMARK    1  A    between atoms: C_1  and  C_2
REMARK    2  A    between atoms: C_2  and  C_3
REMARK    3  A    between atoms: C_3  and  C_4
REMARK    4  A    between atoms: C_4  and  C_5
REMARK    5  A    between atoms: C_5  and  C_6
REMARK    6  A    between atoms: C_6  and  C_7
REMARK    7  A    between atoms: C_7  and  C_8
REMARK    8  A    between atoms: C_8  and  C_9
REMARK    9  A    between atoms: C_9  and  C_10
REMARK   10  A    between atoms: C_10  and  C_11
REMARK   11  A    between atoms: C_11  and  C_12
REMARK   12  A    between atoms: C_12  and  C_13
REMARK   13  A    between atoms: C_13  and  C_14
REMARK   14  A    between atoms: C_14  and  C_15
REMARK   15  A    between atoms: C_15  and  C_16
REMARK   16  A    between atoms: C_16  and  C_17
REMARK   17  A    between atoms: C_17  and  C_19
REMARK                            x       y       z     vdW  Elec       q    Type
REMARK                         _______ _______ _______ _____ _____    ______ ____
ROOT
ATOM      1  C   UNL     1       4.446   4.081  16.736  0.00  0.00    +0.000 C 
ENDROOT
BRANCH   1   2
ATOM      2  C   UNL     1       5.125   3.963  18.091  0.00  0.00    +0.000 C 
BRANCH   2   3
ATOM      3  C   UNL     1       4.336   3.035  18.999  0.00  0.00    +0.000 C 
BRANCH   3   4
ATOM      4  C   UNL     1       3.398   2.171  18.173  0.00  0.00    +0.000 C 
BRANCH   4   5
ATOM      5  C   UNL     1       2.130   1.875  18.956  0.00  0.00    +0.000 C 
BRANCH   5   6
ATOM      6  C   UNL     1       1.224   3.094  18.974  0.00  0.00    +0.000 C 
BRANCH   6   7
ATOM      7  C   UNL     1       1.113   3.649  20.384  0.00  0.00    +0.000 C 
BRANCH   7   8
ATOM      8  C   UNL     1       1.553   5.106  20.419  0.00  0.00    +0.000 C 
BRANCH   8   9
ATOM      9  C   UNL     1       1.854   5.605  19.012  0.00  0.00    +0.000 C 
BRANCH   9  11
ATOM     10  C   UNL     1       2.604   7.813  18.092  0.00  0.00    +0.000 C 
ATOM     11  C   UNL     1       2.945   6.669  19.034  0.00  0.00    +0.000 C 
ENDBRANCH   9  11
ENDBRANCH   8   9
ENDBRANCH   7   8
ENDBRANCH   6   7
ENDBRANCH   5   6
ENDBRANCH   4   5
ENDBRANCH   3   4
ENDBRANCH   2   3
ENDBRANCH   1   2
BRANCH   1  12
ATOM     12  C   UNL     1       5.031   5.248  15.956  0.00  0.00    +0.000 C 
BRANCH  12  13
ATOM     13  C   UNL     1       6.546   5.144  15.913  0.00  0.00    +0.000 C 
BRANCH  13  14
ATOM     14  C   UNL     1       7.031   4.921  14.487  0.00  0.00    +0.000 C 
BRANCH  14  15
ATOM     15  C   UNL     1       6.179   3.851  13.816  0.00  0.00    +0.000 C 
BRANCH  15  16
ATOM     16  C   UNL     1       6.415   3.808  12.313  0.00  0.00    +0.000 C 
BRANCH  16  17
ATOM     17  C   UNL     1       5.615   2.690  11.660  0.00  0.00    +0.000 C 
ATOM     18  O   UNL     1       4.388   2.752  11.546  0.00  0.00    +0.000 OA
BRANCH  17  19
ATOM     19  C   UNL     1       6.429   1.506  11.170  0.00  0.00    +0.000 C 
ATOM     20  F   UNL     1       5.886   0.309  11.534  0.00  0.00    +0.000 F 
ATOM     21  F   UNL     1       6.533   1.477   9.815  0.00  0.00    +0.000 F 
ATOM     22  F   UNL     1       7.696   1.512  11.664  0.00  0.00    +0.000 F 
ENDBRANCH  17  19
ENDBRANCH  16  17
ENDBRANCH  15  16
ENDBRANCH  14  15
ENDBRANCH  13  14
ENDBRANCH  12  13
ENDBRANCH   1  12
TORSDOF 16
ENDMDL
