MODEL 1
REMARK VINA RESULT:      -8.5      0.000      0.000
REMARK  Name = 
REMARK  5 active torsions:
REMARK  status: ('A' for Active; 'I' for Inactive)
REMARK    1  A    between atoms: C_1  and  C_2
REMARK    2  A    between atoms: C_3  and  C_4
REMARK    3  A    between atoms: N_6  and  C_7
REMARK    4  A    between atoms: C_18  and  S_19
REMARK    5  A    between atoms: S_19  and  N_22
REMARK                            x       y       z     vdW  Elec       q    Type
REMARK                         _______ _______ _______ _____ _____    ______ ____
ROOT
ATOM      1  C   UNL     1       2.318   9.189  17.627  0.00  0.00    +0.000 C 
ATOM      2  C   UNL     1       1.900   8.460  18.854  0.00  0.00    +0.000 A 
ATOM      3  C   UNL     1       1.057   8.891  19.875  0.00  0.00    +0.000 A 
ATOM      4  O   UNL     1       0.940   7.904  20.825  0.00  0.00    +0.000 OA
ATOM      5  C   UNL     1       1.708   6.856  20.425  0.00  0.00    +0.000 A 
ATOM      6  C   UNL     1       1.859   5.652  21.112  0.00  0.00    +0.000 A 
ATOM      7  C   UNL     1       2.721   4.706  20.540  0.00  0.00    +0.000 A 
ATOM      8  C   UNL     1       3.388   4.983  19.339  0.00  0.00    +0.000 A 
ATOM      9  C   UNL     1       3.184   6.191  18.652  0.00  0.00    +0.000 A 
ATOM     10  C   UNL     1       2.331   7.152  19.222  0.00  0.00    +0.000 A 
ENDROOT
BRANCH   3  11
ATOM     11  C   UNL     1       0.343  10.145  20.084  0.00  0.00    +0.000 C 
ATOM     12  O   UNL     1      -0.032  10.846  19.151  0.00  0.00    +0.000 OA
ATOM     13  N   UNL     1       0.187  10.462  21.425  0.00  0.00    +0.000 N 
ATOM     14  H   UNL     1       0.636   9.818  22.069  0.00  0.00    +0.000 HD
BRANCH  13  15
ATOM     15  C   UNL     1      -0.404  11.620  21.968  0.00  0.00    +0.000 A 
ATOM     16  C   UNL     1       0.152  12.898  21.865  0.00  0.00    +0.000 A 
ATOM     17  C   UNL     1      -0.470  14.000  22.459  0.00  0.00    +0.000 A 
ATOM     18  C   UNL     1      -1.656  13.834  23.170  0.00  0.00    +0.000 A 
ATOM     19  C   UNL     1      -2.224  12.568  23.262  0.00  0.00    +0.000 A 
ATOM     20 CL   UNL     1      -3.684  12.353  24.149  0.00  0.00    +0.000 Cl
ATOM     21  C   UNL     1      -1.614  11.466  22.656  0.00  0.00    +0.000 A 
ENDBRANCH  13  15
ENDBRANCH   3  11
BRANCH   8  22
ATOM     22  S   UNL     1       4.419   3.745  18.587  0.00  0.00    +0.000 S 
ATOM     23  O   UNL     1       5.075   3.021  19.654  0.00  0.00    +0.000 OA
ATOM     24  O   UNL     1       3.611   3.053  17.605  0.00  0.00    +0.000 OA
BRANCH  22  25
ATOM     25  N   UNL     1       5.579   4.625  17.762  0.00  0.00    +0.000 NA
ATOM     26  C   UNL     1       6.721   5.232  18.484  0.00  0.00    +0.000 C 
ATOM     27  C   UNL     1       7.162   6.486  17.710  0.00  0.00    +0.000 C 
ATOM     28  O   UNL     1       7.482   6.177  16.341  0.00  0.00    +0.000 OA
ATOM     29  C   UNL     1       6.355   5.577  15.674  0.00  0.00    +0.000 C 
ATOM     30  C   UNL     1       5.946   4.273  16.372  0.00  0.00    +0.000 C 
ENDBRANCH  22  25
ENDBRANCH   8  22
TORSDOF 4
ENDMDL
MODEL 2
REMARK VINA RESULT:      -8.5      1.963      2.366
REMARK  Name = 
REMARK  5 active torsions:
REMARK  status: ('A' for Active; 'I' for Inactive)
REMARK    1  A    between atoms: C_1  and  C_2
REMARK    2  A    between atoms: C_3  and  C_4
REMARK    3  A    between atoms: N_6  and  C_7
REMARK    4  A    between atoms: C_18  and  S_19
REMARK    5  A    between atoms: S_19  and  N_22
REMARK                            x       y       z     vdW  Elec       q    Type
REMARK                         _______ _______ _______ _____ _____    ______ ____
ROOT
ATOM      1  C   UNL     1       2.111   9.036  17.853  0.00  0.00    +0.000 C 
ATOM      2  C   UNL     1       1.902   8.200  19.065  0.00  0.00    +0.000 A 
ATOM      3  C   UNL     1       1.399   8.581  20.306  0.00  0.00    +0.000 A 
ATOM      4  O   UNL     1       1.374   7.495  21.149  0.00  0.00    +0.000 OA
ATOM      5  C   UNL     1       1.867   6.431  20.461  0.00  0.00    +0.000 A 
ATOM      6  C   UNL     1       2.007   5.136  20.959  0.00  0.00    +0.000 A 
ATOM      7  C   UNL     1       2.563   4.185  20.092  0.00  0.00    +0.000 A 
ATOM      8  C   UNL     1       2.954   4.546  18.796  0.00  0.00    +0.000 A 
ATOM      9  C   UNL     1       2.765   5.849  18.310  0.00  0.00    +0.000 A 
ATOM     10  C   UNL     1       2.219   6.814  19.175  0.00  0.00    +0.000 A 
ENDROOT
BRANCH   3  11
ATOM     11  C   UNL     1       0.940   9.867  20.818  0.00  0.00    +0.000 C 
ATOM     12  O   UNL     1       1.262  10.282  21.926  0.00  0.00    +0.000 OA
ATOM     13  N   UNL     1       0.083  10.522  19.946  0.00  0.00    +0.000 N 
ATOM     14  H   UNL     1      -0.153  10.000  19.109  0.00  0.00    +0.000 HD
BRANCH  13  15
ATOM     15  C   UNL     1      -0.577  11.750  20.155  0.00  0.00    +0.000 A 
ATOM     16  C   UNL     1      -1.680  11.905  21.000  0.00  0.00    +0.000 A 
ATOM     17  C   UNL     1      -2.311  13.146  21.133  0.00  0.00    +0.000 A 
ATOM     18  C   UNL     1      -1.847  14.246  20.417  0.00  0.00    +0.000 A 
ATOM     19  C   UNL     1      -0.739  14.103  19.588  0.00  0.00    +0.000 A 
ATOM     20 CL   UNL     1      -0.167  15.457  18.692  0.00  0.00    +0.000 Cl
ATOM     21  C   UNL     1      -0.096  12.868  19.464  0.00  0.00    +0.000 A 
ENDBRANCH  13  15
ENDBRANCH   3  11
BRANCH   8  22
ATOM     22  S   UNL     1       3.588   3.312  17.683  0.00  0.00    +0.000 S 
ATOM     23  O   UNL     1       3.908   2.141  18.470  0.00  0.00    +0.000 OA
ATOM     24  O   UNL     1       2.671   3.230  16.566  0.00  0.00    +0.000 OA
BRANCH  22  25
ATOM     25  N   UNL     1       5.020   3.969  17.118  0.00  0.00    +0.000 NA
ATOM     26  C   UNL     1       5.108   4.517  15.743  0.00  0.00    +0.000 C 
ATOM     27  C   UNL     1       6.562   4.367  15.265  0.00  0.00    +0.000 C 
ATOM     28  O   UNL     1       7.485   5.004  16.169  0.00  0.00    +0.000 OA
ATOM     29  C   UNL     1       7.362   4.459  17.496  0.00  0.00    +0.000 C 
ATOM     30  C   UNL     1       5.942   4.672  18.038  0.00  0.00    +0.000 C 
ENDBRANCH  22  25
ENDBRANCH   8  22
TORSDOF 4
ENDMDL
MODEL 3
REMARK VINA RESULT:      -8.5      1.310      1.623
REMARK  Name = 
REMARK  5 active torsions:
REMARK  status: ('A' for Active; 'I' for Inactive)
REMARK    1  A    between atoms: C_1  and  C_2
REMARK    2  A    between atoms: C_3  and  C_4
REMARK    3  A    between atoms: N_6  and  C_7
REMARK    4  A    between atoms: C_18  and  S_19
REMARK    5  A    between atoms: S_19  and  N_22
REMARK                            x       y       z     vdW  Elec       q    Type
REMARK                         _______ _______ _______ _____ _____    ______ ____
ROOT
ATOM      1  C   UNL     1       2.128   9.058  17.983  0.00  0.00    +0.000 C 
ATOM      2  C   UNL     1       1.896   8.186  19.165  0.00  0.00    +0.000 A 
ATOM      3  C   UNL     1       1.373   8.530  20.408  0.00  0.00    +0.000 A 
ATOM      4  O   UNL     1       1.331   7.419  21.217  0.00  0.00    +0.000 OA
ATOM      5  C   UNL     1       1.834   6.375  20.505  0.00  0.00    +0.000 A 
ATOM      6  C   UNL     1       1.962   5.065  20.966  0.00  0.00    +0.000 A 
ATOM      7  C   UNL     1       2.531   4.140  20.080  0.00  0.00    +0.000 A 
ATOM      8  C   UNL     1       2.945   4.539  18.802  0.00  0.00    +0.000 A 
ATOM      9  C   UNL     1       2.767   5.857  18.354  0.00  0.00    +0.000 A 
ATOM     10  C   UNL     1       2.208   6.797  19.238  0.00  0.00    +0.000 A 
ENDROOT
BRANCH   3  11
ATOM     11  C   UNL     1       0.908   9.801  20.951  0.00  0.00    +0.000 C 
ATOM     12  O   UNL     1       1.456  10.343  21.904  0.00  0.00    +0.000 OA
ATOM     13  N   UNL     1      -0.223  10.283  20.310  0.00  0.00    +0.000 N 
ATOM     14  H   UNL     1      -0.604   9.667  19.599  0.00  0.00    +0.000 HD
BRANCH  13  15
ATOM     15  C   UNL     1      -0.953  11.448  20.620  0.00  0.00    +0.000 A 
ATOM     16  C   UNL     1      -1.014  12.570  19.790  0.00  0.00    +0.000 A 
ATOM     17  C   UNL     1      -1.729  13.709  20.176  0.00  0.00    +0.000 A 
ATOM     18  C   UNL     1      -2.387  13.738  21.403  0.00  0.00    +0.000 A 
ATOM     19  C   UNL     1      -2.344  12.619  22.227  0.00  0.00    +0.000 A 
ATOM     20 CL   UNL     1      -3.146  12.652  23.749  0.00  0.00    +0.000 Cl
ATOM     21  C   UNL     1      -1.644  11.472  21.838  0.00  0.00    +0.000 A 
ENDBRANCH  13  15
ENDBRANCH   3  11
BRANCH   8  22
ATOM     22  S   UNL     1       3.595   3.338  17.663  0.00  0.00    +0.000 S 
ATOM     23  O   UNL     1       3.895   2.141  18.418  0.00  0.00    +0.000 OA
ATOM     24  O   UNL     1       2.700   3.296  16.526  0.00  0.00    +0.000 OA
BRANCH  22  25
ATOM     25  N   UNL     1       5.041   4.006  17.147  0.00  0.00    +0.000 NA
ATOM     26  C   UNL     1       5.170   4.558  15.777  0.00  0.00    +0.000 C 
ATOM     27  C   UNL     1       6.641   4.419  15.346  0.00  0.00    +0.000 C 
ATOM     28  O   UNL     1       7.528   5.060  16.281  0.00  0.00    +0.000 OA
ATOM     29  C   UNL     1       7.366   4.510  17.602  0.00  0.00    +0.000 C 
ATOM     30  C   UNL     1       5.927   4.712  18.098  0.00  0.00    +0.000 C 
ENDBRANCH  22  25
ENDBRANCH   8  22
TORSDOF 4
ENDMDL
MODEL 4
REMARK VINA RESULT:      -8.4      1.218      1.506
REMARK  Name = 
REMARK  5 active torsions:
REMARK  status: ('A' for Active; 'I' for Inactive)
REMARK    1  A    between atoms: C_1  and  C_2
REMARK    2  A    between atoms: C_3  and  C_4
REMARK    3  A    between atoms: N_6  and  C_7
REMARK    4  A    between atoms: C_18  and  S_19
REMARK    5  A    between atoms: S_19  and  N_22
REMARK                            x       y       z     vdW  Elec       q    Type
REMARK                         _______ _______ _______ _____ _____    ______ ____
ROOT
ATOM      1  C   UNL     1       2.379   9.054  17.644  0.00  0.00    +0.000 C 
ATOM      2  C   UNL     1       1.947   8.308  18.856  0.00  0.00    +0.000 A 
ATOM      3  C   UNL     1       1.081   8.718  19.865  0.00  0.00    +0.000 A 
ATOM      4  O   UNL     1       0.957   7.721  20.803  0.00  0.00    +0.000 OA
ATOM      5  C   UNL     1       1.744   6.685  20.407  0.00  0.00    +0.000 A 
ATOM      6  C   UNL     1       1.896   5.475  21.083  0.00  0.00    +0.000 A 
ATOM      7  C   UNL     1       2.779   4.545  20.518  0.00  0.00    +0.000 A 
ATOM      8  C   UNL     1       3.465   4.843  19.333  0.00  0.00    +0.000 A 
ATOM      9  C   UNL     1       3.260   6.055  18.654  0.00  0.00    +0.000 A 
ATOM     10  C   UNL     1       2.386   7.001  19.219  0.00  0.00    +0.000 A 
ENDROOT
BRANCH   3  11
ATOM     11  C   UNL     1       0.348   9.962  20.074  0.00  0.00    +0.000 C 
ATOM     12  O   UNL     1      -0.325  10.480  19.190  0.00  0.00    +0.000 OA
ATOM     13  N   UNL     1       0.539  10.496  21.339  0.00  0.00    +0.000 N 
ATOM     14  H   UNL     1       1.199   9.990  21.920  0.00  0.00    +0.000 HD
BRANCH  13  15
ATOM     15  C   UNL     1       0.024  11.708  21.844  0.00  0.00    +0.000 A 
ATOM     16  C   UNL     1      -1.034  11.782  22.754  0.00  0.00    +0.000 A 
ATOM     17  C   UNL     1      -1.520  13.020  23.187  0.00  0.00    +0.000 A 
ATOM     18  C   UNL     1      -0.955  14.199  22.709  0.00  0.00    +0.000 A 
ATOM     19  C   UNL     1       0.110  14.132  21.816  0.00  0.00    +0.000 A 
ATOM     20 CL   UNL     1       0.807  15.586  21.213  0.00  0.00    +0.000 Cl
ATOM     21  C   UNL     1       0.610  12.897  21.393  0.00  0.00    +0.000 A 
ENDBRANCH  13  15
ENDBRANCH   3  11
BRANCH   8  22
ATOM     22  S   UNL     1       4.524   3.624  18.587  0.00  0.00    +0.000 S 
ATOM     23  O   UNL     1       5.236   2.957  19.655  0.00  0.00    +0.000 OA
ATOM     24  O   UNL     1       3.718   2.873  17.648  0.00  0.00    +0.000 OA
BRANCH  22  25
ATOM     25  N   UNL     1       5.625   4.525  17.706  0.00  0.00    +0.000 NA
ATOM     26  C   UNL     1       6.805   5.130  18.367  0.00  0.00    +0.000 C 
ATOM     27  C   UNL     1       7.190   6.398  17.586  0.00  0.00    +0.000 C 
ATOM     28  O   UNL     1       7.429   6.110  16.195  0.00  0.00    +0.000 OA
ATOM     29  C   UNL     1       6.268   5.511  15.589  0.00  0.00    +0.000 C 
ATOM     30  C   UNL     1       5.910   4.194  16.292  0.00  0.00    +0.000 C 
ENDBRANCH  22  25
ENDBRANCH   8  22
TORSDOF 4
ENDMDL
MODEL 5
REMARK VINA RESULT:      -8.4      2.256      3.711
REMARK  Name = 
REMARK  5 active torsions:
REMARK  status: ('A' for Active; 'I' for Inactive)
REMARK    1  A    between atoms: C_1  and  C_2
REMARK    2  A    between atoms: C_3  and  C_4
REMARK    3  A    between atoms: N_6  and  C_7
REMARK    4  A    between atoms: C_18  and  S_19
REMARK    5  A    between atoms: S_19  and  N_22
REMARK                            x       y       z     vdW  Elec       q    Type
REMARK                         _______ _______ _______ _____ _____    ______ ____
ROOT
ATOM      1  C   UNL     1       0.098   8.313  22.109  0.00  0.00    +0.000 C 
ATOM      2  C   UNL     1       0.515   8.903  20.810  0.00  0.00    +0.000 A 
ATOM      3  C   UNL     1       0.111  10.104  20.232  0.00  0.00    +0.000 A 
ATOM      4  O   UNL     1       0.739  10.269  19.020  0.00  0.00    +0.000 OA
ATOM      5  C   UNL     1       1.528   9.180  18.816  0.00  0.00    +0.000 A 
ATOM      6  C   UNL     1       2.337   8.962  17.701  0.00  0.00    +0.000 A 
ATOM      7  C   UNL     1       3.056   7.758  17.672  0.00  0.00    +0.000 A 
ATOM      8  C   UNL     1       2.946   6.837  18.722  0.00  0.00    +0.000 A 
ATOM      9  C   UNL     1       2.152   7.104  19.849  0.00  0.00    +0.000 A 
ATOM     10  C   UNL     1       1.417   8.302  19.884  0.00  0.00    +0.000 A 
ENDROOT
BRANCH   3  11
ATOM     11  C   UNL     1      -0.821  11.133  20.677  0.00  0.00    +0.000 C 
ATOM     12  O   UNL     1      -1.562  11.723  19.899  0.00  0.00    +0.000 OA
ATOM     13  N   UNL     1      -0.734  11.391  22.037  0.00  0.00    +0.000 N 
ATOM     14  H   UNL     1      -0.004  10.879  22.521  0.00  0.00    +0.000 HD
BRANCH  13  15
ATOM     15  C   UNL     1      -1.450  12.357  22.773  0.00  0.00    +0.000 A 
ATOM     16  C   UNL     1      -0.993  13.659  22.995  0.00  0.00    +0.000 A 
ATOM     17  C   UNL     1      -1.738  14.557  23.766  0.00  0.00    +0.000 A 
ATOM     18  C   UNL     1      -2.948  14.159  24.328  0.00  0.00    +0.000 A 
ATOM     19  C   UNL     1      -3.417  12.871  24.096  0.00  0.00    +0.000 A 
ATOM     20 CL   UNL     1      -4.907  12.369  24.797  0.00  0.00    +0.000 Cl
ATOM     21  C   UNL     1      -2.684  11.975  23.313  0.00  0.00    +0.000 A 
ENDBRANCH  13  15
ENDBRANCH   3  11
BRANCH   8  22
ATOM     22  S   UNL     1       3.921   5.350  18.706  0.00  0.00    +0.000 S 
ATOM     23  O   UNL     1       4.123   4.979  17.323  0.00  0.00    +0.000 OA
ATOM     24  O   UNL     1       5.046   5.566  19.591  0.00  0.00    +0.000 OA
BRANCH  22  25
ATOM     25  N   UNL     1       2.929   4.204  19.416  0.00  0.00    +0.000 NA
ATOM     26  C   UNL     1       1.899   3.499  18.617  0.00  0.00    +0.000 C 
ATOM     27  C   UNL     1       0.746   3.114  19.560  0.00  0.00    +0.000 C 
ATOM     28  O   UNL     1       1.213   2.325  20.671  0.00  0.00    +0.000 OA
ATOM     29  C   UNL     1       2.222   3.034  21.415  0.00  0.00    +0.000 C 
ATOM     30  C   UNL     1       3.427   3.356  20.521  0.00  0.00    +0.000 C 
ENDBRANCH  22  25
ENDBRANCH   8  22
TORSDOF 4
ENDMDL
MODEL 6
REMARK VINA RESULT:      -8.3      4.456     10.025
REMARK  Name = 
REMARK  5 active torsions:
REMARK  status: ('A' for Active; 'I' for Inactive)
REMARK    1  A    between atoms: C_1  and  C_2
REMARK    2  A    between atoms: C_3  and  C_4
REMARK    3  A    between atoms: N_6  and  C_7
REMARK    4  A    between atoms: C_18  and  S_19
REMARK    5  A    between atoms: S_19  and  N_22
REMARK                            x       y       z     vdW  Elec       q    Type
REMARK                         _______ _______ _______ _____ _____    ______ ____
ROOT
ATOM      1  C   UNL     1       1.533  10.028  18.237  0.00  0.00    +0.000 C 
ATOM      2  C   UNL     1       1.288   9.408  19.566  0.00  0.00    +0.000 A 
ATOM      3  C   UNL     1       1.627   8.131  20.004  0.00  0.00    +0.000 A 
ATOM      4  O   UNL     1       1.212   7.962  21.304  0.00  0.00    +0.000 OA
ATOM      5  C   UNL     1       0.603   9.114  21.693  0.00  0.00    +0.000 A 
ATOM      6  C   UNL     1       0.044   9.354  22.948  0.00  0.00    +0.000 A 
ATOM      7  C   UNL     1      -0.562  10.603  23.138  0.00  0.00    +0.000 A 
ATOM      8  C   UNL     1      -0.594  11.545  22.101  0.00  0.00    +0.000 A 
ATOM      9  C   UNL     1       0.012  11.288  20.860  0.00  0.00    +0.000 A 
ATOM     10  C   UNL     1       0.612  10.033  20.654  0.00  0.00    +0.000 A 
ENDROOT
BRANCH   3  11
ATOM     11  C   UNL     1       2.293   7.018  19.338  0.00  0.00    +0.000 C 
ATOM     12  O   UNL     1       3.125   7.189  18.454  0.00  0.00    +0.000 OA
ATOM     13  N   UNL     1       1.849   5.780  19.779  0.00  0.00    +0.000 N 
ATOM     14  H   UNL     1       1.091   5.815  20.452  0.00  0.00    +0.000 HD
BRANCH  13  15
ATOM     15  C   UNL     1       2.244   4.511  19.308  0.00  0.00    +0.000 A 
ATOM     16  C   UNL     1       1.677   3.885  18.195  0.00  0.00    +0.000 A 
ATOM     17  C   UNL     1       2.092   2.608  17.803  0.00  0.00    +0.000 A 
ATOM     18  C   UNL     1       3.077   1.940  18.526  0.00  0.00    +0.000 A 
ATOM     19  C   UNL     1       3.657   2.565  19.625  0.00  0.00    +0.000 A 
ATOM     20 CL   UNL     1       4.868   1.741  20.530  0.00  0.00    +0.000 Cl
ATOM     21  C   UNL     1       3.258   3.848  20.010  0.00  0.00    +0.000 A 
ENDBRANCH  13  15
ENDBRANCH   3  11
BRANCH   8  22
ATOM     22  S   UNL     1      -1.299  13.153  22.381  0.00  0.00    +0.000 S 
ATOM     23  O   UNL     1      -0.838  13.610  23.674  0.00  0.00    +0.000 OA
ATOM     24  O   UNL     1      -1.065  13.938  21.188  0.00  0.00    +0.000 OA
BRANCH  22  25
ATOM     25  N   UNL     1      -2.945  12.865  22.485  0.00  0.00    +0.000 NA
ATOM     26  C   UNL     1      -3.703  12.391  21.303  0.00  0.00    +0.000 C 
ATOM     27  C   UNL     1      -5.153  12.889  21.437  0.00  0.00    +0.000 C 
ATOM     28  O   UNL     1      -5.746  12.461  22.678  0.00  0.00    +0.000 OA
ATOM     29  C   UNL     1      -4.976  12.926  23.802  0.00  0.00    +0.000 C 
ATOM     30  C   UNL     1      -3.546  12.372  23.744  0.00  0.00    +0.000 C 
ENDBRANCH  22  25
ENDBRANCH   8  22
TORSDOF 4
ENDMDL
MODEL 7
REMARK VINA RESULT:      -8.2      1.221      1.579
REMARK  Name = 
REMARK  5 active torsions:
REMARK  status: ('A' for Active; 'I' for Inactive)
REMARK    1  A    between atoms: C_1  and  C_2
REMARK    2  A    between atoms: C_3  and  C_4
REMARK    3  A    between atoms: N_6  and  C_7
REMARK    4  A    between atoms: C_18  and  S_19
REMARK    5  A    between atoms: S_19  and  N_22
REMARK                            x       y       z     vdW  Elec       q    Type
REMARK                         _______ _______ _______ _____ _____    ______ ____
ROOT
ATOM      1  C   UNL     1       2.155   9.233  17.538  0.00  0.00    +0.000 C 
ATOM      2  C   UNL     1       1.879   8.512  18.809  0.00  0.00    +0.000 A 
ATOM      3  C   UNL     1       1.292   9.000  19.973  0.00  0.00    +0.000 A 
ATOM      4  O   UNL     1       1.228   7.999  20.914  0.00  0.00    +0.000 OA
ATOM      5  C   UNL     1       1.779   6.884  20.363  0.00  0.00    +0.000 A 
ATOM      6  C   UNL     1       1.904   5.645  20.991  0.00  0.00    +0.000 A 
ATOM      7  C   UNL     1       2.527   4.627  20.256  0.00  0.00    +0.000 A 
ATOM      8  C   UNL     1       2.996   4.870  18.958  0.00  0.00    +0.000 A 
ATOM      9  C   UNL     1       2.820   6.118  18.339  0.00  0.00    +0.000 A 
ATOM     10  C   UNL     1       2.207   7.150  19.071  0.00  0.00    +0.000 A 
ENDROOT
BRANCH   3  11
ATOM     11  C   UNL     1       0.785  10.320  20.329  0.00  0.00    +0.000 C 
ATOM     12  O   UNL     1       1.399  11.348  20.069  0.00  0.00    +0.000 OA
ATOM     13  N   UNL     1      -0.417  10.269  21.020  0.00  0.00    +0.000 N 
ATOM     14  H   UNL     1      -0.746   9.333  21.233  0.00  0.00    +0.000 HD
BRANCH  13  15
ATOM     15  C   UNL     1      -1.144  11.352  21.554  0.00  0.00    +0.000 A 
ATOM     16  C   UNL     1      -0.915  11.892  22.822  0.00  0.00    +0.000 A 
ATOM     17  C   UNL     1      -1.699  12.945  23.305  0.00  0.00    +0.000 A 
ATOM     18  C   UNL     1      -2.727  13.466  22.523  0.00  0.00    +0.000 A 
ATOM     19  C   UNL     1      -2.949  12.945  21.253  0.00  0.00    +0.000 A 
ATOM     20 CL   UNL     1      -4.225  13.578  20.286  0.00  0.00    +0.000 Cl
ATOM     21  C   UNL     1      -2.157  11.904  20.760  0.00  0.00    +0.000 A 
ENDBRANCH  13  15
ENDBRANCH   3  11
BRANCH   8  22
ATOM     22  S   UNL     1       3.716   3.549  18.011  0.00  0.00    +0.000 S 
ATOM     23  O   UNL     1       4.045   2.483  18.933  0.00  0.00    +0.000 OA
ATOM     24  O   UNL     1       2.848   3.311  16.878  0.00  0.00    +0.000 OA
BRANCH  22  25
ATOM     25  N   UNL     1       5.146   4.197  17.429  0.00  0.00    +0.000 NA
ATOM     26  C   UNL     1       5.217   4.761  16.060  0.00  0.00    +0.000 C 
ATOM     27  C   UNL     1       6.661   4.600  15.554  0.00  0.00    +0.000 C 
ATOM     28  O   UNL     1       7.606   5.215  16.450  0.00  0.00    +0.000 OA
ATOM     29  C   UNL     1       7.500   4.654  17.772  0.00  0.00    +0.000 C 
ATOM     30  C   UNL     1       6.092   4.877  18.342  0.00  0.00    +0.000 C 
ENDBRANCH  22  25
ENDBRANCH   8  22
TORSDOF 4
ENDMDL
MODEL 8
REMARK VINA RESULT:      -8.2      1.381      2.262
REMARK  Name = 
REMARK  5 active torsions:
REMARK  status: ('A' for Active; 'I' for Inactive)
REMARK    1  A    between atoms: C_1  and  C_2
REMARK    2  A    between atoms: C_3  and  C_4
REMARK    3  A    between atoms: N_6  and  C_7
REMARK    4  A    between atoms: C_18  and  S_19
REMARK    5  A    between atoms: S_19  and  N_22
REMARK                            x       y       z     vdW  Elec       q    Type
REMARK                         _______ _______ _______ _____ _____    ______ ____
ROOT
ATOM      1  C   UNL     1       0.011   8.502  22.139  0.00  0.00    +0.000 C 
ATOM      2  C   UNL     1       0.489   9.064  20.849  0.00  0.00    +0.000 A 
ATOM      3  C   UNL     1       0.178  10.290  20.267  0.00  0.00    +0.000 A 
ATOM      4  O   UNL     1       0.835  10.413  19.066  0.00  0.00    +0.000 OA
ATOM      5  C   UNL     1       1.551   9.274  18.872  0.00  0.00    +0.000 A 
ATOM      6  C   UNL     1       2.362   9.002  17.770  0.00  0.00    +0.000 A 
ATOM      7  C   UNL     1       2.997   7.752  17.750  0.00  0.00    +0.000 A 
ATOM      8  C   UNL     1       2.807   6.840  18.796  0.00  0.00    +0.000 A 
ATOM      9  C   UNL     1       2.015   7.158  19.910  0.00  0.00    +0.000 A 
ATOM     10  C   UNL     1       1.363   8.404  19.936  0.00  0.00    +0.000 A 
ENDROOT
BRANCH   3  11
ATOM     11  C   UNL     1      -0.689  11.380  20.699  0.00  0.00    +0.000 C 
ATOM     12  O   UNL     1      -1.204  12.158  19.904  0.00  0.00    +0.000 OA
ATOM     13  N   UNL     1      -0.817  11.456  22.078  0.00  0.00    +0.000 N 
ATOM     14  H   UNL     1      -0.251  10.791  22.595  0.00  0.00    +0.000 HD
BRANCH  13  15
ATOM     15  C   UNL     1      -1.532  12.419  22.820  0.00  0.00    +0.000 A 
ATOM     16  C   UNL     1      -1.050  13.701  23.096  0.00  0.00    +0.000 A 
ATOM     17  C   UNL     1      -1.798  14.595  23.871  0.00  0.00    +0.000 A 
ATOM     18  C   UNL     1      -3.034  14.211  24.382  0.00  0.00    +0.000 A 
ATOM     19  C   UNL     1      -3.527  12.942  24.096  0.00  0.00    +0.000 A 
ATOM     20 CL   UNL     1      -5.051  12.458  24.734  0.00  0.00    +0.000 Cl
ATOM     21  C   UNL     1      -2.791  12.052  23.309  0.00  0.00    +0.000 A 
ENDBRANCH  13  15
ENDBRANCH   3  11
BRANCH   8  22
ATOM     22  S   UNL     1       3.679   5.289  18.792  0.00  0.00    +0.000 S 
ATOM     23  O   UNL     1       4.208   5.086  20.124  0.00  0.00    +0.000 OA
ATOM     24  O   UNL     1       2.808   4.309  18.180  0.00  0.00    +0.000 OA
BRANCH  22  25
ATOM     25  N   UNL     1       4.965   5.547  17.752  0.00  0.00    +0.000 NA
ATOM     26  C   UNL     1       6.325   5.803  18.283  0.00  0.00    +0.000 C 
ATOM     27  C   UNL     1       7.078   6.672  17.261  0.00  0.00    +0.000 C 
ATOM     28  O   UNL     1       7.104   6.056  15.960  0.00  0.00    +0.000 OA
ATOM     29  C   UNL     1       5.768   5.809  15.482  0.00  0.00    +0.000 C 
ATOM     30  C   UNL     1       5.018   4.870  16.437  0.00  0.00    +0.000 C 
ENDBRANCH  22  25
ENDBRANCH   8  22
TORSDOF 4
ENDMDL
MODEL 9
REMARK VINA RESULT:      -8.1      2.495      4.001
REMARK  Name = 
REMARK  5 active torsions:
REMARK  status: ('A' for Active; 'I' for Inactive)
REMARK    1  A    between atoms: C_1  and  C_2
REMARK    2  A    between atoms: C_3  and  C_4
REMARK    3  A    between atoms: N_6  and  C_7
REMARK    4  A    between atoms: C_18  and  S_19
REMARK    5  A    between atoms: S_19  and  N_22
REMARK                            x       y       z     vdW  Elec       q    Type
REMARK                         _______ _______ _______ _____ _____    ______ ____
ROOT
ATOM      1  C   UNL     1       0.182   8.603  22.269  0.00  0.00    +0.000 C 
ATOM      2  C   UNL     1       0.525   9.147  20.928  0.00  0.00    +0.000 A 
ATOM      3  C   UNL     1       0.105  10.338  20.342  0.00  0.00    +0.000 A 
ATOM      4  O   UNL     1       0.656  10.456  19.087  0.00  0.00    +0.000 OA
ATOM      5  C   UNL     1       1.412   9.348  18.866  0.00  0.00    +0.000 A 
ATOM      6  C   UNL     1       2.144   9.082  17.710  0.00  0.00    +0.000 A 
ATOM      7  C   UNL     1       2.839   7.865  17.671  0.00  0.00    +0.000 A 
ATOM      8  C   UNL     1       2.782   6.977  18.753  0.00  0.00    +0.000 A 
ATOM      9  C   UNL     1       2.067   7.291  19.920  0.00  0.00    +0.000 A 
ATOM     10  C   UNL     1       1.356   8.503  19.965  0.00  0.00    +0.000 A 
ENDROOT
BRANCH   3  11
ATOM     11  C   UNL     1      -0.779  11.397  20.813  0.00  0.00    +0.000 C 
ATOM     12  O   UNL     1      -1.291  12.209  20.050  0.00  0.00    +0.000 OA
ATOM     13  N   UNL     1      -0.927  11.404  22.192  0.00  0.00    +0.000 N 
ATOM     14  H   UNL     1      -0.363  10.720  22.684  0.00  0.00    +0.000 HD
BRANCH  13  15
ATOM     15  C   UNL     1      -1.663  12.322  22.970  0.00  0.00    +0.000 A 
ATOM     16  C   UNL     1      -2.953  12.076  23.447  0.00  0.00    +0.000 A 
ATOM     17  C   UNL     1      -3.641  13.046  24.184  0.00  0.00    +0.000 A 
ATOM     18  C   UNL     1      -3.045  14.277  24.446  0.00  0.00    +0.000 A 
ATOM     19  C   UNL     1      -1.755  14.521  23.989  0.00  0.00    +0.000 A 
ATOM     20 CL   UNL     1      -1.016  16.045  24.301  0.00  0.00    +0.000 Cl
ATOM     21  C   UNL     1      -1.057  13.549  23.266  0.00  0.00    +0.000 A 
ENDBRANCH  13  15
ENDBRANCH   3  11
BRANCH   8  22
ATOM     22  S   UNL     1       3.729   5.472  18.720  0.00  0.00    +0.000 S 
ATOM     23  O   UNL     1       3.829   5.052  17.339  0.00  0.00    +0.000 OA
ATOM     24  O   UNL     1       4.915   5.695  19.518  0.00  0.00    +0.000 OA
BRANCH  22  25
ATOM     25  N   UNL     1       2.769   4.368  19.534  0.00  0.00    +0.000 NA
ATOM     26  C   UNL     1       1.567   3.792  18.887  0.00  0.00    +0.000 C 
ATOM     27  C   UNL     1       0.553   3.445  19.990  0.00  0.00    +0.000 C 
ATOM     28  O   UNL     1       1.123   2.560  20.973  0.00  0.00    +0.000 OA
ATOM     29  C   UNL     1       2.296   3.144  21.570  0.00  0.00    +0.000 C 
ATOM     30  C   UNL     1       3.364   3.422  20.504  0.00  0.00    +0.000 C 
ENDBRANCH  22  25
ENDBRANCH   8  22
TORSDOF 4
ENDMDL
