MODEL 1
REMARK VINA RESULT:      -7.0      0.000      0.000
REMARK  Name = 
REMARK  10 active torsions:
REMARK  status: ('A' for Active; 'I' for Inactive)
REMARK    1  A    between atoms: C_1  and  C_2
REMARK    2  A    between atoms: C_2  and  N_3
REMARK    3  A    between atoms: N_10  and  C_11
REMARK    4  A    between atoms: C_13  and  C_14
REMARK    5  A    between atoms: C_14  and  C_15
REMARK    6  A    between atoms: C_14  and  C_16
REMARK    7  A    between atoms: C_14  and  C_17
REMARK    8  A    between atoms: C_19  and  C_20
REMARK    9  A    between atoms: C_20  and  O_22
REMARK   10  A    between atoms: O_22  and  C_23
REMARK                            x       y       z     vdW  Elec       q    Type
REMARK                         _______ _______ _______ _____ _____    ______ ____
ROOT
ATOM      1  N   UNL     1       0.529   9.588  19.803  0.00  0.00    +0.000 N 
ATOM      2  C   UNL     1      -0.236   9.783  20.916  0.00  0.00    +0.000 A 
ATOM      3  C   UNL     1      -0.044   8.667  21.701  0.00  0.00    +0.000 A 
ATOM      4  C   UNL     1       0.866   7.864  20.982  0.00  0.00    +0.000 A 
ATOM      5  N   UNL     1       1.316   6.618  21.364  0.00  0.00    +0.000 N 
ATOM      6  C   UNL     1       2.166   5.799  20.666  0.00  0.00    +0.000 C 
ATOM      7  O   UNL     1       2.368   4.669  21.110  0.00  0.00    +0.000 OA
ATOM      8  N   UNL     1       2.728   6.334  19.535  0.00  0.00    +0.000 N 
ATOM      9  N   UNL     1       1.250   8.462  19.851  0.00  0.00    +0.000 NA
ATOM     10  H   UNL     1       0.943   6.215  22.209  0.00  0.00    +0.000 HD
ATOM     11  H   UNL     1       2.542   7.328  19.395  0.00  0.00    +0.000 HD
ENDROOT
BRANCH   8  12
ATOM     12  C   UNL     1       3.549   5.695  18.619  0.00  0.00    +0.000 A 
ATOM     13  C   UNL     1       4.923   6.012  18.386  0.00  0.00    +0.000 A 
ATOM     14  C   UNL     1       5.518   5.251  17.401  0.00  0.00    +0.000 A 
ATOM     15  S   UNL     1       4.411   4.083  16.815  0.00  0.00    +0.000 S 
ATOM     16  C   UNL     1       3.142   4.626  17.833  0.00  0.00    +0.000 A 
BRANCH  14  17
ATOM     17  C   UNL     1       6.933   5.351  16.831  0.00  0.00    +0.000 C 
ATOM     18  C   UNL     1       7.919   4.478  17.638  0.00  0.00    +0.000 C 
ATOM     19  C   UNL     1       6.966   4.866  15.368  0.00  0.00    +0.000 C 
ATOM     20  C   UNL     1       7.424   6.810  16.910  0.00  0.00    +0.000 C 
ENDBRANCH  14  17
BRANCH  16  21
ATOM     21  C   UNL     1       1.873   3.934  17.698  0.00  0.00    +0.000 C 
ATOM     22  O   UNL     1       0.856   4.391  17.184  0.00  0.00    +0.000 OA
BRANCH  21  23
ATOM     23  O   UNL     1       1.924   2.702  18.285  0.00  0.00    +0.000 OA
ATOM     24  C   UNL     1       0.709   2.349  18.947  0.00  0.00    +0.000 C 
ENDBRANCH  21  23
ENDBRANCH  16  21
ENDBRANCH   8  12
BRANCH   1  26
ATOM     25  C   UNL     1      -0.630  10.574  17.852  0.00  0.00    +0.000 C 
ATOM     26  C   UNL     1       0.661  10.454  18.649  0.00  0.00    +0.000 C 
ENDBRANCH   1  26
TORSDOF 5
ENDMDL
MODEL 2
REMARK VINA RESULT:      -6.9      0.478      1.005
REMARK  Name = 
REMARK  10 active torsions:
REMARK  status: ('A' for Active; 'I' for Inactive)
REMARK    1  A    between atoms: C_1  and  C_2
REMARK    2  A    between atoms: C_2  and  N_3
REMARK    3  A    between atoms: N_10  and  C_11
REMARK    4  A    between atoms: C_13  and  C_14
REMARK    5  A    between atoms: C_14  and  C_15
REMARK    6  A    between atoms: C_14  and  C_16
REMARK    7  A    between atoms: C_14  and  C_17
REMARK    8  A    between atoms: C_19  and  C_20
REMARK    9  A    between atoms: C_20  and  O_22
REMARK   10  A    between atoms: O_22  and  C_23
REMARK                            x       y       z     vdW  Elec       q    Type
REMARK                         _______ _______ _______ _____ _____    ______ ____
ROOT
ATOM      1  N   UNL     1       0.737   9.631  19.791  0.00  0.00    +0.000 N 
ATOM      2  C   UNL     1      -0.080   9.802  20.870  0.00  0.00    +0.000 A 
ATOM      3  C   UNL     1       0.020   8.640  21.602  0.00  0.00    +0.000 A 
ATOM      4  C   UNL     1       0.933   7.834  20.890  0.00  0.00    +0.000 A 
ATOM      5  N   UNL     1       1.307   6.550  21.226  0.00  0.00    +0.000 N 
ATOM      6  C   UNL     1       2.158   5.731  20.530  0.00  0.00    +0.000 C 
ATOM      7  O   UNL     1       2.287   4.571  20.922  0.00  0.00    +0.000 OA
ATOM      8  N   UNL     1       2.805   6.299  19.462  0.00  0.00    +0.000 N 
ATOM      9  N   UNL     1       1.405   8.473  19.815  0.00  0.00    +0.000 NA
ATOM     10  H   UNL     1       0.870   6.121  22.027  0.00  0.00    +0.000 HD
ATOM     11  H   UNL     1       2.670   7.306  19.367  0.00  0.00    +0.000 HD
ENDROOT
BRANCH   8  12
ATOM     12  C   UNL     1       3.647   5.671  18.558  0.00  0.00    +0.000 A 
ATOM     13  C   UNL     1       5.036   5.966  18.387  0.00  0.00    +0.000 A 
ATOM     14  C   UNL     1       5.653   5.224  17.402  0.00  0.00    +0.000 A 
ATOM     15  S   UNL     1       4.546   4.099  16.736  0.00  0.00    +0.000 S 
ATOM     16  C   UNL     1       3.250   4.637  17.723  0.00  0.00    +0.000 A 
BRANCH  14  17
ATOM     17  C   UNL     1       7.091   5.312  16.889  0.00  0.00    +0.000 C 
ATOM     18  C   UNL     1       7.186   4.834  15.424  0.00  0.00    +0.000 C 
ATOM     19  C   UNL     1       7.599   6.766  16.943  0.00  0.00    +0.000 C 
ATOM     20  C   UNL     1       8.004   4.407  17.739  0.00  0.00    +0.000 C 
ENDBRANCH  14  17
BRANCH  16  21
ATOM     21  C   UNL     1       1.973   3.977  17.517  0.00  0.00    +0.000 C 
ATOM     22  O   UNL     1       0.880   4.532  17.444  0.00  0.00    +0.000 OA
BRANCH  21  23
ATOM     23  O   UNL     1       2.126   2.620  17.479  0.00  0.00    +0.000 OA
ATOM     24  C   UNL     1       2.136   2.024  18.777  0.00  0.00    +0.000 C 
ENDBRANCH  21  23
ENDBRANCH  16  21
ENDBRANCH   8  12
BRANCH   1  26
ATOM     25  C   UNL     1      -0.106  11.621  18.585  0.00  0.00    +0.000 C 
ATOM     26  C   UNL     1       0.969  10.549  18.695  0.00  0.00    +0.000 C 
ENDBRANCH   1  26
TORSDOF 5
ENDMDL
MODEL 3
REMARK VINA RESULT:      -6.9      3.954      7.487
REMARK  Name = 
REMARK  10 active torsions:
REMARK  status: ('A' for Active; 'I' for Inactive)
REMARK    1  A    between atoms: C_1  and  C_2
REMARK    2  A    between atoms: C_2  and  N_3
REMARK    3  A    between atoms: N_10  and  C_11
REMARK    4  A    between atoms: C_13  and  C_14
REMARK    5  A    between atoms: C_14  and  C_15
REMARK    6  A    between atoms: C_14  and  C_16
REMARK    7  A    between atoms: C_14  and  C_17
REMARK    8  A    between atoms: C_19  and  C_20
REMARK    9  A    between atoms: C_20  and  O_22
REMARK   10  A    between atoms: O_22  and  C_23
REMARK                            x       y       z     vdW  Elec       q    Type
REMARK                         _______ _______ _______ _____ _____    ______ ____
ROOT
ATOM      1  N   UNL     1       5.907   3.760  12.643  0.00  0.00    +0.000 N 
ATOM      2  C   UNL     1       7.040   4.097  11.962  0.00  0.00    +0.000 A 
ATOM      3  C   UNL     1       7.807   4.820  12.850  0.00  0.00    +0.000 A 
ATOM      4  C   UNL     1       7.057   4.851  14.044  0.00  0.00    +0.000 A 
ATOM      5  N   UNL     1       7.413   5.510  15.202  0.00  0.00    +0.000 N 
ATOM      6  C   UNL     1       6.684   5.591  16.360  0.00  0.00    +0.000 C 
ATOM      7  O   UNL     1       7.109   6.320  17.256  0.00  0.00    +0.000 OA
ATOM      8  N   UNL     1       5.546   4.826  16.414  0.00  0.00    +0.000 N 
ATOM      9  N   UNL     1       5.924   4.153  13.921  0.00  0.00    +0.000 NA
ATOM     10  H   UNL     1       8.261   6.052  15.199  0.00  0.00    +0.000 HD
ATOM     11  H   UNL     1       5.422   4.189  15.627  0.00  0.00    +0.000 HD
ENDROOT
BRANCH   8  12
ATOM     12  C   UNL     1       4.603   4.791  17.429  0.00  0.00    +0.000 A 
ATOM     13  C   UNL     1       4.340   3.663  18.267  0.00  0.00    +0.000 A 
ATOM     14  C   UNL     1       3.332   3.866  19.187  0.00  0.00    +0.000 A 
ATOM     15  S   UNL     1       2.759   5.477  19.081  0.00  0.00    +0.000 S 
ATOM     16  C   UNL     1       3.815   5.874  17.789  0.00  0.00    +0.000 A 
BRANCH  14  17
ATOM     17  C   UNL     1       2.728   2.879  20.187  0.00  0.00    +0.000 C 
ATOM     18  C   UNL     1       3.833   2.067  20.898  0.00  0.00    +0.000 C 
ATOM     19  C   UNL     1       1.924   3.625  21.269  0.00  0.00    +0.000 C 
ATOM     20  C   UNL     1       1.814   1.883  19.447  0.00  0.00    +0.000 C 
ENDBRANCH  14  17
BRANCH  16  21
ATOM     21  C   UNL     1       3.703   7.224  17.264  0.00  0.00    +0.000 C 
ATOM     22  O   UNL     1       4.105   7.605  16.168  0.00  0.00    +0.000 OA
BRANCH  21  23
ATOM     23  O   UNL     1       3.141   8.061  18.185  0.00  0.00    +0.000 OA
ATOM     24  C   UNL     1       2.057   8.825  17.655  0.00  0.00    +0.000 C 
ENDBRANCH  21  23
ENDBRANCH  16  21
ENDBRANCH   8  12
BRANCH   1  26
ATOM     25  C   UNL     1       4.037   3.736  11.022  0.00  0.00    +0.000 C 
ATOM     26  C   UNL     1       4.760   3.021  12.154  0.00  0.00    +0.000 C 
ENDBRANCH   1  26
TORSDOF 5
ENDMDL
MODEL 4
REMARK VINA RESULT:      -6.8      3.095      4.922
REMARK  Name = 
REMARK  10 active torsions:
REMARK  status: ('A' for Active; 'I' for Inactive)
REMARK    1  A    between atoms: C_1  and  C_2
REMARK    2  A    between atoms: C_2  and  N_3
REMARK    3  A    between atoms: N_10  and  C_11
REMARK    4  A    between atoms: C_13  and  C_14
REMARK    5  A    between atoms: C_14  and  C_15
REMARK    6  A    between atoms: C_14  and  C_16
REMARK    7  A    between atoms: C_14  and  C_17
REMARK    8  A    between atoms: C_19  and  C_20
REMARK    9  A    between atoms: C_20  and  O_22
REMARK   10  A    between atoms: O_22  and  C_23
REMARK                            x       y       z     vdW  Elec       q    Type
REMARK                         _______ _______ _______ _____ _____    ______ ____
ROOT
ATOM      1  N   UNL     1       2.216   6.200  19.617  0.00  0.00    +0.000 N 
ATOM      2  C   UNL     1       1.448   5.609  20.576  0.00  0.00    +0.000 A 
ATOM      3  C   UNL     1       1.647   4.254  20.431  0.00  0.00    +0.000 A 
ATOM      4  C   UNL     1       2.564   4.129  19.366  0.00  0.00    +0.000 A 
ATOM      5  N   UNL     1       3.022   2.942  18.834  0.00  0.00    +0.000 N 
ATOM      6  C   UNL     1       3.879   2.792  17.774  0.00  0.00    +0.000 C 
ATOM      7  O   UNL     1       4.090   1.651  17.363  0.00  0.00    +0.000 OA
ATOM      8  N   UNL     1       4.440   3.943  17.282  0.00  0.00    +0.000 N 
ATOM      9  N   UNL     1       2.945   5.327  18.914  0.00  0.00    +0.000 NA
ATOM     10  H   UNL     1       2.651   2.081  19.200  0.00  0.00    +0.000 HD
ATOM     11  H   UNL     1       4.246   4.782  17.831  0.00  0.00    +0.000 HD
ENDROOT
BRANCH   8  12
ATOM     12  C   UNL     1       5.267   4.071  16.177  0.00  0.00    +0.000 A 
ATOM     13  C   UNL     1       4.912   3.711  14.839  0.00  0.00    +0.000 A 
ATOM     14  C   UNL     1       5.919   3.907  13.917  0.00  0.00    +0.000 A 
ATOM     15  S   UNL     1       7.281   4.614  14.678  0.00  0.00    +0.000 S 
ATOM     16  C   UNL     1       6.544   4.610  16.227  0.00  0.00    +0.000 A 
BRANCH  14  17
ATOM     17  C   UNL     1       5.936   3.571  12.425  0.00  0.00    +0.000 C 
ATOM     18  C   UNL     1       6.314   2.091  12.195  0.00  0.00    +0.000 C 
ATOM     19  C   UNL     1       4.546   3.803  11.800  0.00  0.00    +0.000 C 
ATOM     20  C   UNL     1       6.986   4.442  11.707  0.00  0.00    +0.000 C 
ENDBRANCH  14  17
BRANCH  16  21
ATOM     21  C   UNL     1       7.352   5.120  17.320  0.00  0.00    +0.000 C 
ATOM     22  O   UNL     1       7.610   4.525  18.362  0.00  0.00    +0.000 OA
BRANCH  21  23
ATOM     23  O   UNL     1       7.749   6.404  17.076  0.00  0.00    +0.000 OA
ATOM     24  C   UNL     1       6.751   7.370  17.408  0.00  0.00    +0.000 C 
ENDBRANCH  21  23
ENDBRANCH  16  21
ENDBRANCH   8  12
BRANCH   1  26
ATOM     25  C   UNL     1       2.776   7.880  17.888  0.00  0.00    +0.000 C 
ATOM     26  C   UNL     1       2.343   7.613  19.322  0.00  0.00    +0.000 C 
ENDBRANCH   1  26
TORSDOF 5
ENDMDL
MODEL 5
REMARK VINA RESULT:      -6.8      3.809      7.516
REMARK  Name = 
REMARK  10 active torsions:
REMARK  status: ('A' for Active; 'I' for Inactive)
REMARK    1  A    between atoms: C_1  and  C_2
REMARK    2  A    between atoms: C_2  and  N_3
REMARK    3  A    between atoms: N_10  and  C_11
REMARK    4  A    between atoms: C_13  and  C_14
REMARK    5  A    between atoms: C_14  and  C_15
REMARK    6  A    between atoms: C_14  and  C_16
REMARK    7  A    between atoms: C_14  and  C_17
REMARK    8  A    between atoms: C_19  and  C_20
REMARK    9  A    between atoms: C_20  and  O_22
REMARK   10  A    between atoms: O_22  and  C_23
REMARK                            x       y       z     vdW  Elec       q    Type
REMARK                         _______ _______ _______ _____ _____    ______ ____
ROOT
ATOM      1  N   UNL     1       6.079   3.978  12.844  0.00  0.00    +0.000 N 
ATOM      2  C   UNL     1       7.252   4.340  12.250  0.00  0.00    +0.000 A 
ATOM      3  C   UNL     1       7.951   5.046  13.204  0.00  0.00    +0.000 A 
ATOM      4  C   UNL     1       7.122   5.043  14.345  0.00  0.00    +0.000 A 
ATOM      5  N   UNL     1       7.394   5.676  15.540  0.00  0.00    +0.000 N 
ATOM      6  C   UNL     1       6.588   5.723  16.648  0.00  0.00    +0.000 C 
ATOM      7  O   UNL     1       6.946   6.434  17.588  0.00  0.00    +0.000 OA
ATOM      8  N   UNL     1       5.457   4.950  16.607  0.00  0.00    +0.000 N 
ATOM      9  N   UNL     1       6.006   4.340  14.130  0.00  0.00    +0.000 NA
ATOM     10  H   UNL     1       8.236   6.224  15.607  0.00  0.00    +0.000 HD
ATOM     11  H   UNL     1       5.392   4.331  15.798  0.00  0.00    +0.000 HD
ENDROOT
BRANCH   8  12
ATOM     12  C   UNL     1       4.448   4.883  17.555  0.00  0.00    +0.000 A 
ATOM     13  C   UNL     1       4.143   3.734  18.351  0.00  0.00    +0.000 A 
ATOM     14  C   UNL     1       3.073   3.908  19.204  0.00  0.00    +0.000 A 
ATOM     15  S   UNL     1       2.489   5.514  19.092  0.00  0.00    +0.000 S 
ATOM     16  C   UNL     1       3.624   5.950  17.882  0.00  0.00    +0.000 A 
BRANCH  14  17
ATOM     17  C   UNL     1       2.415   2.893  20.141  0.00  0.00    +0.000 C 
ATOM     18  C   UNL     1       1.682   1.795  19.340  0.00  0.00    +0.000 C 
ATOM     19  C   UNL     1       3.473   2.204  21.024  0.00  0.00    +0.000 C 
ATOM     20  C   UNL     1       1.374   3.603  21.028  0.00  0.00    +0.000 C 
ENDBRANCH  14  17
BRANCH  16  21
ATOM     21  C   UNL     1       3.531   7.308  17.379  0.00  0.00    +0.000 C 
ATOM     22  O   UNL     1       3.982   7.712  16.310  0.00  0.00    +0.000 OA
BRANCH  21  23
ATOM     23  O   UNL     1       2.923   8.126  18.288  0.00  0.00    +0.000 OA
ATOM     24  C   UNL     1       1.977   9.015  17.693  0.00  0.00    +0.000 C 
ENDBRANCH  21  23
ENDBRANCH  16  21
ENDBRANCH   8  12
BRANCH   1  26
ATOM     25  C   UNL     1       5.431   2.069  11.408  0.00  0.00    +0.000 C 
ATOM     26  C   UNL     1       4.974   3.243  12.262  0.00  0.00    +0.000 C 
ENDBRANCH   1  26
TORSDOF 5
ENDMDL
MODEL 6
REMARK VINA RESULT:      -6.7      0.574      1.131
REMARK  Name = 
REMARK  10 active torsions:
REMARK  status: ('A' for Active; 'I' for Inactive)
REMARK    1  A    between atoms: C_1  and  C_2
REMARK    2  A    between atoms: C_2  and  N_3
REMARK    3  A    between atoms: N_10  and  C_11
REMARK    4  A    between atoms: C_13  and  C_14
REMARK    5  A    between atoms: C_14  and  C_15
REMARK    6  A    between atoms: C_14  and  C_16
REMARK    7  A    between atoms: C_14  and  C_17
REMARK    8  A    between atoms: C_19  and  C_20
REMARK    9  A    between atoms: C_20  and  O_22
REMARK   10  A    between atoms: O_22  and  C_23
REMARK                            x       y       z     vdW  Elec       q    Type
REMARK                         _______ _______ _______ _____ _____    ______ ____
ROOT
ATOM      1  N   UNL     1       0.693   9.972  19.778  0.00  0.00    +0.000 N 
ATOM      2  C   UNL     1      -0.071  10.235  20.877  0.00  0.00    +0.000 A 
ATOM      3  C   UNL     1       0.051   9.130  21.689  0.00  0.00    +0.000 A 
ATOM      4  C   UNL     1       0.922   8.261  21.000  0.00  0.00    +0.000 A 
ATOM      5  N   UNL     1       1.298   7.001  21.416  0.00  0.00    +0.000 N 
ATOM      6  C   UNL     1       2.108   6.120  20.746  0.00  0.00    +0.000 C 
ATOM      7  O   UNL     1       2.243   4.991  21.219  0.00  0.00    +0.000 OA
ATOM      8  N   UNL     1       2.710   6.596  19.610  0.00  0.00    +0.000 N 
ATOM      9  N   UNL     1       1.350   8.810  19.860  0.00  0.00    +0.000 NA
ATOM     10  H   UNL     1       0.895   6.640  22.266  0.00  0.00    +0.000 HD
ATOM     11  H   UNL     1       2.580   7.595  19.444  0.00  0.00    +0.000 HD
ENDROOT
BRANCH   8  12
ATOM     12  C   UNL     1       3.503   5.891  18.719  0.00  0.00    +0.000 A 
ATOM     13  C   UNL     1       4.886   6.150  18.466  0.00  0.00    +0.000 A 
ATOM     14  C   UNL     1       5.449   5.328  17.512  0.00  0.00    +0.000 A 
ATOM     15  S   UNL     1       4.299   4.175  16.980  0.00  0.00    +0.000 S 
ATOM     16  C   UNL     1       3.056   4.805  17.980  0.00  0.00    +0.000 A 
BRANCH  14  17
ATOM     17  C   UNL     1       6.864   5.356  16.932  0.00  0.00    +0.000 C 
ATOM     18  C   UNL     1       7.440   6.788  16.947  0.00  0.00    +0.000 C 
ATOM     19  C   UNL     1       7.808   4.461  17.759  0.00  0.00    +0.000 C 
ATOM     20  C   UNL     1       6.836   4.875  15.468  0.00  0.00    +0.000 C 
ENDBRANCH  14  17
BRANCH  16  21
ATOM     21  C   UNL     1       1.763   4.152  17.880  0.00  0.00    +0.000 C 
ATOM     22  O   UNL     1       0.911   4.372  17.023  0.00  0.00    +0.000 OA
BRANCH  21  23
ATOM     23  O   UNL     1       1.572   3.285  18.917  0.00  0.00    +0.000 OA
ATOM     24  C   UNL     1       1.760   1.919  18.545  0.00  0.00    +0.000 C 
ENDBRANCH  21  23
ENDBRANCH  16  21
ENDBRANCH   8  12
BRANCH   1  26
ATOM     25  C   UNL     1       1.306  12.222  18.950  0.00  0.00    +0.000 C 
ATOM     26  C   UNL     1       0.883  10.801  18.605  0.00  0.00    +0.000 C 
ENDBRANCH   1  26
TORSDOF 5
ENDMDL
MODEL 7
REMARK VINA RESULT:      -6.7      3.144      4.871
REMARK  Name = 
REMARK  10 active torsions:
REMARK  status: ('A' for Active; 'I' for Inactive)
REMARK    1  A    between atoms: C_1  and  C_2
REMARK    2  A    between atoms: C_2  and  N_3
REMARK    3  A    between atoms: N_10  and  C_11
REMARK    4  A    between atoms: C_13  and  C_14
REMARK    5  A    between atoms: C_14  and  C_15
REMARK    6  A    between atoms: C_14  and  C_16
REMARK    7  A    between atoms: C_14  and  C_17
REMARK    8  A    between atoms: C_19  and  C_20
REMARK    9  A    between atoms: C_20  and  O_22
REMARK   10  A    between atoms: O_22  and  C_23
REMARK                            x       y       z     vdW  Elec       q    Type
REMARK                         _______ _______ _______ _____ _____    ______ ____
ROOT
ATOM      1  N   UNL     1       2.240   6.328  19.546  0.00  0.00    +0.000 N 
ATOM      2  C   UNL     1       1.536   5.736  20.553  0.00  0.00    +0.000 A 
ATOM      3  C   UNL     1       1.792   4.387  20.445  0.00  0.00    +0.000 A 
ATOM      4  C   UNL     1       2.675   4.267  19.352  0.00  0.00    +0.000 A 
ATOM      5  N   UNL     1       3.168   3.085  18.841  0.00  0.00    +0.000 N 
ATOM      6  C   UNL     1       3.992   2.937  17.755  0.00  0.00    +0.000 C 
ATOM      7  O   UNL     1       4.240   1.792  17.374  0.00  0.00    +0.000 OA
ATOM      8  N   UNL     1       4.480   4.094  17.204  0.00  0.00    +0.000 N 
ATOM      9  N   UNL     1       2.984   5.464  18.846  0.00  0.00    +0.000 NA
ATOM     10  H   UNL     1       2.851   2.220  19.250  0.00  0.00    +0.000 HD
ATOM     11  H   UNL     1       4.268   4.941  17.732  0.00  0.00    +0.000 HD
ENDROOT
BRANCH   8  12
ATOM     12  C   UNL     1       5.260   4.220  16.065  0.00  0.00    +0.000 A 
ATOM     13  C   UNL     1       4.920   3.704  14.776  0.00  0.00    +0.000 A 
ATOM     14  C   UNL     1       5.874   3.935  13.807  0.00  0.00    +0.000 A 
ATOM     15  S   UNL     1       7.158   4.863  14.459  0.00  0.00    +0.000 S 
ATOM     16  C   UNL     1       6.464   4.908  16.026  0.00  0.00    +0.000 A 
BRANCH  14  17
ATOM     17  C   UNL     1       5.896   3.473  12.349  0.00  0.00    +0.000 C 
ATOM     18  C   UNL     1       6.927   4.279  11.529  0.00  0.00    +0.000 C 
ATOM     19  C   UNL     1       6.283   1.984  12.256  0.00  0.00    +0.000 C 
ATOM     20  C   UNL     1       4.511   3.696  11.711  0.00  0.00    +0.000 C 
ENDBRANCH  14  17
BRANCH  16  21
ATOM     21  C   UNL     1       7.229   5.605  17.044  0.00  0.00    +0.000 C 
ATOM     22  O   UNL     1       7.735   6.718  16.928  0.00  0.00    +0.000 OA
BRANCH  21  23
ATOM     23  O   UNL     1       7.382   4.829  18.157  0.00  0.00    +0.000 OA
ATOM     24  C   UNL     1       7.127   5.537  19.371  0.00  0.00    +0.000 C 
ENDBRANCH  21  23
ENDBRANCH  16  21
ENDBRANCH   8  12
BRANCH   1  26
ATOM     25  C   UNL     1       2.881   7.981  17.820  0.00  0.00    +0.000 C 
ATOM     26  C   UNL     1       2.291   7.734  19.200  0.00  0.00    +0.000 C 
ENDBRANCH   1  26
TORSDOF 5
ENDMDL
MODEL 8
REMARK VINA RESULT:      -6.6      4.476      7.960
REMARK  Name = 
REMARK  10 active torsions:
REMARK  status: ('A' for Active; 'I' for Inactive)
REMARK    1  A    between atoms: C_1  and  C_2
REMARK    2  A    between atoms: C_2  and  N_3
REMARK    3  A    between atoms: N_10  and  C_11
REMARK    4  A    between atoms: C_13  and  C_14
REMARK    5  A    between atoms: C_14  and  C_15
REMARK    6  A    between atoms: C_14  and  C_16
REMARK    7  A    between atoms: C_14  and  C_17
REMARK    8  A    between atoms: C_19  and  C_20
REMARK    9  A    between atoms: C_20  and  O_22
REMARK   10  A    between atoms: O_22  and  C_23
REMARK                            x       y       z     vdW  Elec       q    Type
REMARK                         _______ _______ _______ _____ _____    ______ ____
ROOT
ATOM      1  N   UNL     1       4.680   3.255  11.666  0.00  0.00    +0.000 N 
ATOM      2  C   UNL     1       5.773   3.023  10.883  0.00  0.00    +0.000 A 
ATOM      3  C   UNL     1       6.862   3.158  11.715  0.00  0.00    +0.000 A 
ATOM      4  C   UNL     1       6.323   3.457  12.983  0.00  0.00    +0.000 A 
ATOM      5  N   UNL     1       7.049   3.723  14.125  0.00  0.00    +0.000 N 
ATOM      6  C   UNL     1       6.552   4.057  15.358  0.00  0.00    +0.000 C 
ATOM      7  O   UNL     1       7.356   4.372  16.236  0.00  0.00    +0.000 OA
ATOM      8  N   UNL     1       5.189   3.988  15.500  0.00  0.00    +0.000 N 
ATOM      9  N   UNL     1       4.987   3.460  12.952  0.00  0.00    +0.000 NA
ATOM     10  H   UNL     1       8.054   3.747  14.055  0.00  0.00    +0.000 HD
ATOM     11  H   UNL     1       4.697   3.585  14.702  0.00  0.00    +0.000 HD
ENDROOT
BRANCH   8  12
ATOM     12  C   UNL     1       4.439   4.347  16.608  0.00  0.00    +0.000 A 
ATOM     13  C   UNL     1       3.666   3.446  17.405  0.00  0.00    +0.000 A 
ATOM     14  C   UNL     1       2.983   4.051  18.439  0.00  0.00    +0.000 A 
ATOM     15  S   UNL     1       3.355   5.722  18.488  0.00  0.00    +0.000 S 
ATOM     16  C   UNL     1       4.376   5.638  17.113  0.00  0.00    +0.000 A 
BRANCH  14  17
ATOM     17  C   UNL     1       2.009   3.431  19.441  0.00  0.00    +0.000 C 
ATOM     18  C   UNL     1       2.756   2.553  20.469  0.00  0.00    +0.000 C 
ATOM     19  C   UNL     1       1.257   4.529  20.220  0.00  0.00    +0.000 C 
ATOM     20  C   UNL     1       1.001   2.531  18.700  0.00  0.00    +0.000 C 
ENDBRANCH  14  17
BRANCH  16  21
ATOM     21  C   UNL     1       4.971   6.891  16.681  0.00  0.00    +0.000 C 
ATOM     22  O   UNL     1       4.933   7.350  15.543  0.00  0.00    +0.000 OA
BRANCH  21  23
ATOM     23  O   UNL     1       5.654   7.485  17.703  0.00  0.00    +0.000 OA
ATOM     24  C   UNL     1       7.060   7.563  17.463  0.00  0.00    +0.000 C 
ENDBRANCH  21  23
ENDBRANCH  16  21
ENDBRANCH   8  12
BRANCH   1  26
ATOM     25  C   UNL     1       3.072   3.845   9.880  0.00  0.00    +0.000 C 
ATOM     26  C   UNL     1       3.286   3.266  11.271  0.00  0.00    +0.000 C 
ENDBRANCH   1  26
TORSDOF 5
ENDMDL
MODEL 9
REMARK VINA RESULT:      -6.5      3.061      5.067
REMARK  Name = 
REMARK  10 active torsions:
REMARK  status: ('A' for Active; 'I' for Inactive)
REMARK    1  A    between atoms: C_1  and  C_2
REMARK    2  A    between atoms: C_2  and  N_3
REMARK    3  A    between atoms: N_10  and  C_11
REMARK    4  A    between atoms: C_13  and  C_14
REMARK    5  A    between atoms: C_14  and  C_15
REMARK    6  A    between atoms: C_14  and  C_16
REMARK    7  A    between atoms: C_14  and  C_17
REMARK    8  A    between atoms: C_19  and  C_20
REMARK    9  A    between atoms: C_20  and  O_22
REMARK   10  A    between atoms: O_22  and  C_23
REMARK                            x       y       z     vdW  Elec       q    Type
REMARK                         _______ _______ _______ _____ _____    ______ ____
ROOT
ATOM      1  N   UNL     1       2.202   5.913  19.816  0.00  0.00    +0.000 N 
ATOM      2  C   UNL     1       1.451   5.262  20.749  0.00  0.00    +0.000 A 
ATOM      3  C   UNL     1       1.659   3.919  20.525  0.00  0.00    +0.000 A 
ATOM      4  C   UNL     1       2.564   3.862  19.445  0.00  0.00    +0.000 A 
ATOM      5  N   UNL     1       3.026   2.712  18.841  0.00  0.00    +0.000 N 
ATOM      6  C   UNL     1       3.872   2.630  17.764  0.00  0.00    +0.000 C 
ATOM      7  O   UNL     1       4.087   1.515  17.287  0.00  0.00    +0.000 OA
ATOM      8  N   UNL     1       4.416   3.812  17.331  0.00  0.00    +0.000 N 
ATOM      9  N   UNL     1       2.930   5.087  19.056  0.00  0.00    +0.000 NA
ATOM     10  H   UNL     1       2.666   1.828  19.163  0.00  0.00    +0.000 HD
ATOM     11  H   UNL     1       4.222   4.616  17.929  0.00  0.00    +0.000 HD
ENDROOT
BRANCH   8  12
ATOM     12  C   UNL     1       5.229   4.009  16.226  0.00  0.00    +0.000 A 
ATOM     13  C   UNL     1       4.902   3.627  14.887  0.00  0.00    +0.000 A 
ATOM     14  C   UNL     1       5.889   3.905  13.965  0.00  0.00    +0.000 A 
ATOM     15  S   UNL     1       7.191   4.716  14.727  0.00  0.00    +0.000 S 
ATOM     16  C   UNL     1       6.460   4.647  16.276  0.00  0.00    +0.000 A 
BRANCH  14  17
ATOM     17  C   UNL     1       5.930   3.578  12.472  0.00  0.00    +0.000 C 
ATOM     18  C   UNL     1       4.571   3.878  11.802  0.00  0.00    +0.000 C 
ATOM     19  C   UNL     1       7.002   4.425  11.758  0.00  0.00    +0.000 C 
ATOM     20  C   UNL     1       6.230   2.079  12.275  0.00  0.00    +0.000 C 
ENDBRANCH  14  17
BRANCH  16  21
ATOM     21  C   UNL     1       7.226   5.216  17.371  0.00  0.00    +0.000 C 
ATOM     22  O   UNL     1       7.259   4.791  18.522  0.00  0.00    +0.000 OA
BRANCH  21  23
ATOM     23  O   UNL     1       7.875   6.350  16.975  0.00  0.00    +0.000 OA
ATOM     24  C   UNL     1       7.535   7.491  17.764  0.00  0.00    +0.000 C 
ENDBRANCH  21  23
ENDBRANCH  16  21
ENDBRANCH   8  12
BRANCH   1  26
ATOM     25  C   UNL     1       1.548   8.156  20.632  0.00  0.00    +0.000 C 
ATOM     26  C   UNL     1       2.314   7.342  19.600  0.00  0.00    +0.000 C 
ENDBRANCH   1  26
TORSDOF 5
ENDMDL
