MODEL 1
REMARK VINA RESULT:      -9.2      0.000      0.000
REMARK  Name = 
REMARK  5 active torsions:
REMARK  status: ('A' for Active; 'I' for Inactive)
REMARK    1  A    between atoms: N_2  and  C_4
REMARK    2  A    between atoms: C_4  and  C_5
REMARK    3  A    between atoms: C_5  and  C_6
REMARK    4  A    between atoms: C_5  and  C_12
REMARK    5  A    between atoms: C_13  and  C_14
REMARK                            x       y       z     vdW  Elec       q    Type
REMARK                         _______ _______ _______ _____ _____    ______ ____
ROOT
ATOM      1  C   UNL     1       5.262   4.384  17.363  0.00  0.00    +0.000 A 
ATOM      2  C   UNL     1       5.051   5.013  18.609  0.00  0.00    +0.000 A 
ATOM      3  N   UNL     1       5.209   3.877  19.409  0.00  0.00    +0.000 N 
ATOM      4  C   UNL     1       4.235   3.032  18.888  0.00  0.00    +0.000 A 
ATOM      5  C   UNL     1       3.375   2.184  19.584  0.00  0.00    +0.000 A 
ATOM      6  C   UNL     1       2.112   2.048  19.025  0.00  0.00    +0.000 A 
ATOM      7  C   UNL     1       1.828   2.607  17.775  0.00  0.00    +0.000 A 
ATOM      8  C   UNL     1       2.828   3.233  16.977  0.00  0.00    +0.000 A 
ATOM      9  C   UNL     1       4.106   3.474  17.553  0.00  0.00    +0.000 A 
ATOM     10  H   UNL     1       6.126   3.483  19.574  0.00  0.00    +0.000 HD
ENDROOT
BRANCH   2  11
ATOM     11  C   UNL     1       3.990   6.078  18.773  0.00  0.00    +0.000 A 
ATOM     12  C   UNL     1       3.828   7.070  17.767  0.00  0.00    +0.000 A 
ATOM     13  C   UNL     1       2.837   8.041  17.811  0.00  0.00    +0.000 A 
ATOM     14  C   UNL     1       1.987   8.056  18.892  0.00  0.00    +0.000 A 
ATOM     15  C   UNL     1       2.138   7.092  19.886  0.00  0.00    +0.000 A 
ATOM     16  F   UNL     1       1.296   7.131  20.918  0.00  0.00    +0.000 F 
ATOM     17  C   UNL     1       3.130   6.103  19.850  0.00  0.00    +0.000 A 
ENDBRANCH   2  11
BRANCH   1  18
ATOM     18  C   UNL     1       5.997   5.278  16.353  0.00  0.00    +0.000 C 
BRANCH  18  19
ATOM     19  C   UNL     1       6.063   4.835  14.905  0.00  0.00    +0.000 A 
ATOM     20  C   UNL     1       5.172   3.984  14.266  0.00  0.00    +0.000 A 
ATOM     21  C   UNL     1       5.454   3.505  12.979  0.00  0.00    +0.000 A 
ATOM     22  C   UNL     1       6.640   3.857  12.317  0.00  0.00    +0.000 A 
ATOM     23  C   UNL     1       7.535   4.714  12.930  0.00  0.00    +0.000 A 
ATOM     24  C   UNL     1       7.241   5.211  14.196  0.00  0.00    +0.000 A 
ENDBRANCH  18  19
BRANCH  18  25
ATOM     25  C   UNL     1       7.458   5.586  16.850  0.00  0.00    +0.000 C 
BRANCH  25  27
ATOM     26  O   UNL     1       7.153   7.932  16.932  0.00  0.00    +0.000 OA
ATOM     27  N   UNL     1       7.555   6.927  17.536  0.00  0.00    +0.000 N 
ATOM     28  O   UNL     1       8.124   6.941  18.636  0.00  0.00    +0.000 OA
ENDBRANCH  25  27
ENDBRANCH  18  25
ENDBRANCH   1  18
TORSDOF 5
ENDMDL
MODEL 2
REMARK VINA RESULT:      -9.0      0.849      1.252
REMARK  Name = 
REMARK  5 active torsions:
REMARK  status: ('A' for Active; 'I' for Inactive)
REMARK    1  A    between atoms: N_2  and  C_4
REMARK    2  A    between atoms: C_4  and  C_5
REMARK    3  A    between atoms: C_5  and  C_6
REMARK    4  A    between atoms: C_5  and  C_12
REMARK    5  A    between atoms: C_13  and  C_14
REMARK                            x       y       z     vdW  Elec       q    Type
REMARK                         _______ _______ _______ _____ _____    ______ ____
ROOT
ATOM      1  C   UNL     1       5.271   4.394  17.346  0.00  0.00    +0.000 A 
ATOM      2  C   UNL     1       5.030   5.040  18.578  0.00  0.00    +0.000 A 
ATOM      3  N   UNL     1       5.242   3.932  19.403  0.00  0.00    +0.000 N 
ATOM      4  C   UNL     1       4.309   3.030  18.902  0.00  0.00    +0.000 A 
ATOM      5  C   UNL     1       3.489   2.158  19.619  0.00  0.00    +0.000 A 
ATOM      6  C   UNL     1       2.235   1.949  19.064  0.00  0.00    +0.000 A 
ATOM      7  C   UNL     1       1.925   2.466  17.801  0.00  0.00    +0.000 A 
ATOM      8  C   UNL     1       2.895   3.120  16.989  0.00  0.00    +0.000 A 
ATOM      9  C   UNL     1       4.159   3.435  17.558  0.00  0.00    +0.000 A 
ATOM     10  H   UNL     1       6.176   3.586  19.577  0.00  0.00    +0.000 HD
ENDROOT
BRANCH   2  11
ATOM     11  C   UNL     1       3.919   6.058  18.718  0.00  0.00    +0.000 A 
ATOM     12  C   UNL     1       3.098   6.047  19.879  0.00  0.00    +0.000 A 
ATOM     13  C   UNL     1       2.102   6.985  20.113  0.00  0.00    +0.000 A 
ATOM     14  C   UNL     1       1.888   7.958  19.164  0.00  0.00    +0.000 A 
ATOM     15  C   UNL     1       2.683   7.976  18.022  0.00  0.00    +0.000 A 
ATOM     16  F   UNL     1       2.453   8.934  17.123  0.00  0.00    +0.000 F 
ATOM     17  C   UNL     1       3.696   7.039  17.777  0.00  0.00    +0.000 A 
ENDBRANCH   2  11
BRANCH   1  18
ATOM     18  C   UNL     1       5.963   5.299  16.316  0.00  0.00    +0.000 C 
BRANCH  18  19
ATOM     19  C   UNL     1       6.013   4.846  14.870  0.00  0.00    +0.000 A 
ATOM     20  C   UNL     1       5.081   4.042  14.229  0.00  0.00    +0.000 A 
ATOM     21  C   UNL     1       5.345   3.541  12.947  0.00  0.00    +0.000 A 
ATOM     22  C   UNL     1       6.553   3.825  12.290  0.00  0.00    +0.000 A 
ATOM     23  C   UNL     1       7.489   4.634  12.905  0.00  0.00    +0.000 A 
ATOM     24  C   UNL     1       7.215   5.153  14.167  0.00  0.00    +0.000 A 
ENDBRANCH  18  19
BRANCH  18  25
ATOM     25  C   UNL     1       7.424   5.649  16.782  0.00  0.00    +0.000 C 
BRANCH  25  27
ATOM     26  O   UNL     1       7.045   7.980  16.956  0.00  0.00    +0.000 OA
ATOM     27  N   UNL     1       7.487   6.966  17.517  0.00  0.00    +0.000 N 
ATOM     28  O   UNL     1       8.067   6.959  18.610  0.00  0.00    +0.000 OA
ENDBRANCH  25  27
ENDBRANCH  18  25
ENDBRANCH   1  18
TORSDOF 5
ENDMDL
MODEL 3
REMARK VINA RESULT:      -8.8      0.863      1.363
REMARK  Name = 
REMARK  5 active torsions:
REMARK  status: ('A' for Active; 'I' for Inactive)
REMARK    1  A    between atoms: N_2  and  C_4
REMARK    2  A    between atoms: C_4  and  C_5
REMARK    3  A    between atoms: C_5  and  C_6
REMARK    4  A    between atoms: C_5  and  C_12
REMARK    5  A    between atoms: C_13  and  C_14
REMARK                            x       y       z     vdW  Elec       q    Type
REMARK                         _______ _______ _______ _____ _____    ______ ____
ROOT
ATOM      1  C   UNL     1       5.112   4.524  17.437  0.00  0.00    +0.000 A 
ATOM      2  C   UNL     1       4.894   5.164  18.677  0.00  0.00    +0.000 A 
ATOM      3  N   UNL     1       5.065   4.039  19.489  0.00  0.00    +0.000 N 
ATOM      4  C   UNL     1       4.100   3.178  18.978  0.00  0.00    +0.000 A 
ATOM      5  C   UNL     1       3.250   2.328  19.684  0.00  0.00    +0.000 A 
ATOM      6  C   UNL     1       1.989   2.171  19.127  0.00  0.00    +0.000 A 
ATOM      7  C   UNL     1       1.698   2.713  17.871  0.00  0.00    +0.000 A 
ATOM      8  C   UNL     1       2.691   3.341  17.066  0.00  0.00    +0.000 A 
ATOM      9  C   UNL     1       3.966   3.604  17.638  0.00  0.00    +0.000 A 
ATOM     10  H   UNL     1       5.986   3.657  19.658  0.00  0.00    +0.000 HD
ENDROOT
BRANCH   2  11
ATOM     11  C   UNL     1       3.821   6.219  18.829  0.00  0.00    +0.000 A 
ATOM     12  C   UNL     1       3.628   7.180  17.799  0.00  0.00    +0.000 A 
ATOM     13  C   UNL     1       2.624   8.139  17.832  0.00  0.00    +0.000 A 
ATOM     14  C   UNL     1       1.792   8.172  18.927  0.00  0.00    +0.000 A 
ATOM     15  C   UNL     1       1.973   7.239  19.944  0.00  0.00    +0.000 A 
ATOM     16  F   UNL     1       1.148   7.295  20.990  0.00  0.00    +0.000 F 
ATOM     17  C   UNL     1       2.978   6.262  19.919  0.00  0.00    +0.000 A 
ENDBRANCH   2  11
BRANCH   1  18
ATOM     18  C   UNL     1       5.836   5.415  16.417  0.00  0.00    +0.000 C 
BRANCH  18  19
ATOM     19  C   UNL     1       6.203   4.825  15.070  0.00  0.00    +0.000 A 
ATOM     20  C   UNL     1       7.325   5.137  14.315  0.00  0.00    +0.000 A 
ATOM     21  C   UNL     1       7.447   4.661  13.003  0.00  0.00    +0.000 A 
ATOM     22  C   UNL     1       6.440   3.878  12.417  0.00  0.00    +0.000 A 
ATOM     23  C   UNL     1       5.320   3.545  13.156  0.00  0.00    +0.000 A 
ATOM     24  C   UNL     1       5.213   3.995  14.468  0.00  0.00    +0.000 A 
ENDBRANCH  18  19
BRANCH  18  25
ATOM     25  C   UNL     1       7.127   6.047  17.056  0.00  0.00    +0.000 C 
BRANCH  25  27
ATOM     26  O   UNL     1       7.974   5.365  19.159  0.00  0.00    +0.000 OA
ATOM     27  N   UNL     1       7.848   5.077  17.960  0.00  0.00    +0.000 N 
ATOM     28  O   UNL     1       8.351   4.086  17.414  0.00  0.00    +0.000 OA
ENDBRANCH  25  27
ENDBRANCH  18  25
ENDBRANCH   1  18
TORSDOF 5
ENDMDL
MODEL 4
REMARK VINA RESULT:      -8.8      1.211      1.607
REMARK  Name = 
REMARK  5 active torsions:
REMARK  status: ('A' for Active; 'I' for Inactive)
REMARK    1  A    between atoms: N_2  and  C_4
REMARK    2  A    between atoms: C_4  and  C_5
REMARK    3  A    between atoms: C_5  and  C_6
REMARK    4  A    between atoms: C_5  and  C_12
REMARK    5  A    between atoms: C_13  and  C_14
REMARK                            x       y       z     vdW  Elec       q    Type
REMARK                         _______ _______ _______ _____ _____    ______ ____
ROOT
ATOM      1  C   UNL     1       5.046   4.613  17.468  0.00  0.00    +0.000 A 
ATOM      2  C   UNL     1       4.801   5.252  18.704  0.00  0.00    +0.000 A 
ATOM      3  N   UNL     1       5.037   4.146  19.525  0.00  0.00    +0.000 N 
ATOM      4  C   UNL     1       4.116   3.230  19.028  0.00  0.00    +0.000 A 
ATOM      5  C   UNL     1       3.316   2.343  19.747  0.00  0.00    +0.000 A 
ATOM      6  C   UNL     1       2.062   2.114  19.200  0.00  0.00    +0.000 A 
ATOM      7  C   UNL     1       1.735   2.628  17.941  0.00  0.00    +0.000 A 
ATOM      8  C   UNL     1       2.689   3.300  17.123  0.00  0.00    +0.000 A 
ATOM      9  C   UNL     1       3.951   3.635  17.686  0.00  0.00    +0.000 A 
ATOM     10  H   UNL     1       5.978   3.815  19.692  0.00  0.00    +0.000 HD
ENDROOT
BRANCH   2  11
ATOM     11  C   UNL     1       3.674   6.251  18.853  0.00  0.00    +0.000 A 
ATOM     12  C   UNL     1       2.857   6.220  20.016  0.00  0.00    +0.000 A 
ATOM     13  C   UNL     1       1.847   7.141  20.258  0.00  0.00    +0.000 A 
ATOM     14  C   UNL     1       1.614   8.115  19.315  0.00  0.00    +0.000 A 
ATOM     15  C   UNL     1       2.405   8.153  18.171  0.00  0.00    +0.000 A 
ATOM     16  F   UNL     1       2.156   9.111  17.278  0.00  0.00    +0.000 F 
ATOM     17  C   UNL     1       3.432   7.233  17.917  0.00  0.00    +0.000 A 
ENDBRANCH   2  11
BRANCH   1  18
ATOM     18  C   UNL     1       5.715   5.532  16.436  0.00  0.00    +0.000 C 
BRANCH  18  19
ATOM     19  C   UNL     1       5.923   5.010  15.028  0.00  0.00    +0.000 A 
ATOM     20  C   UNL     1       5.139   4.067  14.377  0.00  0.00    +0.000 A 
ATOM     21  C   UNL     1       5.551   3.534  13.149  0.00  0.00    +0.000 A 
ATOM     22  C   UNL     1       6.764   3.923  12.558  0.00  0.00    +0.000 A 
ATOM     23  C   UNL     1       7.553   4.870  13.182  0.00  0.00    +0.000 A 
ATOM     24  C   UNL     1       7.130   5.420  14.388  0.00  0.00    +0.000 A 
ENDBRANCH  18  19
BRANCH  18  25
ATOM     25  C   UNL     1       7.092   6.063  16.982  0.00  0.00    +0.000 C 
BRANCH  25  27
ATOM     26  O   UNL     1       7.939   5.285  19.051  0.00  0.00    +0.000 OA
ATOM     27  N   UNL     1       7.794   5.043  17.844  0.00  0.00    +0.000 N 
ATOM     28  O   UNL     1       8.265   4.059  17.258  0.00  0.00    +0.000 OA
ENDBRANCH  25  27
ENDBRANCH  18  25
ENDBRANCH   1  18
TORSDOF 5
ENDMDL
MODEL 5
REMARK VINA RESULT:      -8.7      1.199      1.816
REMARK  Name = 
REMARK  5 active torsions:
REMARK  status: ('A' for Active; 'I' for Inactive)
REMARK    1  A    between atoms: N_2  and  C_4
REMARK    2  A    between atoms: C_4  and  C_5
REMARK    3  A    between atoms: C_5  and  C_6
REMARK    4  A    between atoms: C_5  and  C_12
REMARK    5  A    between atoms: C_13  and  C_14
REMARK                            x       y       z     vdW  Elec       q    Type
REMARK                         _______ _______ _______ _____ _____    ______ ____
ROOT
ATOM      1  C   UNL     1       5.109   4.513  17.514  0.00  0.00    +0.000 A 
ATOM      2  C   UNL     1       4.843   5.144  18.749  0.00  0.00    +0.000 A 
ATOM      3  N   UNL     1       5.039   4.025  19.564  0.00  0.00    +0.000 N 
ATOM      4  C   UNL     1       4.116   3.130  19.034  0.00  0.00    +0.000 A 
ATOM      5  C   UNL     1       3.283   2.250  19.724  0.00  0.00    +0.000 A 
ATOM      6  C   UNL     1       2.040   2.048  19.142  0.00  0.00    +0.000 A 
ATOM      7  C   UNL     1       1.754   2.581  17.880  0.00  0.00    +0.000 A 
ATOM      8  C   UNL     1       2.739   3.244  17.095  0.00  0.00    +0.000 A 
ATOM      9  C   UNL     1       3.993   3.552  17.692  0.00  0.00    +0.000 A 
ATOM     10  H   UNL     1       5.970   3.677  19.752  0.00  0.00    +0.000 HD
ENDROOT
BRANCH   2  11
ATOM     11  C   UNL     1       3.731   6.160  18.880  0.00  0.00    +0.000 A 
ATOM     12  C   UNL     1       2.910   6.158  20.041  0.00  0.00    +0.000 A 
ATOM     13  C   UNL     1       1.911   7.096  20.267  0.00  0.00    +0.000 A 
ATOM     14  C   UNL     1       1.695   8.059  19.309  0.00  0.00    +0.000 A 
ATOM     15  C   UNL     1       2.490   8.069  18.167  0.00  0.00    +0.000 A 
ATOM     16  F   UNL     1       2.257   9.018  17.260  0.00  0.00    +0.000 F 
ATOM     17  C   UNL     1       3.504   7.132  17.930  0.00  0.00    +0.000 A 
ENDBRANCH   2  11
BRANCH   1  18
ATOM     18  C   UNL     1       5.820   5.431  16.508  0.00  0.00    +0.000 C 
BRANCH  18  19
ATOM     19  C   UNL     1       6.224   4.858  15.164  0.00  0.00    +0.000 A 
ATOM     20  C   UNL     1       7.358   5.193  14.437  0.00  0.00    +0.000 A 
ATOM     21  C   UNL     1       7.515   4.731  13.123  0.00  0.00    +0.000 A 
ATOM     22  C   UNL     1       6.532   3.939  12.509  0.00  0.00    +0.000 A 
ATOM     23  C   UNL     1       5.401   3.584  13.219  0.00  0.00    +0.000 A 
ATOM     24  C   UNL     1       5.259   4.020  14.533  0.00  0.00    +0.000 A 
ENDBRANCH  18  19
BRANCH  18  25
ATOM     25  C   UNL     1       7.082   6.099  17.169  0.00  0.00    +0.000 C 
BRANCH  25  27
ATOM     26  O   UNL     1       8.273   4.089  17.551  0.00  0.00    +0.000 OA
ATOM     27  N   UNL     1       7.839   5.136  18.052  0.00  0.00    +0.000 N 
ATOM     28  O   UNL     1       7.895   5.423  19.255  0.00  0.00    +0.000 OA
ENDBRANCH  25  27
ENDBRANCH  18  25
ENDBRANCH   1  18
TORSDOF 5
ENDMDL
MODEL 6
REMARK VINA RESULT:      -8.6      0.986      1.123
REMARK  Name = 
REMARK  5 active torsions:
REMARK  status: ('A' for Active; 'I' for Inactive)
REMARK    1  A    between atoms: N_2  and  C_4
REMARK    2  A    between atoms: C_4  and  C_5
REMARK    3  A    between atoms: C_5  and  C_6
REMARK    4  A    between atoms: C_5  and  C_12
REMARK    5  A    between atoms: C_13  and  C_14
REMARK                            x       y       z     vdW  Elec       q    Type
REMARK                         _______ _______ _______ _____ _____    ______ ____
ROOT
ATOM      1  C   UNL     1       4.845   4.334  18.192  0.00  0.00    +0.000 A 
ATOM      2  C   UNL     1       4.425   5.084  19.313  0.00  0.00    +0.000 A 
ATOM      3  N   UNL     1       4.216   4.005  20.178  0.00  0.00    +0.000 N 
ATOM      4  C   UNL     1       3.290   3.252  19.464  0.00  0.00    +0.000 A 
ATOM      5  C   UNL     1       2.171   2.579  19.956  0.00  0.00    +0.000 A 
ATOM      6  C   UNL     1       1.080   2.560  19.100  0.00  0.00    +0.000 A 
ATOM      7  C   UNL     1       1.197   3.048  17.794  0.00  0.00    +0.000 A 
ATOM      8  C   UNL     1       2.442   3.475  17.250  0.00  0.00    +0.000 A 
ATOM      9  C   UNL     1       3.559   3.598  18.122  0.00  0.00    +0.000 A 
ATOM     10  H   UNL     1       4.997   3.513  20.590  0.00  0.00    +0.000 HD
ENDROOT
BRANCH   2  11
ATOM     11  C   UNL     1       3.520   6.285  19.150  0.00  0.00    +0.000 A 
ATOM     12  C   UNL     1       3.550   7.030  17.939  0.00  0.00    +0.000 A 
ATOM     13  C   UNL     1       2.708   8.104  17.687  0.00  0.00    +0.000 A 
ATOM     14  C   UNL     1       1.817   8.476  18.667  0.00  0.00    +0.000 A 
ATOM     15  C   UNL     1       1.781   7.758  19.858  0.00  0.00    +0.000 A 
ATOM     16  F   UNL     1       0.904   8.142  20.786  0.00  0.00    +0.000 F 
ATOM     17  C   UNL     1       2.621   6.668  20.123  0.00  0.00    +0.000 A 
ENDBRANCH   2  11
BRANCH   1  18
ATOM     18  C   UNL     1       5.927   5.044  17.364  0.00  0.00    +0.000 C 
BRANCH  18  19
ATOM     19  C   UNL     1       5.973   4.797  15.869  0.00  0.00    +0.000 A 
ATOM     20  C   UNL     1       5.045   4.081  15.125  0.00  0.00    +0.000 A 
ATOM     21  C   UNL     1       5.307   3.767  13.785  0.00  0.00    +0.000 A 
ATOM     22  C   UNL     1       6.509   4.150  13.170  0.00  0.00    +0.000 A 
ATOM     23  C   UNL     1       7.441   4.875  13.888  0.00  0.00    +0.000 A 
ATOM     24  C   UNL     1       7.169   5.210  15.211  0.00  0.00    +0.000 A 
ENDBRANCH  18  19
BRANCH  18  25
ATOM     25  C   UNL     1       7.353   4.762  17.963  0.00  0.00    +0.000 C 
BRANCH  25  27
ATOM     26  O   UNL     1       8.112   6.902  18.632  0.00  0.00    +0.000 OA
ATOM     27  N   UNL     1       7.744   5.780  19.007  0.00  0.00    +0.000 N 
ATOM     28  O   UNL     1       7.755   5.387  20.181  0.00  0.00    +0.000 OA
ENDBRANCH  25  27
ENDBRANCH  18  25
ENDBRANCH   1  18
TORSDOF 5
ENDMDL
MODEL 7
REMARK VINA RESULT:      -8.6      0.886      1.679
REMARK  Name = 
REMARK  5 active torsions:
REMARK  status: ('A' for Active; 'I' for Inactive)
REMARK    1  A    between atoms: N_2  and  C_4
REMARK    2  A    between atoms: C_4  and  C_5
REMARK    3  A    between atoms: C_5  and  C_6
REMARK    4  A    between atoms: C_5  and  C_12
REMARK    5  A    between atoms: C_13  and  C_14
REMARK                            x       y       z     vdW  Elec       q    Type
REMARK                         _______ _______ _______ _____ _____    ______ ____
ROOT
ATOM      1  C   UNL     1       5.272   4.325  17.591  0.00  0.00    +0.000 A 
ATOM      2  C   UNL     1       4.952   4.966  18.809  0.00  0.00    +0.000 A 
ATOM      3  N   UNL     1       5.069   3.844  19.634  0.00  0.00    +0.000 N 
ATOM      4  C   UNL     1       4.155   2.973  19.051  0.00  0.00    +0.000 A 
ATOM      5  C   UNL     1       3.259   2.117  19.691  0.00  0.00    +0.000 A 
ATOM      6  C   UNL     1       2.047   1.947  19.037  0.00  0.00    +0.000 A 
ATOM      7  C   UNL     1       1.851   2.485  17.760  0.00  0.00    +0.000 A 
ATOM      8  C   UNL     1       2.898   3.120  17.034  0.00  0.00    +0.000 A 
ATOM      9  C   UNL     1       4.122   3.395  17.704  0.00  0.00    +0.000 A 
ATOM     10  H   UNL     1       5.977   3.471  19.877  0.00  0.00    +0.000 HD
ENDROOT
BRANCH   2  11
ATOM     11  C   UNL     1       3.861   6.012  18.874  0.00  0.00    +0.000 A 
ATOM     12  C   UNL     1       3.014   6.075  20.014  0.00  0.00    +0.000 A 
ATOM     13  C   UNL     1       2.034   7.044  20.179  0.00  0.00    +0.000 A 
ATOM     14  C   UNL     1       1.862   7.973  19.179  0.00  0.00    +0.000 A 
ATOM     15  C   UNL     1       2.682   7.919  18.056  0.00  0.00    +0.000 A 
ATOM     16  F   UNL     1       2.493   8.836  17.106  0.00  0.00    +0.000 F 
ATOM     17  C   UNL     1       3.679   6.950  17.880  0.00  0.00    +0.000 A 
ENDBRANCH   2  11
BRANCH   1  18
ATOM     18  C   UNL     1       6.066   5.222  16.630  0.00  0.00    +0.000 C 
BRANCH  18  19
ATOM     19  C   UNL     1       6.329   4.722  15.223  0.00  0.00    +0.000 A 
ATOM     20  C   UNL     1       7.424   5.038  14.430  0.00  0.00    +0.000 A 
ATOM     21  C   UNL     1       7.449   4.661  13.081  0.00  0.00    +0.000 A 
ATOM     22  C   UNL     1       6.373   3.973  12.497  0.00  0.00    +0.000 A 
ATOM     23  C   UNL     1       5.279   3.637  13.272  0.00  0.00    +0.000 A 
ATOM     24  C   UNL     1       5.266   3.988  14.619  0.00  0.00    +0.000 A 
ENDBRANCH  18  19
BRANCH  18  25
ATOM     25  C   UNL     1       7.437   5.645  17.275  0.00  0.00    +0.000 C 
BRANCH  25  27
ATOM     26  O   UNL     1       8.216   7.547  18.451  0.00  0.00    +0.000 OA
ATOM     27  N   UNL     1       7.519   7.133  17.513  0.00  0.00    +0.000 N 
ATOM     28  O   UNL     1       6.800   7.844  16.798  0.00  0.00    +0.000 OA
ENDBRANCH  25  27
ENDBRANCH  18  25
ENDBRANCH   1  18
TORSDOF 5
ENDMDL
MODEL 8
REMARK VINA RESULT:      -8.5      1.508      1.690
REMARK  Name = 
REMARK  5 active torsions:
REMARK  status: ('A' for Active; 'I' for Inactive)
REMARK    1  A    between atoms: N_2  and  C_4
REMARK    2  A    between atoms: C_4  and  C_5
REMARK    3  A    between atoms: C_5  and  C_6
REMARK    4  A    between atoms: C_5  and  C_12
REMARK    5  A    between atoms: C_13  and  C_14
REMARK                            x       y       z     vdW  Elec       q    Type
REMARK                         _______ _______ _______ _____ _____    ______ ____
ROOT
ATOM      1  C   UNL     1       4.436   5.249  18.129  0.00  0.00    +0.000 A 
ATOM      2  C   UNL     1       4.063   6.041  19.238  0.00  0.00    +0.000 A 
ATOM      3  N   UNL     1       4.061   5.019  20.191  0.00  0.00    +0.000 N 
ATOM      4  C   UNL     1       3.146   4.127  19.641  0.00  0.00    +0.000 A 
ATOM      5  C   UNL     1       2.163   3.392  20.302  0.00  0.00    +0.000 A 
ATOM      6  C   UNL     1       0.994   3.201  19.580  0.00  0.00    +0.000 A 
ATOM      7  C   UNL     1       0.919   3.594  18.239  0.00  0.00    +0.000 A 
ATOM      8  C   UNL     1       2.048   4.093  17.529  0.00  0.00    +0.000 A 
ATOM      9  C   UNL     1       3.233   4.390  18.257  0.00  0.00    +0.000 A 
ATOM     10  H   UNL     1       4.929   4.637  20.544  0.00  0.00    +0.000 HD
ENDROOT
BRANCH   2  11
ATOM     11  C   UNL     1       3.027   7.135  19.099  0.00  0.00    +0.000 A 
ATOM     12  C   UNL     1       2.925   7.856  17.878  0.00  0.00    +0.000 A 
ATOM     13  C   UNL     1       1.961   8.828  17.648  0.00  0.00    +0.000 A 
ATOM     14  C   UNL     1       1.077   9.119  18.661  0.00  0.00    +0.000 A 
ATOM     15  C   UNL     1       1.169   8.423  19.863  0.00  0.00    +0.000 A 
ATOM     16  F   UNL     1       0.296   8.727  20.823  0.00  0.00    +0.000 F 
ATOM     17  C   UNL     1       2.134   7.436  20.105  0.00  0.00    +0.000 A 
ENDBRANCH   2  11
BRANCH   1  18
ATOM     18  C   UNL     1       5.344   5.991  17.136  0.00  0.00    +0.000 C 
BRANCH  18  19
ATOM     19  C   UNL     1       5.634   5.344  15.797  0.00  0.00    +0.000 A 
ATOM     20  C   UNL     1       4.907   4.320  15.204  0.00  0.00    +0.000 A 
ATOM     21  C   UNL     1       5.394   3.685  14.054  0.00  0.00    +0.000 A 
ATOM     22  C   UNL     1       6.624   4.051  13.486  0.00  0.00    +0.000 A 
ATOM     23  C   UNL     1       7.358   5.076  14.052  0.00  0.00    +0.000 A 
ATOM     24  C   UNL     1       6.861   5.726  15.178  0.00  0.00    +0.000 A 
ENDBRANCH  18  19
BRANCH  18  25
ATOM     25  C   UNL     1       6.710   6.370  17.817  0.00  0.00    +0.000 C 
BRANCH  25  27
ATOM     26  O   UNL     1       7.191   5.355  19.901  0.00  0.00    +0.000 OA
ATOM     27  N   UNL     1       7.254   5.248  18.668  0.00  0.00    +0.000 N 
ATOM     28  O   UNL     1       7.815   4.324  18.065  0.00  0.00    +0.000 OA
ENDBRANCH  25  27
ENDBRANCH  18  25
ENDBRANCH   1  18
TORSDOF 5
ENDMDL
MODEL 9
REMARK VINA RESULT:      -8.4      1.679      2.062
REMARK  Name = 
REMARK  5 active torsions:
REMARK  status: ('A' for Active; 'I' for Inactive)
REMARK    1  A    between atoms: N_2  and  C_4
REMARK    2  A    between atoms: C_4  and  C_5
REMARK    3  A    between atoms: C_5  and  C_6
REMARK    4  A    between atoms: C_5  and  C_12
REMARK    5  A    between atoms: C_13  and  C_14
REMARK                            x       y       z     vdW  Elec       q    Type
REMARK                         _______ _______ _______ _____ _____    ______ ____
ROOT
ATOM      1  C   UNL     1       4.389   5.138  18.166  0.00  0.00    +0.000 A 
ATOM      2  C   UNL     1       4.040   5.869  19.323  0.00  0.00    +0.000 A 
ATOM      3  N   UNL     1       4.075   4.801  20.224  0.00  0.00    +0.000 N 
ATOM      4  C   UNL     1       3.154   3.928  19.655  0.00  0.00    +0.000 A 
ATOM      5  C   UNL     1       2.197   3.149  20.305  0.00  0.00    +0.000 A 
ATOM      6  C   UNL     1       1.010   2.982  19.606  0.00  0.00    +0.000 A 
ATOM      7  C   UNL     1       0.893   3.441  18.289  0.00  0.00    +0.000 A 
ATOM      8  C   UNL     1       1.997   3.988  17.575  0.00  0.00    +0.000 A 
ATOM      9  C   UNL     1       3.199   4.261  18.284  0.00  0.00    +0.000 A 
ATOM     10  H   UNL     1       4.956   4.411  20.533  0.00  0.00    +0.000 HD
ENDROOT
BRANCH   2  11
ATOM     11  C   UNL     1       2.990   6.957  19.269  0.00  0.00    +0.000 A 
ATOM     12  C   UNL     1       2.139   7.170  20.387  0.00  0.00    +0.000 A 
ATOM     13  C   UNL     1       1.196   8.187  20.441  0.00  0.00    +0.000 A 
ATOM     14  C   UNL     1       1.067   9.013  19.349  0.00  0.00    +0.000 A 
ATOM     15  C   UNL     1       1.892   8.813  18.247  0.00  0.00    +0.000 A 
ATOM     16  F   UNL     1       1.745   9.633  17.206  0.00  0.00    +0.000 F 
ATOM     17  C   UNL     1       2.852   7.794  18.182  0.00  0.00    +0.000 A 
ENDBRANCH   2  11
BRANCH   1  18
ATOM     18  C   UNL     1       5.262   5.939  17.188  0.00  0.00    +0.000 C 
BRANCH  18  19
ATOM     19  C   UNL     1       5.578   5.332  15.835  0.00  0.00    +0.000 A 
ATOM     20  C   UNL     1       4.854   4.339  15.191  0.00  0.00    +0.000 A 
ATOM     21  C   UNL     1       5.361   3.735  14.033  0.00  0.00    +0.000 A 
ATOM     22  C   UNL     1       6.611   4.102  13.509  0.00  0.00    +0.000 A 
ATOM     23  C   UNL     1       7.343   5.098  14.128  0.00  0.00    +0.000 A 
ATOM     24  C   UNL     1       6.826   5.717  15.261  0.00  0.00    +0.000 A 
ENDBRANCH  18  19
BRANCH  18  25
ATOM     25  C   UNL     1       6.611   6.366  17.874  0.00  0.00    +0.000 C 
BRANCH  25  27
ATOM     26  O   UNL     1       7.168   5.371  19.949  0.00  0.00    +0.000 OA
ATOM     27  N   UNL     1       7.197   5.257  18.715  0.00  0.00    +0.000 N 
ATOM     28  O   UNL     1       7.757   4.339  18.101  0.00  0.00    +0.000 OA
ENDBRANCH  25  27
ENDBRANCH  18  25
ENDBRANCH   1  18
TORSDOF 5
ENDMDL
