MODEL 1
REMARK VINA RESULT:      -7.4      0.000      0.000
REMARK  Name = 
REMARK  13 active torsions:
REMARK  status: ('A' for Active; 'I' for Inactive)
REMARK    1  A    between atoms: C_1  and  C_2
REMARK    2  A    between atoms: C_4  and  C_5
REMARK    3  A    between atoms: C_5  and  C_6
REMARK    4  A    between atoms: C_6  and  C_7
REMARK    5  A    between atoms: C_10  and  C_11
REMARK    6  A    between atoms: C_12  and  O_13
REMARK    7  A    between atoms: O_13  and  C_14
REMARK    8  A    between atoms: C_16  and  N_17
REMARK    9  A    between atoms: N_17  and  C_18
REMARK   10  A    between atoms: C_21  and  C_22
REMARK   11  A    between atoms: C_26  and  N_27
REMARK   12  A    between atoms: C_29  and  C_30
REMARK   13  A    between atoms: C_30  and  O_32
REMARK                            x       y       z     vdW  Elec       q    Type
REMARK                         _______ _______ _______ _____ _____    ______ ____
ROOT
ATOM      1  C   UNL     1       4.570   4.550  18.798  0.00  0.00    +0.000 A 
ATOM      2  C   UNL     1       4.042   5.634  19.516  0.00  0.00    +0.000 A 
ATOM      3  C   UNL     1       2.732   5.620  20.001  0.00  0.00    +0.000 A 
ATOM      4  C   UNL     1       1.935   4.478  19.780  0.00  0.00    +0.000 A 
ATOM      5  C   UNL     1       2.446   3.431  19.007  0.00  0.00    +0.000 A 
ATOM      6  C   UNL     1       3.729   3.494  18.436  0.00  0.00    +0.000 A 
ENDROOT
BRANCH   4   7
ATOM      7  N   UNL     1       0.744   4.292  20.505  0.00  0.00    +0.000 N 
ATOM      8  H   UNL     1       0.901   4.348  21.509  0.00  0.00    +0.000 HD
ATOM      9  H   UNL     1      -0.025   4.881  20.198  0.00  0.00    +0.000 HD
ENDBRANCH   4   7
BRANCH   3  10
ATOM     10  N   UNL     1       2.211   6.696  20.778  0.00  0.00    +0.000 N 
ATOM     11  H   UNL     1       2.799   6.836  21.598  0.00  0.00    +0.000 HD
BRANCH  10  12
ATOM     12  C   UNL     1       1.627   7.880  20.277  0.00  0.00    +0.000 A 
ATOM     13  C   UNL     1       1.885   8.308  18.966  0.00  0.00    +0.000 A 
ATOM     14  C   UNL     1       1.356   9.506  18.475  0.00  0.00    +0.000 A 
ATOM     15  C   UNL     1       0.531  10.286  19.285  0.00  0.00    +0.000 A 
ATOM     16  C   UNL     1       0.215   9.845  20.574  0.00  0.00    +0.000 A 
ATOM     17  C   UNL     1       0.753   8.643  21.063  0.00  0.00    +0.000 A 
BRANCH  15  18
ATOM     18  C   UNL     1       0.017  11.531  18.794  0.00  0.00    +0.000 C 
ATOM     19  N   UNL     1      -0.385  12.550  18.406  0.00  0.00    +0.000 NA
ENDBRANCH  15  18
ENDBRANCH  10  12
ENDBRANCH   3  10
BRANCH   6  20
ATOM     20  C   UNL     1       4.126   2.328  17.601  0.00  0.00    +0.000 C 
ATOM     21  O   UNL     1       3.645   1.219  17.761  0.00  0.00    +0.000 OA
BRANCH  20  22
ATOM     22  O   UNL     1       4.979   2.618  16.598  0.00  0.00    +0.000 OA
ATOM     23  H   UNL     1       5.620   3.322  16.805  0.00  0.00    +0.000 HD
ENDBRANCH  20  22
ENDBRANCH   6  20
BRANCH   1  24
ATOM     24  O   UNL     1       5.908   4.679  18.540  0.00  0.00    +0.000 OA
BRANCH  24  32
ATOM     25  C   UNL     1       5.026   6.551  16.146  0.00  0.00    +0.000 C 
ATOM     26  C   UNL     1       6.103   6.770  17.179  0.00  0.00    +0.000 A 
ATOM     27  C   UNL     1       6.811   7.979  17.051  0.00  0.00    +0.000 A 
ATOM     28  C   UNL     1       7.901   8.296  17.867  0.00  0.00    +0.000 A 
ATOM     29  C   UNL     1       8.301   7.393  18.848  0.00  0.00    +0.000 A 
ATOM     30  C   UNL     1       7.615   6.186  19.023  0.00  0.00    +0.000 A 
ATOM     31  C   UNL     1       8.075   5.246  20.111  0.00  0.00    +0.000 C 
ATOM     32  C   UNL     1       6.494   5.882  18.205  0.00  0.00    +0.000 A 
BRANCH  28  33
ATOM     33  C   UNL     1       8.601   9.617  17.698  0.00  0.00    +0.000 C 
BRANCH  33  34
ATOM     34  C   UNL     1       9.169  10.103  19.024  0.00  0.00    +0.000 C 
BRANCH  34  35
ATOM     35  C   UNL     1       9.325  11.615  18.996  0.00  0.00    +0.000 C 
ATOM     36  N   UNL     1       9.453  12.869  18.973  0.00  0.00    +0.000 NA
ENDBRANCH  34  35
ENDBRANCH  33  34
ENDBRANCH  28  33
ENDBRANCH  24  32
ENDBRANCH   1  24
TORSDOF 11
ENDMDL
MODEL 2
REMARK VINA RESULT:      -7.1      3.036      4.850
REMARK  Name = 
REMARK  13 active torsions:
REMARK  status: ('A' for Active; 'I' for Inactive)
REMARK    1  A    between atoms: C_1  and  C_2
REMARK    2  A    between atoms: C_4  and  C_5
REMARK    3  A    between atoms: C_5  and  C_6
REMARK    4  A    between atoms: C_6  and  C_7
REMARK    5  A    between atoms: C_10  and  C_11
REMARK    6  A    between atoms: C_12  and  O_13
REMARK    7  A    between atoms: O_13  and  C_14
REMARK    8  A    between atoms: C_16  and  N_17
REMARK    9  A    between atoms: N_17  and  C_18
REMARK   10  A    between atoms: C_21  and  C_22
REMARK   11  A    between atoms: C_26  and  N_27
REMARK   12  A    between atoms: C_29  and  C_30
REMARK   13  A    between atoms: C_30  and  O_32
REMARK                            x       y       z     vdW  Elec       q    Type
REMARK                         _______ _______ _______ _____ _____    ______ ____
ROOT
ATOM      1  C   UNL     1       3.611   5.313  19.657  0.00  0.00    +0.000 A 
ATOM      2  C   UNL     1       3.439   6.595  19.114  0.00  0.00    +0.000 A 
ATOM      3  C   UNL     1       2.387   7.422  19.515  0.00  0.00    +0.000 A 
ATOM      4  C   UNL     1       1.496   6.962  20.506  0.00  0.00    +0.000 A 
ATOM      5  C   UNL     1       1.635   5.658  20.993  0.00  0.00    +0.000 A 
ATOM      6  C   UNL     1       2.634   4.794  20.511  0.00  0.00    +0.000 A 
ENDROOT
BRANCH   4   7
ATOM      7  N   UNL     1       0.630   7.859  21.156  0.00  0.00    +0.000 N 
ATOM      8  H   UNL     1       1.118   8.698  21.465  0.00  0.00    +0.000 HD
ATOM      9  H   UNL     1      -0.215   8.072  20.634  0.00  0.00    +0.000 HD
ENDBRANCH   4   7
BRANCH   3  10
ATOM     10  N   UNL     1       2.243   8.747  19.007  0.00  0.00    +0.000 N 
ATOM     11  H   UNL     1       2.948   8.914  18.292  0.00  0.00    +0.000 HD
BRANCH  10  12
ATOM     12  C   UNL     1       1.024   9.426  18.786  0.00  0.00    +0.000 A 
ATOM     13  C   UNL     1       0.622  10.471  19.630  0.00  0.00    +0.000 A 
ATOM     14  C   UNL     1      -0.607  11.116  19.455  0.00  0.00    +0.000 A 
ATOM     15  C   UNL     1      -1.446  10.740  18.406  0.00  0.00    +0.000 A 
ATOM     16  C   UNL     1      -1.034   9.741  17.518  0.00  0.00    +0.000 A 
ATOM     17  C   UNL     1       0.199   9.095  17.702  0.00  0.00    +0.000 A 
BRANCH  15  18
ATOM     18  C   UNL     1      -2.721  11.377  18.247  0.00  0.00    +0.000 C 
ATOM     19  N   UNL     1      -3.748  11.907  18.132  0.00  0.00    +0.000 NA
ENDBRANCH  15  18
ENDBRANCH  10  12
ENDBRANCH   3  10
BRANCH   6  20
ATOM     20  C   UNL     1       2.638   3.422  21.086  0.00  0.00    +0.000 C 
ATOM     21  O   UNL     1       2.058   3.149  22.124  0.00  0.00    +0.000 OA
BRANCH  20  22
ATOM     22  O   UNL     1       3.244   2.492  20.322  0.00  0.00    +0.000 OA
ATOM     23  H   UNL     1       4.008   2.059  20.745  0.00  0.00    +0.000 HD
ENDBRANCH  20  22
ENDBRANCH   6  20
BRANCH   1  24
ATOM     24  O   UNL     1       4.776   4.714  19.259  0.00  0.00    +0.000 OA
BRANCH  24  32
ATOM     25  C   UNL     1       2.893   3.342  17.118  0.00  0.00    +0.000 C 
ATOM     26  C   UNL     1       4.267   3.936  16.936  0.00  0.00    +0.000 A 
ATOM     27  C   UNL     1       4.777   3.864  15.626  0.00  0.00    +0.000 A 
ATOM     28  C   UNL     1       6.071   4.282  15.304  0.00  0.00    +0.000 A 
ATOM     29  C   UNL     1       6.889   4.796  16.306  0.00  0.00    +0.000 A 
ATOM     30  C   UNL     1       6.418   4.904  17.620  0.00  0.00    +0.000 A 
ATOM     31  C   UNL     1       7.334   5.484  18.669  0.00  0.00    +0.000 C 
ATOM     32  C   UNL     1       5.093   4.498  17.934  0.00  0.00    +0.000 A 
BRANCH  28  33
ATOM     33  C   UNL     1       6.548   4.203  13.879  0.00  0.00    +0.000 C 
BRANCH  33  34
ATOM     34  C   UNL     1       5.383   3.961  12.929  0.00  0.00    +0.000 C 
BRANCH  34  35
ATOM     35  C   UNL     1       5.671   2.750  12.058  0.00  0.00    +0.000 C 
ATOM     36  N   UNL     1       5.911   1.746  11.334  0.00  0.00    +0.000 NA
ENDBRANCH  34  35
ENDBRANCH  33  34
ENDBRANCH  28  33
ENDBRANCH  24  32
ENDBRANCH   1  24
TORSDOF 11
ENDMDL
MODEL 3
REMARK VINA RESULT:      -6.8      0.569      1.051
REMARK  Name = 
REMARK  13 active torsions:
REMARK  status: ('A' for Active; 'I' for Inactive)
REMARK    1  A    between atoms: C_1  and  C_2
REMARK    2  A    between atoms: C_4  and  C_5
REMARK    3  A    between atoms: C_5  and  C_6
REMARK    4  A    between atoms: C_6  and  C_7
REMARK    5  A    between atoms: C_10  and  C_11
REMARK    6  A    between atoms: C_12  and  O_13
REMARK    7  A    between atoms: O_13  and  C_14
REMARK    8  A    between atoms: C_16  and  N_17
REMARK    9  A    between atoms: N_17  and  C_18
REMARK   10  A    between atoms: C_21  and  C_22
REMARK   11  A    between atoms: C_26  and  N_27
REMARK   12  A    between atoms: C_29  and  C_30
REMARK   13  A    between atoms: C_30  and  O_32
REMARK                            x       y       z     vdW  Elec       q    Type
REMARK                         _______ _______ _______ _____ _____    ______ ____
ROOT
ATOM      1  C   UNL     1       4.611   4.716  18.712  0.00  0.00    +0.000 A 
ATOM      2  C   UNL     1       4.125   5.855  19.373  0.00  0.00    +0.000 A 
ATOM      3  C   UNL     1       2.823   5.907  19.875  0.00  0.00    +0.000 A 
ATOM      4  C   UNL     1       1.990   4.779  19.732  0.00  0.00    +0.000 A 
ATOM      5  C   UNL     1       2.459   3.674  19.014  0.00  0.00    +0.000 A 
ATOM      6  C   UNL     1       3.735   3.666  18.423  0.00  0.00    +0.000 A 
ENDROOT
BRANCH   4   7
ATOM      7  N   UNL     1       0.805   4.670  20.483  0.00  0.00    +0.000 N 
ATOM      8  H   UNL     1       0.827   5.262  21.310  0.00  0.00    +0.000 HD
ATOM      9  H   UNL     1      -0.043   4.795  19.938  0.00  0.00    +0.000 HD
ENDBRANCH   4   7
BRANCH   3  10
ATOM     10  N   UNL     1       2.345   7.041  20.596  0.00  0.00    +0.000 N 
ATOM     11  H   UNL     1       3.038   7.319  21.288  0.00  0.00    +0.000 HD
BRANCH  10  12
ATOM     12  C   UNL     1       1.600   8.116  20.060  0.00  0.00    +0.000 A 
ATOM     13  C   UNL     1       0.669   8.807  20.850  0.00  0.00    +0.000 A 
ATOM     14  C   UNL     1      -0.114   9.836  20.318  0.00  0.00    +0.000 A 
ATOM     15  C   UNL     1       0.045  10.212  18.984  0.00  0.00    +0.000 A 
ATOM     16  C   UNL     1       1.010   9.574  18.198  0.00  0.00    +0.000 A 
ATOM     17  C   UNL     1       1.790   8.538  18.738  0.00  0.00    +0.000 A 
BRANCH  15  18
ATOM     18  C   UNL     1      -0.782  11.244  18.429  0.00  0.00    +0.000 C 
ATOM     19  N   UNL     1      -1.441  12.079  17.962  0.00  0.00    +0.000 NA
ENDBRANCH  15  18
ENDBRANCH  10  12
ENDBRANCH   3  10
BRANCH   6  20
ATOM     20  C   UNL     1       4.086   2.443  17.653  0.00  0.00    +0.000 C 
ATOM     21  O   UNL     1       3.553   1.366  17.863  0.00  0.00    +0.000 OA
BRANCH  20  22
ATOM     22  O   UNL     1       4.959   2.643  16.646  0.00  0.00    +0.000 OA
ATOM     23  H   UNL     1       5.566   3.393  16.781  0.00  0.00    +0.000 HD
ENDBRANCH  20  22
ENDBRANCH   6  20
BRANCH   1  24
ATOM     24  O   UNL     1       5.948   4.791  18.428  0.00  0.00    +0.000 OA
BRANCH  24  32
ATOM     25  C   UNL     1       5.235   6.815  16.103  0.00  0.00    +0.000 C 
ATOM     26  C   UNL     1       6.280   6.935  17.184  0.00  0.00    +0.000 A 
ATOM     27  C   UNL     1       7.042   8.118  17.143  0.00  0.00    +0.000 A 
ATOM     28  C   UNL     1       8.113   8.347  18.012  0.00  0.00    +0.000 A 
ATOM     29  C   UNL     1       8.438   7.380  18.959  0.00  0.00    +0.000 A 
ATOM     30  C   UNL     1       7.696   6.196  19.048  0.00  0.00    +0.000 A 
ATOM     31  C   UNL     1       8.075   5.185  20.103  0.00  0.00    +0.000 C 
ATOM     32  C   UNL     1       6.596   5.982  18.176  0.00  0.00    +0.000 A 
BRANCH  28  33
ATOM     33  C   UNL     1       8.873   9.643  17.936  0.00  0.00    +0.000 C 
BRANCH  33  34
ATOM     34  C   UNL     1       7.923  10.819  17.756  0.00  0.00    +0.000 C 
BRANCH  34  35
ATOM     35  C   UNL     1       8.706  12.121  17.765  0.00  0.00    +0.000 C 
ATOM     36  N   UNL     1       9.356  13.202  17.771  0.00  0.00    +0.000 NA
ENDBRANCH  34  35
ENDBRANCH  33  34
ENDBRANCH  28  33
ENDBRANCH  24  32
ENDBRANCH   1  24
TORSDOF 11
ENDMDL
MODEL 4
REMARK VINA RESULT:      -6.8      0.531      1.847
REMARK  Name = 
REMARK  13 active torsions:
REMARK  status: ('A' for Active; 'I' for Inactive)
REMARK    1  A    between atoms: C_1  and  C_2
REMARK    2  A    between atoms: C_4  and  C_5
REMARK    3  A    between atoms: C_5  and  C_6
REMARK    4  A    between atoms: C_6  and  C_7
REMARK    5  A    between atoms: C_10  and  C_11
REMARK    6  A    between atoms: C_12  and  O_13
REMARK    7  A    between atoms: O_13  and  C_14
REMARK    8  A    between atoms: C_16  and  N_17
REMARK    9  A    between atoms: N_17  and  C_18
REMARK   10  A    between atoms: C_21  and  C_22
REMARK   11  A    between atoms: C_26  and  N_27
REMARK   12  A    between atoms: C_29  and  C_30
REMARK   13  A    between atoms: C_30  and  O_32
REMARK                            x       y       z     vdW  Elec       q    Type
REMARK                         _______ _______ _______ _____ _____    ______ ____
ROOT
ATOM      1  C   UNL     1       4.598   4.656  18.401  0.00  0.00    +0.000 A 
ATOM      2  C   UNL     1       4.138   5.817  19.041  0.00  0.00    +0.000 A 
ATOM      3  C   UNL     1       2.961   5.818  19.793  0.00  0.00    +0.000 A 
ATOM      4  C   UNL     1       2.235   4.617  19.927  0.00  0.00    +0.000 A 
ATOM      5  C   UNL     1       2.665   3.482  19.231  0.00  0.00    +0.000 A 
ATOM      6  C   UNL     1       3.794   3.513  18.395  0.00  0.00    +0.000 A 
ENDROOT
BRANCH   4   7
ATOM      7  N   UNL     1       1.238   4.495  20.911  0.00  0.00    +0.000 N 
ATOM      8  H   UNL     1       0.453   5.117  20.732  0.00  0.00    +0.000 HD
ATOM      9  H   UNL     1       0.944   3.538  21.086  0.00  0.00    +0.000 HD
ENDBRANCH   4   7
BRANCH   3  10
ATOM     10  N   UNL     1       2.521   6.982  20.490  0.00  0.00    +0.000 N 
ATOM     11  H   UNL     1       3.250   7.288  21.132  0.00  0.00    +0.000 HD
BRANCH  10  12
ATOM     12  C   UNL     1       1.746   8.033  19.951  0.00  0.00    +0.000 A 
ATOM     13  C   UNL     1       0.825   8.727  20.749  0.00  0.00    +0.000 A 
ATOM     14  C   UNL     1       0.013   9.733  20.215  0.00  0.00    +0.000 A 
ATOM     15  C   UNL     1       0.133  10.082  18.870  0.00  0.00    +0.000 A 
ATOM     16  C   UNL     1       1.089   9.443  18.074  0.00  0.00    +0.000 A 
ATOM     17  C   UNL     1       1.898   8.430  18.616  0.00  0.00    +0.000 A 
BRANCH  15  18
ATOM     18  C   UNL     1      -0.722  11.090  18.314  0.00  0.00    +0.000 C 
ATOM     19  N   UNL     1      -1.411  11.918  17.879  0.00  0.00    +0.000 NA
ENDBRANCH  15  18
ENDBRANCH  10  12
ENDBRANCH   3  10
BRANCH   6  20
ATOM     20  C   UNL     1       4.109   2.245  17.683  0.00  0.00    +0.000 C 
ATOM     21  O   UNL     1       3.661   1.168  18.041  0.00  0.00    +0.000 OA
BRANCH  20  22
ATOM     22  O   UNL     1       4.842   2.396  16.562  0.00  0.00    +0.000 OA
ATOM     23  H   UNL     1       4.837   3.299  16.195  0.00  0.00    +0.000 HD
ENDBRANCH  20  22
ENDBRANCH   6  20
BRANCH   1  24
ATOM     24  O   UNL     1       5.839   4.807  17.843  0.00  0.00    +0.000 OA
BRANCH  24  32
ATOM     25  C   UNL     1       8.042   5.306  20.059  0.00  0.00    +0.000 C 
ATOM     26  C   UNL     1       7.613   6.202  18.924  0.00  0.00    +0.000 A 
ATOM     27  C   UNL     1       8.293   7.432  18.849  0.00  0.00    +0.000 A 
ATOM     28  C   UNL     1       7.955   8.416  17.916  0.00  0.00    +0.000 A 
ATOM     29  C   UNL     1       6.915   8.177  17.021  0.00  0.00    +0.000 A 
ATOM     30  C   UNL     1       6.223   6.960  17.047  0.00  0.00    +0.000 A 
ATOM     31  C   UNL     1       5.116   6.739  16.046  0.00  0.00    +0.000 C 
ATOM     32  C   UNL     1       6.589   5.957  17.984  0.00  0.00    +0.000 A 
BRANCH  28  33
ATOM     33  C   UNL     1       8.737   9.700  17.868  0.00  0.00    +0.000 C 
BRANCH  33  34
ATOM     34  C   UNL     1       9.279  10.057  19.246  0.00  0.00    +0.000 C 
BRANCH  34  35
ATOM     35  C   UNL     1      10.080  11.345  19.168  0.00  0.00    +0.000 C 
ATOM     36  N   UNL     1      10.745  12.415  19.103  0.00  0.00    +0.000 NA
ENDBRANCH  34  35
ENDBRANCH  33  34
ENDBRANCH  28  33
ENDBRANCH  24  32
ENDBRANCH   1  24
TORSDOF 11
ENDMDL
MODEL 5
REMARK VINA RESULT:      -6.7      5.071      9.053
REMARK  Name = 
REMARK  13 active torsions:
REMARK  status: ('A' for Active; 'I' for Inactive)
REMARK    1  A    between atoms: C_1  and  C_2
REMARK    2  A    between atoms: C_4  and  C_5
REMARK    3  A    between atoms: C_5  and  C_6
REMARK    4  A    between atoms: C_6  and  C_7
REMARK    5  A    between atoms: C_10  and  C_11
REMARK    6  A    between atoms: C_12  and  O_13
REMARK    7  A    between atoms: O_13  and  C_14
REMARK    8  A    between atoms: C_16  and  N_17
REMARK    9  A    between atoms: N_17  and  C_18
REMARK   10  A    between atoms: C_21  and  C_22
REMARK   11  A    between atoms: C_26  and  N_27
REMARK   12  A    between atoms: C_29  and  C_30
REMARK   13  A    between atoms: C_30  and  O_32
REMARK                            x       y       z     vdW  Elec       q    Type
REMARK                         _______ _______ _______ _____ _____    ______ ____
ROOT
ATOM      1  C   UNL     1      -0.927  12.764  21.504  0.00  0.00    +0.000 A 
ATOM      2  C   UNL     1      -1.888  12.139  20.695  0.00  0.00    +0.000 A 
ATOM      3  C   UNL     1      -3.115  12.746  20.417  0.00  0.00    +0.000 A 
ATOM      4  C   UNL     1      -3.378  14.026  20.946  0.00  0.00    +0.000 A 
ATOM      5  C   UNL     1      -2.442  14.612  21.806  0.00  0.00    +0.000 A 
ATOM      6  C   UNL     1      -1.254  13.952  22.162  0.00  0.00    +0.000 A 
ENDROOT
BRANCH   4   7
ATOM      7  N   UNL     1      -4.444  14.796  20.447  0.00  0.00    +0.000 N 
ATOM      8  H   UNL     1      -4.553  15.667  20.963  0.00  0.00    +0.000 HD
ATOM      9  H   UNL     1      -4.416  14.940  19.442  0.00  0.00    +0.000 HD
ENDBRANCH   4   7
BRANCH   3  10
ATOM     10  N   UNL     1      -4.070  12.139  19.550  0.00  0.00    +0.000 N 
ATOM     11  H   UNL     1      -4.950  12.647  19.606  0.00  0.00    +0.000 HD
BRANCH  10  12
ATOM     12  C   UNL     1      -3.805  11.581  18.279  0.00  0.00    +0.000 A 
ATOM     13  C   UNL     1      -2.661  10.799  18.063  0.00  0.00    +0.000 A 
ATOM     14  C   UNL     1      -2.359  10.286  16.798  0.00  0.00    +0.000 A 
ATOM     15  C   UNL     1      -3.220  10.527  15.726  0.00  0.00    +0.000 A 
ATOM     16  C   UNL     1      -4.395  11.254  15.936  0.00  0.00    +0.000 A 
ATOM     17  C   UNL     1      -4.691  11.770  17.209  0.00  0.00    +0.000 A 
BRANCH  15  18
ATOM     18  C   UNL     1      -2.892  10.030  14.421  0.00  0.00    +0.000 C 
ATOM     19  N   UNL     1      -2.623   9.647  13.358  0.00  0.00    +0.000 NA
ENDBRANCH  15  18
ENDBRANCH  10  12
ENDBRANCH   3  10
BRANCH   6  20
ATOM     20  C   UNL     1      -0.373  14.674  23.119  0.00  0.00    +0.000 C 
ATOM     21  O   UNL     1      -0.742  14.982  24.240  0.00  0.00    +0.000 OA
BRANCH  20  22
ATOM     22  O   UNL     1       0.888  14.869  22.686  0.00  0.00    +0.000 OA
ATOM     23  H   UNL     1       1.265  14.119  22.190  0.00  0.00    +0.000 HD
ENDBRANCH  20  22
ENDBRANCH   6  20
BRANCH   1  24
ATOM     24  O   UNL     1       0.265  12.090  21.537  0.00  0.00    +0.000 OA
BRANCH  24  32
ATOM     25  C   UNL     1       1.113  13.050  18.644  0.00  0.00    +0.000 C 
ATOM     26  C   UNL     1       1.125  11.660  19.228  0.00  0.00    +0.000 A 
ATOM     27  C   UNL     1       1.577  10.653  18.354  0.00  0.00    +0.000 A 
ATOM     28  C   UNL     1       1.563   9.300  18.703  0.00  0.00    +0.000 A 
ATOM     29  C   UNL     1       1.095   8.927  19.960  0.00  0.00    +0.000 A 
ATOM     30  C   UNL     1       0.652   9.895  20.868  0.00  0.00    +0.000 A 
ATOM     31  C   UNL     1       0.171   9.444  22.225  0.00  0.00    +0.000 C 
ATOM     32  C   UNL     1       0.692  11.270  20.513  0.00  0.00    +0.000 A 
BRANCH  28  33
ATOM     33  C   UNL     1       2.085   8.273  17.735  0.00  0.00    +0.000 C 
BRANCH  33  34
ATOM     34  C   UNL     1       2.955   7.247  18.447  0.00  0.00    +0.000 C 
BRANCH  34  35
ATOM     35  C   UNL     1       4.064   6.778  17.521  0.00  0.00    +0.000 C 
ATOM     36  N   UNL     1       4.984   6.388  16.751  0.00  0.00    +0.000 NA
ENDBRANCH  34  35
ENDBRANCH  33  34
ENDBRANCH  28  33
ENDBRANCH  24  32
ENDBRANCH   1  24
TORSDOF 11
ENDMDL
MODEL 6
REMARK VINA RESULT:      -6.7      2.530      6.942
REMARK  Name = 
REMARK  13 active torsions:
REMARK  status: ('A' for Active; 'I' for Inactive)
REMARK    1  A    between atoms: C_1  and  C_2
REMARK    2  A    between atoms: C_4  and  C_5
REMARK    3  A    between atoms: C_5  and  C_6
REMARK    4  A    between atoms: C_6  and  C_7
REMARK    5  A    between atoms: C_10  and  C_11
REMARK    6  A    between atoms: C_12  and  O_13
REMARK    7  A    between atoms: O_13  and  C_14
REMARK    8  A    between atoms: C_16  and  N_17
REMARK    9  A    between atoms: N_17  and  C_18
REMARK   10  A    between atoms: C_21  and  C_22
REMARK   11  A    between atoms: C_26  and  N_27
REMARK   12  A    between atoms: C_29  and  C_30
REMARK   13  A    between atoms: C_30  and  O_32
REMARK                            x       y       z     vdW  Elec       q    Type
REMARK                         _______ _______ _______ _____ _____    ______ ____
ROOT
ATOM      1  C   UNL     1       3.877   5.597  17.776  0.00  0.00    +0.000 A 
ATOM      2  C   UNL     1       4.789   6.607  17.432  0.00  0.00    +0.000 A 
ATOM      3  C   UNL     1       6.111   6.312  17.091  0.00  0.00    +0.000 A 
ATOM      4  C   UNL     1       6.526   4.965  17.070  0.00  0.00    +0.000 A 
ATOM      5  C   UNL     1       5.630   3.971  17.478  0.00  0.00    +0.000 A 
ATOM      6  C   UNL     1       4.332   4.284  17.918  0.00  0.00    +0.000 A 
ENDROOT
BRANCH   4   7
ATOM      7  N   UNL     1       7.730   4.602  16.440  0.00  0.00    +0.000 N 
ATOM      8  H   UNL     1       8.250   5.417  16.122  0.00  0.00    +0.000 HD
ATOM      9  H   UNL     1       8.303   3.961  16.981  0.00  0.00    +0.000 HD
ENDBRANCH   4   7
BRANCH   3  10
ATOM     10  N   UNL     1       7.023   7.331  16.686  0.00  0.00    +0.000 N 
ATOM     11  H   UNL     1       6.714   7.732  15.804  0.00  0.00    +0.000 HD
BRANCH  10  12
ATOM     12  C   UNL     1       7.680   8.246  17.539  0.00  0.00    +0.000 A 
ATOM     13  C   UNL     1       7.618   9.626  17.293  0.00  0.00    +0.000 A 
ATOM     14  C   UNL     1       8.308  10.539  18.097  0.00  0.00    +0.000 A 
ATOM     15  C   UNL     1       9.054  10.084  19.184  0.00  0.00    +0.000 A 
ATOM     16  C   UNL     1       9.079   8.717  19.479  0.00  0.00    +0.000 A 
ATOM     17  C   UNL     1       8.387   7.805  18.665  0.00  0.00    +0.000 A 
BRANCH  15  18
ATOM     18  C   UNL     1       9.790  11.016  19.988  0.00  0.00    +0.000 C 
ATOM     19  N   UNL     1      10.370  11.785  20.637  0.00  0.00    +0.000 NA
ENDBRANCH  15  18
ENDBRANCH  10  12
ENDBRANCH   3  10
BRANCH   6  20
ATOM     20  C   UNL     1       3.503   3.132  18.364  0.00  0.00    +0.000 C 
ATOM     21  O   UNL     1       3.874   2.360  19.234  0.00  0.00    +0.000 OA
BRANCH  20  22
ATOM     22  O   UNL     1       2.279   3.069  17.806  0.00  0.00    +0.000 OA
ATOM     23  H   UNL     1       2.201   2.427  17.077  0.00  0.00    +0.000 HD
ENDBRANCH  20  22
ENDBRANCH   6  20
BRANCH   1  24
ATOM     24  O   UNL     1       2.598   6.060  17.929  0.00  0.00    +0.000 OA
BRANCH  24  32
ATOM     25  C   UNL     1       1.991   4.795  20.765  0.00  0.00    +0.000 C 
ATOM     26  C   UNL     1       1.947   6.241  20.338  0.00  0.00    +0.000 A 
ATOM     27  C   UNL     1       1.582   7.148  21.351  0.00  0.00    +0.000 A 
ATOM     28  C   UNL     1       1.402   8.511  21.102  0.00  0.00    +0.000 A 
ATOM     29  C   UNL     1       1.596   8.999  19.812  0.00  0.00    +0.000 A 
ATOM     30  C   UNL     1       1.978   8.136  18.778  0.00  0.00    +0.000 A 
ATOM     31  C   UNL     1       2.194   8.713  17.401  0.00  0.00    +0.000 C 
ATOM     32  C   UNL     1       2.181   6.756  19.045  0.00  0.00    +0.000 A 
BRANCH  28  33
ATOM     33  C   UNL     1       1.036   9.434  22.232  0.00  0.00    +0.000 C 
BRANCH  33  34
ATOM     34  C   UNL     1      -0.402   9.206  22.675  0.00  0.00    +0.000 C 
BRANCH  34  35
ATOM     35  C   UNL     1      -1.067  10.539  22.976  0.00  0.00    +0.000 C 
ATOM     36  N   UNL     1      -1.619  11.645  23.226  0.00  0.00    +0.000 NA
ENDBRANCH  34  35
ENDBRANCH  33  34
ENDBRANCH  28  33
ENDBRANCH  24  32
ENDBRANCH   1  24
TORSDOF 11
ENDMDL
MODEL 7
REMARK VINA RESULT:      -6.6      2.868      4.829
REMARK  Name = 
REMARK  13 active torsions:
REMARK  status: ('A' for Active; 'I' for Inactive)
REMARK    1  A    between atoms: C_1  and  C_2
REMARK    2  A    between atoms: C_4  and  C_5
REMARK    3  A    between atoms: C_5  and  C_6
REMARK    4  A    between atoms: C_6  and  C_7
REMARK    5  A    between atoms: C_10  and  C_11
REMARK    6  A    between atoms: C_12  and  O_13
REMARK    7  A    between atoms: O_13  and  C_14
REMARK    8  A    between atoms: C_16  and  N_17
REMARK    9  A    between atoms: N_17  and  C_18
REMARK   10  A    between atoms: C_21  and  C_22
REMARK   11  A    between atoms: C_26  and  N_27
REMARK   12  A    between atoms: C_29  and  C_30
REMARK   13  A    between atoms: C_30  and  O_32
REMARK                            x       y       z     vdW  Elec       q    Type
REMARK                         _______ _______ _______ _____ _____    ______ ____
ROOT
ATOM      1  C   UNL     1       3.590   5.121  19.558  0.00  0.00    +0.000 A 
ATOM      2  C   UNL     1       3.443   6.394  18.987  0.00  0.00    +0.000 A 
ATOM      3  C   UNL     1       2.468   7.287  19.436  0.00  0.00    +0.000 A 
ATOM      4  C   UNL     1       1.629   6.903  20.502  0.00  0.00    +0.000 A 
ATOM      5  C   UNL     1       1.738   5.608  21.020  0.00  0.00    +0.000 A 
ATOM      6  C   UNL     1       2.653   4.679  20.496  0.00  0.00    +0.000 A 
ENDROOT
BRANCH   4   7
ATOM      7  N   UNL     1       0.860   7.864  21.184  0.00  0.00    +0.000 N 
ATOM      8  H   UNL     1      -0.097   7.895  20.838  0.00  0.00    +0.000 HD
ATOM      9  H   UNL     1       0.907   7.789  22.196  0.00  0.00    +0.000 HD
ENDBRANCH   4   7
BRANCH   3  10
ATOM     10  N   UNL     1       2.354   8.602  18.896  0.00  0.00    +0.000 N 
ATOM     11  H   UNL     1       3.009   8.710  18.125  0.00  0.00    +0.000 HD
BRANCH  10  12
ATOM     12  C   UNL     1       1.158   9.341  18.746  0.00  0.00    +0.000 A 
ATOM     13  C   UNL     1       0.848  10.389  19.624  0.00  0.00    +0.000 A 
ATOM     14  C   UNL     1      -0.357  11.092  19.521  0.00  0.00    +0.000 A 
ATOM     15  C   UNL     1      -1.263  10.773  18.509  0.00  0.00    +0.000 A 
ATOM     16  C   UNL     1      -0.943   9.771  17.588  0.00  0.00    +0.000 A 
ATOM     17  C   UNL     1       0.267   9.066  17.701  0.00  0.00    +0.000 A 
BRANCH  15  18
ATOM     18  C   UNL     1      -2.513  11.470  18.423  0.00  0.00    +0.000 C 
ATOM     19  N   UNL     1      -3.523  12.042  18.373  0.00  0.00    +0.000 NA
ENDBRANCH  15  18
ENDBRANCH  10  12
ENDBRANCH   3  10
BRANCH   6  20
ATOM     20  C   UNL     1       2.630   3.326  21.114  0.00  0.00    +0.000 C 
ATOM     21  O   UNL     1       1.880   3.043  22.034  0.00  0.00    +0.000 OA
BRANCH  20  22
ATOM     22  O   UNL     1       3.425   2.419  20.514  0.00  0.00    +0.000 OA
ATOM     23  H   UNL     1       3.971   2.777  19.791  0.00  0.00    +0.000 HD
ENDBRANCH  20  22
ENDBRANCH   6  20
BRANCH   1  24
ATOM     24  O   UNL     1       4.690   4.450  19.096  0.00  0.00    +0.000 OA
BRANCH  24  32
ATOM     25  C   UNL     1       7.229   6.209  18.409  0.00  0.00    +0.000 C 
ATOM     26  C   UNL     1       6.368   5.378  17.490  0.00  0.00    +0.000 A 
ATOM     27  C   UNL     1       6.756   5.397  16.137  0.00  0.00    +0.000 A 
ATOM     28  C   UNL     1       6.013   4.759  15.139  0.00  0.00    +0.000 A 
ATOM     29  C   UNL     1       4.853   4.073  15.488  0.00  0.00    +0.000 A 
ATOM     30  C   UNL     1       4.440   4.013  16.824  0.00  0.00    +0.000 A 
ATOM     31  C   UNL     1       3.186   3.242  17.157  0.00  0.00    +0.000 C 
ATOM     32  C   UNL     1       5.213   4.645  17.834  0.00  0.00    +0.000 A 
BRANCH  28  33
ATOM     33  C   UNL     1       6.494   4.793  13.714  0.00  0.00    +0.000 C 
BRANCH  33  34
ATOM     34  C   UNL     1       6.401   3.413  13.077  0.00  0.00    +0.000 C 
BRANCH  34  35
ATOM     35  C   UNL     1       5.209   3.358  12.136  0.00  0.00    +0.000 C 
ATOM     36  N   UNL     1       4.220   3.313  11.355  0.00  0.00    +0.000 NA
ENDBRANCH  34  35
ENDBRANCH  33  34
ENDBRANCH  28  33
ENDBRANCH  24  32
ENDBRANCH   1  24
TORSDOF 11
ENDMDL
MODEL 8
REMARK VINA RESULT:      -6.6      0.604      1.736
REMARK  Name = 
REMARK  13 active torsions:
REMARK  status: ('A' for Active; 'I' for Inactive)
REMARK    1  A    between atoms: C_1  and  C_2
REMARK    2  A    between atoms: C_4  and  C_5
REMARK    3  A    between atoms: C_5  and  C_6
REMARK    4  A    between atoms: C_6  and  C_7
REMARK    5  A    between atoms: C_10  and  C_11
REMARK    6  A    between atoms: C_12  and  O_13
REMARK    7  A    between atoms: O_13  and  C_14
REMARK    8  A    between atoms: C_16  and  N_17
REMARK    9  A    between atoms: N_17  and  C_18
REMARK   10  A    between atoms: C_21  and  C_22
REMARK   11  A    between atoms: C_26  and  N_27
REMARK   12  A    between atoms: C_29  and  C_30
REMARK   13  A    between atoms: C_30  and  O_32
REMARK                            x       y       z     vdW  Elec       q    Type
REMARK                         _______ _______ _______ _____ _____    ______ ____
ROOT
ATOM      1  C   UNL     1       4.528   4.087  18.868  0.00  0.00    +0.000 A 
ATOM      2  C   UNL     1       4.064   5.206  19.577  0.00  0.00    +0.000 A 
ATOM      3  C   UNL     1       2.776   5.245  20.115  0.00  0.00    +0.000 A 
ATOM      4  C   UNL     1       1.936   4.123  19.960  0.00  0.00    +0.000 A 
ATOM      5  C   UNL     1       2.383   3.040  19.195  0.00  0.00    +0.000 A 
ATOM      6  C   UNL     1       3.642   3.049  18.571  0.00  0.00    +0.000 A 
ENDROOT
BRANCH   4   7
ATOM      7  N   UNL     1       0.772   3.993  20.739  0.00  0.00    +0.000 N 
ATOM      8  H   UNL     1       0.972   3.592  21.652  0.00  0.00    +0.000 HD
ATOM      9  H   UNL     1       0.217   4.842  20.799  0.00  0.00    +0.000 HD
ENDBRANCH   4   7
BRANCH   3  10
ATOM     10  N   UNL     1       2.321   6.357  20.884  0.00  0.00    +0.000 N 
ATOM     11  H   UNL     1       2.941   6.495  21.680  0.00  0.00    +0.000 HD
BRANCH  10  12
ATOM     12  C   UNL     1       1.761   7.550  20.374  0.00  0.00    +0.000 A 
ATOM     13  C   UNL     1       2.037   7.968  19.064  0.00  0.00    +0.000 A 
ATOM     14  C   UNL     1       1.534   9.174  18.564  0.00  0.00    +0.000 A 
ATOM     15  C   UNL     1       0.716   9.971  19.366  0.00  0.00    +0.000 A 
ATOM     16  C   UNL     1       0.382   9.540  20.654  0.00  0.00    +0.000 A 
ATOM     17  C   UNL     1       0.895   8.330  21.150  0.00  0.00    +0.000 A 
BRANCH  15  18
ATOM     18  C   UNL     1       0.228  11.223  18.866  0.00  0.00    +0.000 C 
ATOM     19  N   UNL     1      -0.186  12.229  18.459  0.00  0.00    +0.000 NA
ENDBRANCH  15  18
ENDBRANCH  10  12
ENDBRANCH   3  10
BRANCH   6  20
ATOM     20  C   UNL     1       3.968   1.850  17.753  0.00  0.00    +0.000 C 
ATOM     21  O   UNL     1       4.332   1.933  16.591  0.00  0.00    +0.000 OA
BRANCH  20  22
ATOM     22  O   UNL     1       3.925   0.681  18.423  0.00  0.00    +0.000 OA
ATOM     23  H   UNL     1       4.454  -0.033  18.022  0.00  0.00    +0.000 HD
ENDBRANCH  20  22
ENDBRANCH   6  20
BRANCH   1  24
ATOM     24  O   UNL     1       5.858   4.168  18.551  0.00  0.00    +0.000 OA
BRANCH  24  32
ATOM     25  C   UNL     1       8.118   5.253  20.480  0.00  0.00    +0.000 C 
ATOM     26  C   UNL     1       7.569   5.867  19.216  0.00  0.00    +0.000 A 
ATOM     27  C   UNL     1       8.149   7.097  18.853  0.00  0.00    +0.000 A 
ATOM     28  C   UNL     1       7.693   7.844  17.763  0.00  0.00    +0.000 A 
ATOM     29  C   UNL     1       6.634   7.359  17.002  0.00  0.00    +0.000 A 
ATOM     30  C   UNL     1       6.038   6.131  17.315  0.00  0.00    +0.000 A 
ATOM     31  C   UNL     1       4.905   5.638  16.449  0.00  0.00    +0.000 C 
ATOM     32  C   UNL     1       6.524   5.368  18.410  0.00  0.00    +0.000 A 
BRANCH  28  33
ATOM     33  C   UNL     1       8.372   9.139  17.410  0.00  0.00    +0.000 C 
BRANCH  33  34
ATOM     34  C   UNL     1       8.874   9.848  18.661  0.00  0.00    +0.000 C 
BRANCH  34  35
ATOM     35  C   UNL     1       9.694  11.066  18.270  0.00  0.00    +0.000 C 
ATOM     36  N   UNL     1      10.375  12.077  17.945  0.00  0.00    +0.000 NA
ENDBRANCH  34  35
ENDBRANCH  33  34
ENDBRANCH  28  33
ENDBRANCH  24  32
ENDBRANCH   1  24
TORSDOF 11
ENDMDL
MODEL 9
REMARK VINA RESULT:      -6.6      5.411      9.299
REMARK  Name = 
REMARK  13 active torsions:
REMARK  status: ('A' for Active; 'I' for Inactive)
REMARK    1  A    between atoms: C_1  and  C_2
REMARK    2  A    between atoms: C_4  and  C_5
REMARK    3  A    between atoms: C_5  and  C_6
REMARK    4  A    between atoms: C_6  and  C_7
REMARK    5  A    between atoms: C_10  and  C_11
REMARK    6  A    between atoms: C_12  and  O_13
REMARK    7  A    between atoms: O_13  and  C_14
REMARK    8  A    between atoms: C_16  and  N_17
REMARK    9  A    between atoms: N_17  and  C_18
REMARK   10  A    between atoms: C_21  and  C_22
REMARK   11  A    between atoms: C_26  and  N_27
REMARK   12  A    between atoms: C_29  and  C_30
REMARK   13  A    between atoms: C_30  and  O_32
REMARK                            x       y       z     vdW  Elec       q    Type
REMARK                         _______ _______ _______ _____ _____    ______ ____
ROOT
ATOM      1  C   UNL     1      -0.965  12.913  21.383  0.00  0.00    +0.000 A 
ATOM      2  C   UNL     1      -1.843  12.236  20.521  0.00  0.00    +0.000 A 
ATOM      3  C   UNL     1      -3.194  12.580  20.439  0.00  0.00    +0.000 A 
ATOM      4  C   UNL     1      -3.676  13.647  21.224  0.00  0.00    +0.000 A 
ATOM      5  C   UNL     1      -2.810  14.271  22.129  0.00  0.00    +0.000 A 
ATOM      6  C   UNL     1      -1.477  13.854  22.280  0.00  0.00    +0.000 A 
ENDROOT
BRANCH   4   7
ATOM      7  N   UNL     1      -4.929  14.224  20.947  0.00  0.00    +0.000 N 
ATOM      8  H   UNL     1      -5.154  14.969  21.604  0.00  0.00    +0.000 HD
ATOM      9  H   UNL     1      -5.050  14.508  19.980  0.00  0.00    +0.000 HD
ENDBRANCH   4   7
BRANCH   3  10
ATOM     10  N   UNL     1      -4.075  11.932  19.523  0.00  0.00    +0.000 N 
ATOM     11  H   UNL     1      -5.003  12.342  19.599  0.00  0.00    +0.000 HD
BRANCH  10  12
ATOM     12  C   UNL     1      -3.745  11.485  18.224  0.00  0.00    +0.000 A 
ATOM     13  C   UNL     1      -4.574  11.781  17.132  0.00  0.00    +0.000 A 
ATOM     14  C   UNL     1      -4.288  11.299  15.850  0.00  0.00    +0.000 A 
ATOM     15  C   UNL     1      -3.143  10.532  15.636  0.00  0.00    +0.000 A 
ATOM     16  C   UNL     1      -2.274  10.277  16.701  0.00  0.00    +0.000 A 
ATOM     17  C   UNL     1      -2.569  10.761  17.987  0.00  0.00    +0.000 A 
BRANCH  15  18
ATOM     18  C   UNL     1      -2.867  10.009  14.329  0.00  0.00    +0.000 C 
ATOM     19  N   UNL     1      -2.662   9.593  13.264  0.00  0.00    +0.000 NA
ENDBRANCH  15  18
ENDBRANCH  10  12
ENDBRANCH   3  10
BRANCH   6  20
ATOM     20  C   UNL     1      -0.684  14.578  23.310  0.00  0.00    +0.000 C 
ATOM     21  O   UNL     1      -1.045  14.659  24.472  0.00  0.00    +0.000 OA
BRANCH  20  22
ATOM     22  O   UNL     1       0.504  15.047  22.879  0.00  0.00    +0.000 OA
ATOM     23  H   UNL     1       0.786  15.879  23.301  0.00  0.00    +0.000 HD
ENDBRANCH  20  22
ENDBRANCH   6  20
BRANCH   1  24
ATOM     24  O   UNL     1       0.342  12.542  21.215  0.00  0.00    +0.000 OA
BRANCH  24  32
ATOM     25  C   UNL     1       0.173   9.569  22.283  0.00  0.00    +0.000 C 
ATOM     26  C   UNL     1       0.614  10.072  20.931  0.00  0.00    +0.000 A 
ATOM     27  C   UNL     1       1.006   9.070  20.023  0.00  0.00    +0.000 A 
ATOM     28  C   UNL     1       1.530   9.368  18.762  0.00  0.00    +0.000 A 
ATOM     29  C   UNL     1       1.664  10.700  18.380  0.00  0.00    +0.000 A 
ATOM     30  C   UNL     1       1.271  11.729  19.243  0.00  0.00    +0.000 A 
ATOM     31  C   UNL     1       1.419  13.157  18.777  0.00  0.00    +0.000 C 
ATOM     32  C   UNL     1       0.718  11.416  20.513  0.00  0.00    +0.000 A 
BRANCH  28  33
ATOM     33  C   UNL     1       1.906   8.251  17.827  0.00  0.00    +0.000 C 
BRANCH  33  34
ATOM     34  C   UNL     1       2.790   7.230  18.529  0.00  0.00    +0.000 C 
BRANCH  34  35
ATOM     35  C   UNL     1       2.350   5.824  18.157  0.00  0.00    +0.000 C 
ATOM     36  N   UNL     1       1.985   4.657  17.849  0.00  0.00    +0.000 NA
ENDBRANCH  34  35
ENDBRANCH  33  34
ENDBRANCH  28  33
ENDBRANCH  24  32
ENDBRANCH   1  24
TORSDOF 11
ENDMDL
