MODEL 1
REMARK VINA RESULT:      -8.7      0.000      0.000
REMARK  Name = 
REMARK  4 active torsions:
REMARK  status: ('A' for Active; 'I' for Inactive)
REMARK    1  A    between atoms: C_1  and  C_2
REMARK    2  A    between atoms: C_4  and  C_5
REMARK    3  A    between atoms: C_5  and  N_6
REMARK    4  A    between atoms: C_10  and  C_11
REMARK                            x       y       z     vdW  Elec       q    Type
REMARK                         _______ _______ _______ _____ _____    ______ ____
ROOT
ATOM      1  N   UNL     1       6.049   4.806  18.272  0.00  0.00    +0.000 N 
ATOM      2  N   UNL     1       5.802   3.657  18.990  0.00  0.00    +0.000 NA
ATOM      3  N   UNL     1       4.737   3.533  19.638  0.00  0.00    +0.000 NA
ATOM      4  C   UNL     1       3.809   4.511  19.626  0.00  0.00    +0.000 A 
ATOM      5  C   UNL     1       2.553   4.673  20.183  0.00  0.00    +0.000 A 
ATOM      6  N   UNL     1       2.033   5.921  19.844  0.00  0.00    +0.000 NA
ATOM      7  C   UNL     1       2.957   6.480  19.092  0.00  0.00    +0.000 A 
ATOM      8  N   UNL     1       4.040   5.659  18.925  0.00  0.00    +0.000 N 
ATOM      9  C   UNL     1       5.187   5.883  18.186  0.00  0.00    +0.000 A 
ATOM     10  O   UNL     1       5.322   6.926  17.564  0.00  0.00    +0.000 OA
ENDROOT
BRANCH   5  11
ATOM     11  C   UNL     1       1.832   3.708  21.005  0.00  0.00    +0.000 C 
ATOM     12  N   UNL     1       0.674   3.263  20.437  0.00  0.00    +0.000 N 
ATOM     13  O   UNL     1       2.203   3.311  22.102  0.00  0.00    +0.000 OA
ATOM     14  H   UNL     1       0.397   3.603  19.524  0.00  0.00    +0.000 HD
ATOM     15  H   UNL     1       0.113   2.584  20.928  0.00  0.00    +0.000 HD
ENDBRANCH   5  11
BRANCH   1  16
ATOM     16  C   UNL     1       7.282   4.818  17.501  0.00  0.00    +0.000 C 
BRANCH  16  20
ATOM     17  C   UNL     1       5.763   3.533  12.799  0.00  0.00    +0.000 C 
ATOM     18  C   UNL     1       6.357   4.138  14.011  0.00  0.00    +0.000 A 
ATOM     19  C   UNL     1       6.168   3.768  15.361  0.00  0.00    +0.000 A 
ATOM     20  C   UNL     1       6.968   4.635  16.066  0.00  0.00    +0.000 A 
ATOM     21  O   UNL     1       7.583   5.481  15.197  0.00  0.00    +0.000 OA
ATOM     22  N   UNL     1       7.200   5.171  13.905  0.00  0.00    +0.000 NA
ENDBRANCH  16  20
ENDBRANCH   1  16
TORSDOF 3
ENDMDL
MODEL 2
REMARK VINA RESULT:      -8.3      1.392      2.170
REMARK  Name = 
REMARK  4 active torsions:
REMARK  status: ('A' for Active; 'I' for Inactive)
REMARK    1  A    between atoms: C_1  and  C_2
REMARK    2  A    between atoms: C_4  and  C_5
REMARK    3  A    between atoms: C_5  and  N_6
REMARK    4  A    between atoms: C_10  and  C_11
REMARK                            x       y       z     vdW  Elec       q    Type
REMARK                         _______ _______ _______ _____ _____    ______ ____
ROOT
ATOM      1  N   UNL     1       4.741   5.514  18.102  0.00  0.00    +0.000 N 
ATOM      2  N   UNL     1       3.413   5.814  18.310  0.00  0.00    +0.000 NA
ATOM      3  N   UNL     1       2.708   5.083  19.043  0.00  0.00    +0.000 NA
ATOM      4  C   UNL     1       3.241   4.007  19.656  0.00  0.00    +0.000 A 
ATOM      5  C   UNL     1       2.767   3.046  20.531  0.00  0.00    +0.000 A 
ATOM      6  N   UNL     1       3.777   2.138  20.842  0.00  0.00    +0.000 NA
ATOM      7  C   UNL     1       4.829   2.560  20.175  0.00  0.00    +0.000 A 
ATOM      8  N   UNL     1       4.554   3.693  19.456  0.00  0.00    +0.000 N 
ATOM      9  C   UNL     1       5.404   4.439  18.661  0.00  0.00    +0.000 A 
ATOM     10  O   UNL     1       6.575   4.112  18.541  0.00  0.00    +0.000 OA
ENDROOT
BRANCH   5  11
ATOM     11  C   UNL     1       1.420   2.956  21.081  0.00  0.00    +0.000 C 
ATOM     12  N   UNL     1       0.443   3.320  20.201  0.00  0.00    +0.000 N 
ATOM     13  O   UNL     1       1.154   2.591  22.219  0.00  0.00    +0.000 OA
ATOM     14  H   UNL     1       0.693   3.610  19.263  0.00  0.00    +0.000 HD
ATOM     15  H   UNL     1      -0.522   3.279  20.490  0.00  0.00    +0.000 HD
ENDBRANCH   5  11
BRANCH   1  16
ATOM     16  C   UNL     1       5.484   6.464  17.290  0.00  0.00    +0.000 C 
BRANCH  16  20
ATOM     17  C   UNL     1       6.429   3.827  13.021  0.00  0.00    +0.000 C 
ATOM     18  C   UNL     1       6.460   4.675  14.233  0.00  0.00    +0.000 A 
ATOM     19  C   UNL     1       5.397   5.004  15.103  0.00  0.00    +0.000 A 
ATOM     20  C   UNL     1       5.980   5.789  16.069  0.00  0.00    +0.000 A 
ATOM     21  O   UNL     1       7.302   5.935  15.788  0.00  0.00    +0.000 OA
ATOM     22  N   UNL     1       7.606   5.236  14.634  0.00  0.00    +0.000 NA
ENDBRANCH  16  20
ENDBRANCH   1  16
TORSDOF 3
ENDMDL
MODEL 3
REMARK VINA RESULT:      -7.8      1.909      2.860
REMARK  Name = 
REMARK  4 active torsions:
REMARK  status: ('A' for Active; 'I' for Inactive)
REMARK    1  A    between atoms: C_1  and  C_2
REMARK    2  A    between atoms: C_4  and  C_5
REMARK    3  A    between atoms: C_5  and  N_6
REMARK    4  A    between atoms: C_10  and  C_11
REMARK                            x       y       z     vdW  Elec       q    Type
REMARK                         _______ _______ _______ _____ _____    ______ ____
ROOT
ATOM      1  N   UNL     1       5.726   5.316  17.785  0.00  0.00    +0.000 N 
ATOM      2  N   UNL     1       5.391   6.527  17.221  0.00  0.00    +0.000 NA
ATOM      3  N   UNL     1       4.371   7.144  17.607  0.00  0.00    +0.000 NA
ATOM      4  C   UNL     1       3.600   6.644  18.593  0.00  0.00    +0.000 A 
ATOM      5  C   UNL     1       2.466   7.074  19.259  0.00  0.00    +0.000 A 
ATOM      6  N   UNL     1       2.077   6.129  20.207  0.00  0.00    +0.000 NA
ATOM      7  C   UNL     1       2.970   5.167  20.113  0.00  0.00    +0.000 A 
ATOM      8  N   UNL     1       3.914   5.443  19.159  0.00  0.00    +0.000 N 
ATOM      9  C   UNL     1       5.016   4.693  18.793  0.00  0.00    +0.000 A 
ATOM     10  O   UNL     1       5.250   3.633  19.356  0.00  0.00    +0.000 OA
ENDROOT
BRANCH   5  11
ATOM     11  C   UNL     1       1.749   8.325  19.044  0.00  0.00    +0.000 C 
ATOM     12  N   UNL     1       1.817   8.781  17.760  0.00  0.00    +0.000 N 
ATOM     13  O   UNL     1       1.131   8.934  19.909  0.00  0.00    +0.000 OA
ATOM     14  H   UNL     1       2.329   8.251  17.064  0.00  0.00    +0.000 HD
ATOM     15  H   UNL     1       1.342   9.635  17.513  0.00  0.00    +0.000 HD
ENDBRANCH   5  11
BRANCH   1  16
ATOM     16  C   UNL     1       6.964   4.718  17.312  0.00  0.00    +0.000 C 
BRANCH  16  20
ATOM     17  C   UNL     1       6.316   3.658  12.359  0.00  0.00    +0.000 C 
ATOM     18  C   UNL     1       6.692   4.196  13.686  0.00  0.00    +0.000 A 
ATOM     19  C   UNL     1       6.237   3.790  14.960  0.00  0.00    +0.000 A 
ATOM     20  C   UNL     1       6.921   4.597  15.838  0.00  0.00    +0.000 A 
ATOM     21  O   UNL     1       7.720   5.444  15.135  0.00  0.00    +0.000 OA
ATOM     22  N   UNL     1       7.577   5.194  13.782  0.00  0.00    +0.000 NA
ENDBRANCH  16  20
ENDBRANCH   1  16
TORSDOF 3
ENDMDL
MODEL 4
REMARK VINA RESULT:      -7.8      2.446      3.452
REMARK  Name = 
REMARK  4 active torsions:
REMARK  status: ('A' for Active; 'I' for Inactive)
REMARK    1  A    between atoms: C_1  and  C_2
REMARK    2  A    between atoms: C_4  and  C_5
REMARK    3  A    between atoms: C_5  and  N_6
REMARK    4  A    between atoms: C_10  and  C_11
REMARK                            x       y       z     vdW  Elec       q    Type
REMARK                         _______ _______ _______ _____ _____    ______ ____
ROOT
ATOM      1  N   UNL     1       5.819   4.596  18.117  0.00  0.00    +0.000 N 
ATOM      2  N   UNL     1       5.424   4.989  19.377  0.00  0.00    +0.000 NA
ATOM      3  N   UNL     1       4.238   4.827  19.746  0.00  0.00    +0.000 NA
ATOM      4  C   UNL     1       3.337   4.248  18.927  0.00  0.00    +0.000 A 
ATOM      5  C   UNL     1       2.003   3.899  19.033  0.00  0.00    +0.000 A 
ATOM      6  N   UNL     1       1.560   3.323  17.844  0.00  0.00    +0.000 NA
ATOM      7  C   UNL     1       2.613   3.321  17.056  0.00  0.00    +0.000 A 
ATOM      8  N   UNL     1       3.711   3.859  17.674  0.00  0.00    +0.000 N 
ATOM      9  C   UNL     1       4.994   4.002  17.181  0.00  0.00    +0.000 A 
ATOM     10  O   UNL     1       5.266   3.613  16.055  0.00  0.00    +0.000 OA
ENDROOT
BRANCH   5  11
ATOM     11  C   UNL     1       1.144   4.078  20.198  0.00  0.00    +0.000 C 
ATOM     12  N   UNL     1       0.730   2.905  20.759  0.00  0.00    +0.000 N 
ATOM     13  O   UNL     1       0.809   5.163  20.658  0.00  0.00    +0.000 OA
ATOM     14  H   UNL     1       1.030   2.023  20.361  0.00  0.00    +0.000 HD
ATOM     15  H   UNL     1       0.140   2.931  21.576  0.00  0.00    +0.000 HD
ENDBRANCH   5  11
BRANCH   1  16
ATOM     16  C   UNL     1       7.231   4.766  17.815  0.00  0.00    +0.000 C 
BRANCH  16  20
ATOM     17  C   UNL     1       8.743   9.569  18.668  0.00  0.00    +0.000 C 
ATOM     18  C   UNL     1       8.191   8.297  18.151  0.00  0.00    +0.000 A 
ATOM     19  C   UNL     1       8.273   7.007  18.720  0.00  0.00    +0.000 A 
ATOM     20  C   UNL     1       7.573   6.206  17.849  0.00  0.00    +0.000 A 
ATOM     21  O   UNL     1       7.115   6.964  16.817  0.00  0.00    +0.000 OA
ATOM     22  N   UNL     1       7.503   8.278  17.004  0.00  0.00    +0.000 NA
ENDBRANCH  16  20
ENDBRANCH   1  16
TORSDOF 3
ENDMDL
MODEL 5
REMARK VINA RESULT:      -7.8      1.190      1.229
REMARK  Name = 
REMARK  4 active torsions:
REMARK  status: ('A' for Active; 'I' for Inactive)
REMARK    1  A    between atoms: C_1  and  C_2
REMARK    2  A    between atoms: C_4  and  C_5
REMARK    3  A    between atoms: C_5  and  N_6
REMARK    4  A    between atoms: C_10  and  C_11
REMARK                            x       y       z     vdW  Elec       q    Type
REMARK                         _______ _______ _______ _____ _____    ______ ____
ROOT
ATOM      1  N   UNL     1       5.464   5.864  18.216  0.00  0.00    +0.000 N 
ATOM      2  N   UNL     1       5.949   4.781  18.915  0.00  0.00    +0.000 NA
ATOM      3  N   UNL     1       5.192   4.120  19.662  0.00  0.00    +0.000 NA
ATOM      4  C   UNL     1       3.888   4.445  19.778  0.00  0.00    +0.000 A 
ATOM      5  C   UNL     1       2.808   3.919  20.463  0.00  0.00    +0.000 A 
ATOM      6  N   UNL     1       1.667   4.682  20.221  0.00  0.00    +0.000 NA
ATOM      7  C   UNL     1       2.062   5.631  19.401  0.00  0.00    +0.000 A 
ATOM      8  N   UNL     1       3.393   5.519  19.097  0.00  0.00    +0.000 N 
ATOM      9  C   UNL     1       4.156   6.306  18.255  0.00  0.00    +0.000 A 
ATOM     10  O   UNL     1       3.644   7.242  17.659  0.00  0.00    +0.000 OA
ENDROOT
BRANCH   5  11
ATOM     11  C   UNL     1       2.808   2.739  21.319  0.00  0.00    +0.000 C 
ATOM     12  N   UNL     1       1.619   2.522  21.953  0.00  0.00    +0.000 N 
ATOM     13  O   UNL     1       3.764   1.990  21.475  0.00  0.00    +0.000 OA
ATOM     14  H   UNL     1       0.843   3.155  21.797  0.00  0.00    +0.000 HD
ATOM     15  H   UNL     1       1.521   1.722  22.558  0.00  0.00    +0.000 HD
ENDBRANCH   5  11
BRANCH   1  16
ATOM     16  C   UNL     1       6.410   6.518  17.327  0.00  0.00    +0.000 C 
BRANCH  16  20
ATOM     17  C   UNL     1       5.951   3.652  13.126  0.00  0.00    +0.000 C 
ATOM     18  C   UNL     1       6.374   4.543  14.229  0.00  0.00    +0.000 A 
ATOM     19  C   UNL     1       5.621   4.982  15.341  0.00  0.00    +0.000 A 
ATOM     20  C   UNL     1       6.499   5.761  16.058  0.00  0.00    +0.000 A 
ATOM     21  O   UNL     1       7.694   5.800  15.409  0.00  0.00    +0.000 OA
ATOM     22  N   UNL     1       7.617   5.035  14.259  0.00  0.00    +0.000 NA
ENDBRANCH  16  20
ENDBRANCH   1  16
TORSDOF 3
ENDMDL
MODEL 6
REMARK VINA RESULT:      -7.7      2.181      3.191
REMARK  Name = 
REMARK  4 active torsions:
REMARK  status: ('A' for Active; 'I' for Inactive)
REMARK    1  A    between atoms: C_1  and  C_2
REMARK    2  A    between atoms: C_4  and  C_5
REMARK    3  A    between atoms: C_5  and  N_6
REMARK    4  A    between atoms: C_10  and  C_11
REMARK                            x       y       z     vdW  Elec       q    Type
REMARK                         _______ _______ _______ _____ _____    ______ ____
ROOT
ATOM      1  N   UNL     1       5.881   4.514  17.948  0.00  0.00    +0.000 N 
ATOM      2  N   UNL     1       5.983   4.096  19.257  0.00  0.00    +0.000 NA
ATOM      3  N   UNL     1       4.958   3.764  19.896  0.00  0.00    +0.000 NA
ATOM      4  C   UNL     1       3.745   3.790  19.308  0.00  0.00    +0.000 A 
ATOM      5  C   UNL     1       2.460   3.463  19.704  0.00  0.00    +0.000 A 
ATOM      6  N   UNL     1       1.561   3.704  18.667  0.00  0.00    +0.000 NA
ATOM      7  C   UNL     1       2.300   4.151  17.675  0.00  0.00    +0.000 A 
ATOM      8  N   UNL     1       3.625   4.208  18.014  0.00  0.00    +0.000 N 
ATOM      9  C   UNL     1       4.700   4.596  17.236  0.00  0.00    +0.000 A 
ATOM     10  O   UNL     1       4.525   4.940  16.077  0.00  0.00    +0.000 OA
ENDROOT
BRANCH   5  11
ATOM     11  C   UNL     1       2.055   2.935  21.001  0.00  0.00    +0.000 C 
ATOM     12  N   UNL     1       0.703   2.815  21.145  0.00  0.00    +0.000 N 
ATOM     13  O   UNL     1       2.826   2.616  21.897  0.00  0.00    +0.000 OA
ATOM     14  H   UNL     1       0.090   3.079  20.383  0.00  0.00    +0.000 HD
ATOM     15  H   UNL     1       0.330   2.447  22.007  0.00  0.00    +0.000 HD
ENDBRANCH   5  11
BRANCH   1  16
ATOM     16  C   UNL     1       7.138   4.810  17.279  0.00  0.00    +0.000 C 
BRANCH  16  20
ATOM     17  C   UNL     1       8.727   9.385  18.896  0.00  0.00    +0.000 C 
ATOM     18  C   UNL     1       8.171   8.221  18.172  0.00  0.00    +0.000 A 
ATOM     19  C   UNL     1       8.187   6.860  18.551  0.00  0.00    +0.000 A 
ATOM     20  C   UNL     1       7.515   6.217  17.539  0.00  0.00    +0.000 A 
ATOM     21  O   UNL     1       7.136   7.130  16.605  0.00  0.00    +0.000 OA
ATOM     22  N   UNL     1       7.548   8.390  17.001  0.00  0.00    +0.000 NA
ENDBRANCH  16  20
ENDBRANCH   1  16
TORSDOF 3
ENDMDL
MODEL 7
REMARK VINA RESULT:      -7.6      1.759      6.464
REMARK  Name = 
REMARK  4 active torsions:
REMARK  status: ('A' for Active; 'I' for Inactive)
REMARK    1  A    between atoms: C_1  and  C_2
REMARK    2  A    between atoms: C_4  and  C_5
REMARK    3  A    between atoms: C_5  and  N_6
REMARK    4  A    between atoms: C_10  and  C_11
REMARK                            x       y       z     vdW  Elec       q    Type
REMARK                         _______ _______ _______ _____ _____    ______ ____
ROOT
ATOM      1  N   UNL     1       4.206   6.188  18.231  0.00  0.00    +0.000 N 
ATOM      2  N   UNL     1       3.961   6.442  16.900  0.00  0.00    +0.000 NA
ATOM      3  N   UNL     1       4.795   6.106  16.028  0.00  0.00    +0.000 NA
ATOM      4  C   UNL     1       5.933   5.473  16.375  0.00  0.00    +0.000 A 
ATOM      5  C   UNL     1       7.010   4.950  15.683  0.00  0.00    +0.000 A 
ATOM      6  N   UNL     1       7.934   4.402  16.571  0.00  0.00    +0.000 NA
ATOM      7  C   UNL     1       7.408   4.587  17.763  0.00  0.00    +0.000 A 
ATOM      8  N   UNL     1       6.195   5.218  17.690  0.00  0.00    +0.000 N 
ATOM      9  C   UNL     1       5.335   5.557  18.718  0.00  0.00    +0.000 A 
ATOM     10  O   UNL     1       5.622   5.281  19.873  0.00  0.00    +0.000 OA
ENDROOT
BRANCH   5  11
ATOM     11  C   UNL     1       7.197   4.940  14.236  0.00  0.00    +0.000 C 
ATOM     12  N   UNL     1       6.328   4.119  13.578  0.00  0.00    +0.000 N 
ATOM     13  O   UNL     1       8.040   5.596  13.637  0.00  0.00    +0.000 OA
ATOM     14  H   UNL     1       5.636   3.595  14.100  0.00  0.00    +0.000 HD
ATOM     15  H   UNL     1       6.375   4.056  12.573  0.00  0.00    +0.000 HD
ENDBRANCH   5  11
BRANCH   1  16
ATOM     16  C   UNL     1       3.144   6.556  19.152  0.00  0.00    +0.000 C 
BRANCH  16  20
ATOM     17  C   UNL     1       1.233   2.567  21.702  0.00  0.00    +0.000 C 
ATOM     18  C   UNL     1       1.651   3.584  20.712  0.00  0.00    +0.000 A 
ATOM     19  C   UNL     1       2.355   4.789  20.934  0.00  0.00    +0.000 A 
ATOM     20  C   UNL     1       2.501   5.332  19.679  0.00  0.00    +0.000 A 
ATOM     21  O   UNL     1       1.908   4.516  18.768  0.00  0.00    +0.000 OA
ATOM     22  N   UNL     1       1.372   3.417  19.415  0.00  0.00    +0.000 NA
ENDBRANCH  16  20
ENDBRANCH   1  16
TORSDOF 3
ENDMDL
MODEL 8
REMARK VINA RESULT:      -7.4      2.025      6.504
REMARK  Name = 
REMARK  4 active torsions:
REMARK  status: ('A' for Active; 'I' for Inactive)
REMARK    1  A    between atoms: C_1  and  C_2
REMARK    2  A    between atoms: C_4  and  C_5
REMARK    3  A    between atoms: C_5  and  N_6
REMARK    4  A    between atoms: C_10  and  C_11
REMARK                            x       y       z     vdW  Elec       q    Type
REMARK                         _______ _______ _______ _____ _____    ______ ____
ROOT
ATOM      1  N   UNL     1       3.955   4.348  18.448  0.00  0.00    +0.000 N 
ATOM      2  N   UNL     1       3.526   4.309  17.139  0.00  0.00    +0.000 NA
ATOM      3  N   UNL     1       4.352   4.381  16.201  0.00  0.00    +0.000 NA
ATOM      4  C   UNL     1       5.673   4.474  16.455  0.00  0.00    +0.000 A 
ATOM      5  C   UNL     1       6.816   4.531  15.678  0.00  0.00    +0.000 A 
ATOM      6  N   UNL     1       7.945   4.636  16.489  0.00  0.00    +0.000 NA
ATOM      7  C   UNL     1       7.479   4.628  17.719  0.00  0.00    +0.000 A 
ATOM      8  N   UNL     1       6.114   4.519  17.746  0.00  0.00    +0.000 N 
ATOM      9  C   UNL     1       5.275   4.451  18.842  0.00  0.00    +0.000 A 
ATOM     10  O   UNL     1       5.739   4.477  19.972  0.00  0.00    +0.000 OA
ENDROOT
BRANCH   5  11
ATOM     11  C   UNL     1       6.884   4.486  14.222  0.00  0.00    +0.000 C 
ATOM     12  N   UNL     1       6.204   3.437  13.675  0.00  0.00    +0.000 N 
ATOM     13  O   UNL     1       7.483   5.296  13.526  0.00  0.00    +0.000 OA
ATOM     14  H   UNL     1       5.711   2.788  14.277  0.00  0.00    +0.000 HD
ATOM     15  H   UNL     1       6.186   3.330  12.673  0.00  0.00    +0.000 HD
ENDBRANCH   5  11
BRANCH   1  16
ATOM     16  C   UNL     1       2.921   4.189  19.457  0.00  0.00    +0.000 C 
BRANCH  16  20
ATOM     17  C   UNL     1       0.748   8.376  21.412  0.00  0.00    +0.000 C 
ATOM     18  C   UNL     1       1.501   7.366  20.636  0.00  0.00    +0.000 A 
ATOM     19  C   UNL     1       1.626   5.981  20.884  0.00  0.00    +0.000 A 
ATOM     20  C   UNL     1       2.407   5.520  19.850  0.00  0.00    +0.000 A 
ATOM     21  O   UNL     1       2.742   6.563  19.045  0.00  0.00    +0.000 OA
ATOM     22  N   UNL     1       2.175   7.725  19.538  0.00  0.00    +0.000 NA
ENDBRANCH  16  20
ENDBRANCH   1  16
TORSDOF 3
ENDMDL
MODEL 9
REMARK VINA RESULT:      -7.4      1.732      6.405
REMARK  Name = 
REMARK  4 active torsions:
REMARK  status: ('A' for Active; 'I' for Inactive)
REMARK    1  A    between atoms: C_1  and  C_2
REMARK    2  A    between atoms: C_4  and  C_5
REMARK    3  A    between atoms: C_5  and  N_6
REMARK    4  A    between atoms: C_10  and  C_11
REMARK                            x       y       z     vdW  Elec       q    Type
REMARK                         _______ _______ _______ _____ _____    ______ ____
ROOT
ATOM      1  N   UNL     1       4.278   6.181  18.223  0.00  0.00    +0.000 N 
ATOM      2  N   UNL     1       4.045   6.480  16.898  0.00  0.00    +0.000 NA
ATOM      3  N   UNL     1       4.881   6.159  16.022  0.00  0.00    +0.000 NA
ATOM      4  C   UNL     1       6.008   5.499  16.358  0.00  0.00    +0.000 A 
ATOM      5  C   UNL     1       7.082   4.982  15.657  0.00  0.00    +0.000 A 
ATOM      6  N   UNL     1       7.992   4.394  16.535  0.00  0.00    +0.000 NA
ATOM      7  C   UNL     1       7.459   4.550  17.728  0.00  0.00    +0.000 A 
ATOM      8  N   UNL     1       6.256   5.200  17.666  0.00  0.00    +0.000 N 
ATOM      9  C   UNL     1       5.393   5.520  18.698  0.00  0.00    +0.000 A 
ATOM     10  O   UNL     1       5.668   5.204  19.846  0.00  0.00    +0.000 OA
ENDROOT
BRANCH   5  11
ATOM     11  C   UNL     1       7.279   5.014  14.213  0.00  0.00    +0.000 C 
ATOM     12  N   UNL     1       6.415   4.213  13.524  0.00  0.00    +0.000 N 
ATOM     13  O   UNL     1       8.127   5.686  13.639  0.00  0.00    +0.000 OA
ATOM     14  H   UNL     1       5.719   3.675  14.026  0.00  0.00    +0.000 HD
ATOM     15  H   UNL     1       6.469   4.179  12.518  0.00  0.00    +0.000 HD
ENDBRANCH   5  11
BRANCH   1  16
ATOM     16  C   UNL     1       3.213   6.537  19.147  0.00  0.00    +0.000 C 
BRANCH  16  20
ATOM     17  C   UNL     1       0.358   2.304  19.168  0.00  0.00    +0.000 C 
ATOM     18  C   UNL     1       1.104   3.546  19.468  0.00  0.00    +0.000 A 
ATOM     19  C   UNL     1       1.944   4.295  18.614  0.00  0.00    +0.000 A 
ATOM     20  C   UNL     1       2.352   5.357  19.385  0.00  0.00    +0.000 A 
ATOM     21  O   UNL     1       1.806   5.243  20.626  0.00  0.00    +0.000 OA
ATOM     22  N   UNL     1       1.022   4.105  20.680  0.00  0.00    +0.000 NA
ENDBRANCH  16  20
ENDBRANCH   1  16
TORSDOF 3
ENDMDL
