MODEL 1
REMARK VINA RESULT:      -8.8      0.000      0.000
REMARK  Name = 
REMARK  4 active torsions:
REMARK  status: ('A' for Active; 'I' for Inactive)
REMARK    1  A    between atoms: C_6  and  C_7
REMARK    2  A    between atoms: C_7  and  C_8
REMARK    3  A    between atoms: C_8  and  C_9
REMARK    4  A    between atoms: C_9  and  C_11
REMARK                            x       y       z     vdW  Elec       q    Type
REMARK                         _______ _______ _______ _____ _____    ______ ____
ROOT
ATOM      1  C   UNL     1       1.892   5.236  20.425  0.00  0.00    +0.000 C 
ENDROOT
BRANCH   1   2
ATOM      2  C   UNL     1       2.637   6.272  19.605  0.00  0.00    +0.000 C 
ATOM      3  O   UNL     1       2.256   7.436  19.504  0.00  0.00    +0.000 OA
BRANCH   2   4
ATOM      4  C   UNL     1       3.865   5.838  18.884  0.00  0.00    +0.000 A 
ATOM      5  C   UNL     1       5.000   5.392  19.568  0.00  0.00    +0.000 A 
ATOM      6  C   UNL     1       6.122   4.970  18.849  0.00  0.00    +0.000 A 
ATOM      7  C   UNL     1       6.123   4.982  17.445  0.00  0.00    +0.000 A 
ATOM      8  C   UNL     1       7.237   4.544  16.710  0.00  0.00    +0.000 A 
ATOM      9  C   UNL     1       7.222   4.561  15.315  0.00  0.00    +0.000 A 
ATOM     10  C   UNL     1       6.097   5.022  14.636  0.00  0.00    +0.000 A 
ATOM     11  C   UNL     1       4.981   5.460  15.351  0.00  0.00    +0.000 A 
ATOM     12  C   UNL     1       4.979   5.443  16.755  0.00  0.00    +0.000 A 
ATOM     13  C   UNL     1       3.859   5.871  17.485  0.00  0.00    +0.000 A 
ENDBRANCH   2   4
ENDBRANCH   1   2
BRANCH   1  14
ATOM     14  C   UNL     1       1.074   4.285  19.544  0.00  0.00    +0.000 C 
BRANCH  14  20
ATOM     15  O   UNL     1       5.279   1.708  20.563  0.00  0.00    +0.000 OA
ATOM     16  C   UNL     1       4.143   2.097  20.322  0.00  0.00    +0.000 C 
ATOM     17  N   UNL     1       3.282   2.435  21.317  0.00  0.00    +0.000 N 
ATOM     18  C   UNL     1       1.934   2.565  21.171  0.00  0.00    +0.000 C 
ATOM     19  O   UNL     1       1.198   2.521  22.156  0.00  0.00    +0.000 OA
ATOM     20  C   UNL     1       1.405   2.801  19.778  0.00  0.00    +0.000 C 
ATOM     21  C   UNL     1       2.356   2.342  18.698  0.00  0.00    +0.000 C 
ATOM     22  O   UNL     1       1.999   2.178  17.533  0.00  0.00    +0.000 OA
ATOM     23  N   UNL     1       3.658   2.148  19.054  0.00  0.00    +0.000 N 
ATOM     24  H   UNL     1       3.618   2.277  22.258  0.00  0.00    +0.000 HD
ATOM     25  H   UNL     1       4.283   1.831  18.323  0.00  0.00    +0.000 HD
ENDBRANCH  14  20
ENDBRANCH   1  14
TORSDOF 4
ENDMDL
MODEL 2
REMARK VINA RESULT:      -8.5      0.855      1.676
REMARK  Name = 
REMARK  4 active torsions:
REMARK  status: ('A' for Active; 'I' for Inactive)
REMARK    1  A    between atoms: C_6  and  C_7
REMARK    2  A    between atoms: C_7  and  C_8
REMARK    3  A    between atoms: C_8  and  C_9
REMARK    4  A    between atoms: C_9  and  C_11
REMARK                            x       y       z     vdW  Elec       q    Type
REMARK                         _______ _______ _______ _____ _____    ______ ____
ROOT
ATOM      1  C   UNL     1       1.635   5.203  20.886  0.00  0.00    +0.000 C 
ENDROOT
BRANCH   1   2
ATOM      2  C   UNL     1       2.087   6.502  20.246  0.00  0.00    +0.000 C 
ATOM      3  O   UNL     1       1.642   7.596  20.582  0.00  0.00    +0.000 OA
BRANCH   2   4
ATOM      4  C   UNL     1       3.096   6.425  19.154  0.00  0.00    +0.000 A 
ATOM      5  C   UNL     1       2.959   7.159  17.973  0.00  0.00    +0.000 A 
ATOM      6  C   UNL     1       3.945   7.075  16.985  0.00  0.00    +0.000 A 
ATOM      7  C   UNL     1       5.077   6.265  17.166  0.00  0.00    +0.000 A 
ATOM      8  C   UNL     1       6.083   6.184  16.189  0.00  0.00    +0.000 A 
ATOM      9  C   UNL     1       7.202   5.375  16.384  0.00  0.00    +0.000 A 
ATOM     10  C   UNL     1       7.329   4.631  17.554  0.00  0.00    +0.000 A 
ATOM     11  C   UNL     1       6.338   4.698  18.535  0.00  0.00    +0.000 A 
ATOM     12  C   UNL     1       5.209   5.513  18.356  0.00  0.00    +0.000 A 
ATOM     13  C   UNL     1       4.212   5.600  19.340  0.00  0.00    +0.000 A 
ENDBRANCH   2   4
ENDBRANCH   1   2
BRANCH   1  14
ATOM     14  C   UNL     1       0.901   4.297  19.892  0.00  0.00    +0.000 C 
BRANCH  14  20
ATOM     15  O   UNL     1       5.228   1.790  20.486  0.00  0.00    +0.000 OA
ATOM     16  C   UNL     1       4.069   2.159  20.343  0.00  0.00    +0.000 C 
ATOM     17  N   UNL     1       3.269   2.420  21.410  0.00  0.00    +0.000 N 
ATOM     18  C   UNL     1       1.912   2.519  21.362  0.00  0.00    +0.000 C 
ATOM     19  O   UNL     1       1.246   2.403  22.390  0.00  0.00    +0.000 OA
ATOM     20  C   UNL     1       1.284   2.813  20.022  0.00  0.00    +0.000 C 
ATOM     21  C   UNL     1       2.169   2.438  18.858  0.00  0.00    +0.000 C 
ATOM     22  O   UNL     1       1.738   2.325  17.712  0.00  0.00    +0.000 OA
ATOM     23  N   UNL     1       3.497   2.263  19.115  0.00  0.00    +0.000 N 
ATOM     24  H   UNL     1       3.673   2.222  22.316  0.00  0.00    +0.000 HD
ATOM     25  H   UNL     1       4.078   2.002  18.328  0.00  0.00    +0.000 HD
ENDBRANCH  14  20
ENDBRANCH   1  14
TORSDOF 4
ENDMDL
MODEL 3
REMARK VINA RESULT:      -8.5      1.005      1.055
REMARK  Name = 
REMARK  4 active torsions:
REMARK  status: ('A' for Active; 'I' for Inactive)
REMARK    1  A    between atoms: C_6  and  C_7
REMARK    2  A    between atoms: C_7  and  C_8
REMARK    3  A    between atoms: C_8  and  C_9
REMARK    4  A    between atoms: C_9  and  C_11
REMARK                            x       y       z     vdW  Elec       q    Type
REMARK                         _______ _______ _______ _____ _____    ______ ____
ROOT
ATOM      1  C   UNL     1       2.156   5.236  20.739  0.00  0.00    +0.000 C 
ENDROOT
BRANCH   1   2
ATOM      2  C   UNL     1       2.684   6.167  19.665  0.00  0.00    +0.000 C 
ATOM      3  O   UNL     1       2.147   7.237  19.393  0.00  0.00    +0.000 OA
BRANCH   2   4
ATOM      4  C   UNL     1       3.892   5.739  18.907  0.00  0.00    +0.000 A 
ATOM      5  C   UNL     1       5.065   5.344  19.555  0.00  0.00    +0.000 A 
ATOM      6  C   UNL     1       6.167   4.926  18.802  0.00  0.00    +0.000 A 
ATOM      7  C   UNL     1       6.109   4.893  17.400  0.00  0.00    +0.000 A 
ATOM      8  C   UNL     1       7.202   4.459  16.632  0.00  0.00    +0.000 A 
ATOM      9  C   UNL     1       7.129   4.432  15.239  0.00  0.00    +0.000 A 
ATOM     10  C   UNL     1       5.965   4.843  14.595  0.00  0.00    +0.000 A 
ATOM     11  C   UNL     1       4.869   5.277  15.342  0.00  0.00    +0.000 A 
ATOM     12  C   UNL     1       4.926   5.304  16.745  0.00  0.00    +0.000 A 
ATOM     13  C   UNL     1       3.827   5.728  17.509  0.00  0.00    +0.000 A 
ENDBRANCH   2   4
ENDBRANCH   1   2
BRANCH   1  14
ATOM     14  C   UNL     1       0.961   4.410  20.249  0.00  0.00    +0.000 C 
BRANCH  14  20
ATOM     15  O   UNL     1       4.332   1.328  18.129  0.00  0.00    +0.000 OA
ATOM     16  C   UNL     1       3.416   1.855  18.748  0.00  0.00    +0.000 C 
ATOM     17  N   UNL     1       3.575   2.275  20.030  0.00  0.00    +0.000 N 
ATOM     18  C   UNL     1       2.558   2.569  20.886  0.00  0.00    +0.000 C 
ATOM     19  O   UNL     1       2.758   2.595  22.100  0.00  0.00    +0.000 OA
ATOM     20  C   UNL     1       1.213   2.893  20.283  0.00  0.00    +0.000 C 
ATOM     21  C   UNL     1       1.043   2.344  18.887  0.00  0.00    +0.000 C 
ATOM     22  O   UNL     1      -0.057   2.246  18.348  0.00  0.00    +0.000 OA
ATOM     23  N   UNL     1       2.175   1.988  18.214  0.00  0.00    +0.000 N 
ATOM     24  H   UNL     1       4.469   2.060  20.452  0.00  0.00    +0.000 HD
ATOM     25  H   UNL     1       2.046   1.612  17.283  0.00  0.00    +0.000 HD
ENDBRANCH  14  20
ENDBRANCH   1  14
TORSDOF 4
ENDMDL
MODEL 4
REMARK VINA RESULT:      -8.4      3.208      5.774
REMARK  Name = 
REMARK  4 active torsions:
REMARK  status: ('A' for Active; 'I' for Inactive)
REMARK    1  A    between atoms: C_6  and  C_7
REMARK    2  A    between atoms: C_7  and  C_8
REMARK    3  A    between atoms: C_8  and  C_9
REMARK    4  A    between atoms: C_9  and  C_11
REMARK                            x       y       z     vdW  Elec       q    Type
REMARK                         _______ _______ _______ _____ _____    ______ ____
ROOT
ATOM      1  C   UNL     1       2.666   5.691  18.788  0.00  0.00    +0.000 C 
ENDROOT
BRANCH   1   2
ATOM      2  C   UNL     1       2.854   7.113  18.297  0.00  0.00    +0.000 C 
ATOM      3  O   UNL     1       3.678   7.413  17.436  0.00  0.00    +0.000 OA
BRANCH   2   4
ATOM      4  C   UNL     1       2.013   8.178  18.908  0.00  0.00    +0.000 A 
ATOM      5  C   UNL     1       1.514   9.244  18.154  0.00  0.00    +0.000 A 
ATOM      6  C   UNL     1       0.707  10.208  18.766  0.00  0.00    +0.000 A 
ATOM      7  C   UNL     1       0.384  10.117  20.128  0.00  0.00    +0.000 A 
ATOM      8  C   UNL     1      -0.440  11.068  20.752  0.00  0.00    +0.000 A 
ATOM      9  C   UNL     1      -0.752  10.964  22.107  0.00  0.00    +0.000 A 
ATOM     10  C   UNL     1      -0.239   9.910  22.860  0.00  0.00    +0.000 A 
ATOM     11  C   UNL     1       0.581   8.956  22.258  0.00  0.00    +0.000 A 
ATOM     12  C   UNL     1       0.899   9.045  20.893  0.00  0.00    +0.000 A 
ATOM     13  C   UNL     1       1.713   8.085  20.272  0.00  0.00    +0.000 A 
ENDBRANCH   2   4
ENDBRANCH   1   2
BRANCH   1  14
ATOM     14  C   UNL     1       1.845   4.847  17.806  0.00  0.00    +0.000 C 
BRANCH  14  20
ATOM     15  O   UNL     1       4.979   1.869  20.389  0.00  0.00    +0.000 OA
ATOM     16  C   UNL     1       4.210   2.391  19.591  0.00  0.00    +0.000 C 
ATOM     17  N   UNL     1       2.865   2.232  19.694  0.00  0.00    +0.000 N 
ATOM     18  C   UNL     1       1.970   2.496  18.701  0.00  0.00    +0.000 C 
ATOM     19  O   UNL     1       0.842   2.005  18.738  0.00  0.00    +0.000 OA
ATOM     20  C   UNL     1       2.409   3.430  17.601  0.00  0.00    +0.000 C 
ATOM     21  C   UNL     1       3.909   3.522  17.465  0.00  0.00    +0.000 C 
ATOM     22  O   UNL     1       4.453   3.987  16.465  0.00  0.00    +0.000 OA
ATOM     23  N   UNL     1       4.659   3.101  18.524  0.00  0.00    +0.000 N 
ATOM     24  H   UNL     1       2.554   1.603  20.423  0.00  0.00    +0.000 HD
ATOM     25  H   UNL     1       5.664   3.158  18.416  0.00  0.00    +0.000 HD
ENDBRANCH  14  20
ENDBRANCH   1  14
TORSDOF 4
ENDMDL
MODEL 5
REMARK VINA RESULT:      -8.4      2.930      5.175
REMARK  Name = 
REMARK  4 active torsions:
REMARK  status: ('A' for Active; 'I' for Inactive)
REMARK    1  A    between atoms: C_6  and  C_7
REMARK    2  A    between atoms: C_7  and  C_8
REMARK    3  A    between atoms: C_8  and  C_9
REMARK    4  A    between atoms: C_9  and  C_11
REMARK                            x       y       z     vdW  Elec       q    Type
REMARK                         _______ _______ _______ _____ _____    ______ ____
ROOT
ATOM      1  C   UNL     1       1.917   5.324  20.761  0.00  0.00    +0.000 C 
ENDROOT
BRANCH   1   2
ATOM      2  C   UNL     1       2.656   6.165  19.738  0.00  0.00    +0.000 C 
ATOM      3  O   UNL     1       3.670   5.772  19.165  0.00  0.00    +0.000 OA
BRANCH   2   4
ATOM      4  C   UNL     1       2.128   7.525  19.443  0.00  0.00    +0.000 A 
ATOM      5  C   UNL     1       2.275   8.114  18.184  0.00  0.00    +0.000 A 
ATOM      6  C   UNL     1       1.741   9.384  17.946  0.00  0.00    +0.000 A 
ATOM      7  C   UNL     1       1.053  10.076  18.955  0.00  0.00    +0.000 A 
ATOM      8  C   UNL     1       0.497  11.345  18.724  0.00  0.00    +0.000 A 
ATOM      9  C   UNL     1      -0.185  12.020  19.737  0.00  0.00    +0.000 A 
ATOM     10  C   UNL     1      -0.314  11.439  20.996  0.00  0.00    +0.000 A 
ATOM     11  C   UNL     1       0.232  10.179  21.243  0.00  0.00    +0.000 A 
ATOM     12  C   UNL     1       0.915   9.485  20.231  0.00  0.00    +0.000 A 
ATOM     13  C   UNL     1       1.460   8.212  20.463  0.00  0.00    +0.000 A 
ENDBRANCH   2   4
ENDBRANCH   1   2
BRANCH   1  14
ATOM     14  C   UNL     1       0.858   4.426  20.111  0.00  0.00    +0.000 C 
BRANCH  14  20
ATOM     15  O   UNL     1       5.210   1.902  20.347  0.00  0.00    +0.000 OA
ATOM     16  C   UNL     1       4.045   2.275  20.271  0.00  0.00    +0.000 C 
ATOM     17  N   UNL     1       3.274   2.428  21.379  0.00  0.00    +0.000 N 
ATOM     18  C   UNL     1       1.916   2.522  21.377  0.00  0.00    +0.000 C 
ATOM     19  O   UNL     1       1.278   2.303  22.406  0.00  0.00    +0.000 OA
ATOM     20  C   UNL     1       1.250   2.939  20.088  0.00  0.00    +0.000 C 
ATOM     21  C   UNL     1       2.105   2.683  18.871  0.00  0.00    +0.000 C 
ATOM     22  O   UNL     1       1.643   2.677  17.731  0.00  0.00    +0.000 OA
ATOM     23  N   UNL     1       3.440   2.493  19.074  0.00  0.00    +0.000 N 
ATOM     24  H   UNL     1       3.703   2.147  22.251  0.00  0.00    +0.000 HD
ATOM     25  H   UNL     1       4.001   2.312  18.250  0.00  0.00    +0.000 HD
ENDBRANCH  14  20
ENDBRANCH   1  14
TORSDOF 4
ENDMDL
MODEL 6
REMARK VINA RESULT:      -8.3      4.066      6.809
REMARK  Name = 
REMARK  4 active torsions:
REMARK  status: ('A' for Active; 'I' for Inactive)
REMARK    1  A    between atoms: C_6  and  C_7
REMARK    2  A    between atoms: C_7  and  C_8
REMARK    3  A    between atoms: C_8  and  C_9
REMARK    4  A    between atoms: C_9  and  C_11
REMARK                            x       y       z     vdW  Elec       q    Type
REMARK                         _______ _______ _______ _____ _____    ______ ____
ROOT
ATOM      1  C   UNL     1       2.423   6.783  17.974  0.00  0.00    +0.000 C 
ENDROOT
BRANCH   1   2
ATOM      2  C   UNL     1       2.093   8.251  18.158  0.00  0.00    +0.000 C 
ATOM      3  O   UNL     1       2.361   9.101  17.312  0.00  0.00    +0.000 OA
BRANCH   2   4
ATOM      4  C   UNL     1       1.438   8.663  19.429  0.00  0.00    +0.000 A 
ATOM      5  C   UNL     1       1.620   7.947  20.616  0.00  0.00    +0.000 A 
ATOM      6  C   UNL     1       1.005   8.386  21.792  0.00  0.00    +0.000 A 
ATOM      7  C   UNL     1       0.209   9.542  21.800  0.00  0.00    +0.000 A 
ATOM      8  C   UNL     1      -0.401  10.004  22.978  0.00  0.00    +0.000 A 
ATOM      9  C   UNL     1      -1.188  11.155  22.969  0.00  0.00    +0.000 A 
ATOM     10  C   UNL     1      -1.382  11.857  21.783  0.00  0.00    +0.000 A 
ATOM     11  C   UNL     1      -0.784  11.413  20.603  0.00  0.00    +0.000 A 
ATOM     12  C   UNL     1       0.016  10.259  20.597  0.00  0.00    +0.000 A 
ATOM     13  C   UNL     1       0.634   9.808  19.420  0.00  0.00    +0.000 A 
ENDBRANCH   2   4
ENDBRANCH   1   2
BRANCH   1  14
ATOM     14  C   UNL     1       3.925   6.509  18.110  0.00  0.00    +0.000 C 
BRANCH  14  20
ATOM     15  O   UNL     1       8.339   4.183  17.420  0.00  0.00    +0.000 OA
ATOM     16  C   UNL     1       7.184   4.592  17.391  0.00  0.00    +0.000 C 
ATOM     17  N   UNL     1       6.206   4.011  18.134  0.00  0.00    +0.000 N 
ATOM     18  C   UNL     1       4.870   4.180  17.933  0.00  0.00    +0.000 C 
ATOM     19  O   UNL     1       4.067   3.370  18.395  0.00  0.00    +0.000 OA
ATOM     20  C   UNL     1       4.432   5.404  17.167  0.00  0.00    +0.000 C 
ATOM     21  C   UNL     1       5.521   5.977  16.293  0.00  0.00    +0.000 C 
ATOM     22  O   UNL     1       5.288   6.776  15.388  0.00  0.00    +0.000 OA
ATOM     23  N   UNL     1       6.804   5.604  16.568  0.00  0.00    +0.000 N 
ATOM     24  H   UNL     1       6.482   3.186  18.649  0.00  0.00    +0.000 HD
ATOM     25  H   UNL     1       7.524   5.987  15.968  0.00  0.00    +0.000 HD
ENDBRANCH  14  20
ENDBRANCH   1  14
TORSDOF 4
ENDMDL
MODEL 7
REMARK VINA RESULT:      -8.3      1.793      3.161
REMARK  Name = 
REMARK  4 active torsions:
REMARK  status: ('A' for Active; 'I' for Inactive)
REMARK    1  A    between atoms: C_6  and  C_7
REMARK    2  A    between atoms: C_7  and  C_8
REMARK    3  A    between atoms: C_8  and  C_9
REMARK    4  A    between atoms: C_9  and  C_11
REMARK                            x       y       z     vdW  Elec       q    Type
REMARK                         _______ _______ _______ _____ _____    ______ ____
ROOT
ATOM      1  C   UNL     1       3.805   3.140  17.953  0.00  0.00    +0.000 C 
ENDROOT
BRANCH   1   2
ATOM      2  C   UNL     1       5.017   4.046  18.055  0.00  0.00    +0.000 C 
ATOM      3  O   UNL     1       5.397   4.526  19.120  0.00  0.00    +0.000 OA
BRANCH   2   4
ATOM      4  C   UNL     1       5.749   4.372  16.801  0.00  0.00    +0.000 A 
ATOM      5  C   UNL     1       6.845   5.239  16.793  0.00  0.00    +0.000 A 
ATOM      6  C   UNL     1       7.518   5.497  15.596  0.00  0.00    +0.000 A 
ATOM      7  C   UNL     1       7.111   4.891  14.397  0.00  0.00    +0.000 A 
ATOM      8  C   UNL     1       7.789   5.127  13.189  0.00  0.00    +0.000 A 
ATOM      9  C   UNL     1       7.372   4.516  12.007  0.00  0.00    +0.000 A 
ATOM     10  C   UNL     1       6.269   3.666  12.013  0.00  0.00    +0.000 A 
ATOM     11  C   UNL     1       5.584   3.420  13.203  0.00  0.00    +0.000 A 
ATOM     12  C   UNL     1       5.996   4.023  14.403  0.00  0.00    +0.000 A 
ATOM     13  C   UNL     1       5.322   3.774  15.609  0.00  0.00    +0.000 A 
ENDBRANCH   2   4
ENDBRANCH   1   2
BRANCH   1  14
ATOM     14  C   UNL     1       2.567   3.889  17.449  0.00  0.00    +0.000 C 
BRANCH  14  20
ATOM     15  O   UNL     1       2.322   2.973  22.395  0.00  0.00    +0.000 OA
ATOM     16  C   UNL     1       2.144   3.304  21.229  0.00  0.00    +0.000 C 
ATOM     17  N   UNL     1       2.530   4.524  20.771  0.00  0.00    +0.000 N 
ATOM     18  C   UNL     1       2.098   5.093  19.611  0.00  0.00    +0.000 C 
ATOM     19  O   UNL     1       2.203   6.308  19.441  0.00  0.00    +0.000 OA
ATOM     20  C   UNL     1       1.536   4.176  18.554  0.00  0.00    +0.000 C 
ATOM     21  C   UNL     1       1.046   2.861  19.111  0.00  0.00    +0.000 C 
ATOM     22  O   UNL     1       0.302   2.114  18.478  0.00  0.00    +0.000 OA
ATOM     23  N   UNL     1       1.494   2.501  20.348  0.00  0.00    +0.000 N 
ATOM     24  H   UNL     1       2.903   5.154  21.468  0.00  0.00    +0.000 HD
ATOM     25  H   UNL     1       1.150   1.622  20.714  0.00  0.00    +0.000 HD
ENDBRANCH  14  20
ENDBRANCH   1  14
TORSDOF 4
ENDMDL
MODEL 8
REMARK VINA RESULT:      -8.3      1.588      2.985
REMARK  Name = 
REMARK  4 active torsions:
REMARK  status: ('A' for Active; 'I' for Inactive)
REMARK    1  A    between atoms: C_6  and  C_7
REMARK    2  A    between atoms: C_7  and  C_8
REMARK    3  A    between atoms: C_8  and  C_9
REMARK    4  A    between atoms: C_9  and  C_11
REMARK                            x       y       z     vdW  Elec       q    Type
REMARK                         _______ _______ _______ _____ _____    ______ ____
ROOT
ATOM      1  C   UNL     1       4.254   5.666  18.893  0.00  0.00    +0.000 C 
ENDROOT
BRANCH   1   2
ATOM      2  C   UNL     1       5.107   4.516  18.394  0.00  0.00    +0.000 C 
ATOM      3  O   UNL     1       5.283   3.489  19.046  0.00  0.00    +0.000 OA
BRANCH   2   4
ATOM      4  C   UNL     1       5.765   4.663  17.067  0.00  0.00    +0.000 A 
ATOM      5  C   UNL     1       6.924   5.427  16.902  0.00  0.00    +0.000 A 
ATOM      6  C   UNL     1       7.523   5.517  15.642  0.00  0.00    +0.000 A 
ATOM      7  C   UNL     1       6.978   4.844  14.537  0.00  0.00    +0.000 A 
ATOM      8  C   UNL     1       7.578   4.911  13.269  0.00  0.00    +0.000 A 
ATOM      9  C   UNL     1       7.025   4.236  12.181  0.00  0.00    +0.000 A 
ATOM     10  C   UNL     1       5.861   3.489  12.344  0.00  0.00    +0.000 A 
ATOM     11  C   UNL     1       5.251   3.411  13.597  0.00  0.00    +0.000 A 
ATOM     12  C   UNL     1       5.800   4.081  14.702  0.00  0.00    +0.000 A 
ATOM     13  C   UNL     1       5.202   4.001  15.970  0.00  0.00    +0.000 A 
ENDBRANCH   2   4
ENDBRANCH   1   2
BRANCH   1  14
ATOM     14  C   UNL     1       2.893   5.720  18.190  0.00  0.00    +0.000 C 
BRANCH  14  20
ATOM     15  O   UNL     1       2.637   2.534  22.081  0.00  0.00    +0.000 OA
ATOM     16  C   UNL     1       2.436   3.310  21.155  0.00  0.00    +0.000 C 
ATOM     17  N   UNL     1       2.367   4.652  21.356  0.00  0.00    +0.000 N 
ATOM     18  C   UNL     1       1.842   5.547  20.473  0.00  0.00    +0.000 C 
ATOM     19  O   UNL     1       1.495   6.663  20.856  0.00  0.00    +0.000 OA
ATOM     20  C   UNL     1       1.749   5.124  19.027  0.00  0.00    +0.000 C 
ATOM     21  C   UNL     1       1.750   3.625  18.848  0.00  0.00    +0.000 C 
ATOM     22  O   UNL     1       1.393   3.087  17.802  0.00  0.00    +0.000 OA
ATOM     23  N   UNL     1       2.205   2.872  19.890  0.00  0.00    +0.000 N 
ATOM     24  H   UNL     1       2.422   4.953  22.320  0.00  0.00    +0.000 HD
ATOM     25  H   UNL     1       2.191   1.867  19.761  0.00  0.00    +0.000 HD
ENDBRANCH  14  20
ENDBRANCH   1  14
TORSDOF 4
ENDMDL
MODEL 9
REMARK VINA RESULT:      -8.3      2.717      5.401
REMARK  Name = 
REMARK  4 active torsions:
REMARK  status: ('A' for Active; 'I' for Inactive)
REMARK    1  A    between atoms: C_6  and  C_7
REMARK    2  A    between atoms: C_7  and  C_8
REMARK    3  A    between atoms: C_8  and  C_9
REMARK    4  A    between atoms: C_9  and  C_11
REMARK                            x       y       z     vdW  Elec       q    Type
REMARK                         _______ _______ _______ _____ _____    ______ ____
ROOT
ATOM      1  C   UNL     1       2.117   4.748  17.929  0.00  0.00    +0.000 C 
ENDROOT
BRANCH   1   2
ATOM      2  C   UNL     1       3.004   5.891  18.382  0.00  0.00    +0.000 C 
ATOM      3  O   UNL     1       4.225   5.789  18.468  0.00  0.00    +0.000 OA
BRANCH   2   4
ATOM      4  C   UNL     1       2.348   7.175  18.753  0.00  0.00    +0.000 A 
ATOM      5  C   UNL     1       2.093   8.171  17.805  0.00  0.00    +0.000 A 
ATOM      6  C   UNL     1       1.453   9.351  18.194  0.00  0.00    +0.000 A 
ATOM      7  C   UNL     1       1.056   9.549  19.526  0.00  0.00    +0.000 A 
ATOM      8  C   UNL     1       0.396  10.722  19.928  0.00  0.00    +0.000 A 
ATOM      9  C   UNL     1       0.007  10.903  21.255  0.00  0.00    +0.000 A 
ATOM     10  C   UNL     1       0.278   9.918  22.201  0.00  0.00    +0.000 A 
ATOM     11  C   UNL     1       0.933   8.746  21.820  0.00  0.00    +0.000 A 
ATOM     12  C   UNL     1       1.324   8.547  20.486  0.00  0.00    +0.000 A 
ATOM     13  C   UNL     1       1.973   7.367  20.087  0.00  0.00    +0.000 A 
ENDBRANCH   2   4
ENDBRANCH   1   2
BRANCH   1  14
ATOM     14  C   UNL     1       2.927   3.494  17.582  0.00  0.00    +0.000 C 
BRANCH  14  20
ATOM     15  O   UNL     1       1.557   2.986  22.401  0.00  0.00    +0.000 OA
ATOM     16  C   UNL     1       1.883   2.846  21.229  0.00  0.00    +0.000 C 
ATOM     17  N   UNL     1       0.957   2.780  20.237  0.00  0.00    +0.000 N 
ATOM     18  C   UNL     1       1.193   2.316  18.978  0.00  0.00    +0.000 C 
ATOM     19  O   UNL     1       0.256   1.960  18.264  0.00  0.00    +0.000 OA
ATOM     20  C   UNL     1       2.624   2.299  18.501  0.00  0.00    +0.000 C 
ATOM     21  C   UNL     1       3.625   2.293  19.631  0.00  0.00    +0.000 C 
ATOM     22  O   UNL     1       4.805   1.989  19.465  0.00  0.00    +0.000 OA
ATOM     23  N   UNL     1       3.181   2.681  20.861  0.00  0.00    +0.000 N 
ATOM     24  H   UNL     1      -0.008   2.785  20.540  0.00  0.00    +0.000 HD
ATOM     25  H   UNL     1       3.859   2.663  21.612  0.00  0.00    +0.000 HD
ENDBRANCH  14  20
ENDBRANCH   1  14
TORSDOF 4
ENDMDL
