MODEL 1
REMARK VINA RESULT:      -7.9      0.000      0.000
REMARK  Name = 
REMARK  3 active torsions:
REMARK  status: ('A' for Active; 'I' for Inactive)
REMARK    1  A    between atoms: C_1  and  O_2
REMARK    2  A    between atoms: O_2  and  C_3
REMARK    3  A    between atoms: C_9  and  C_10
REMARK                            x       y       z     vdW  Elec       q    Type
REMARK                         _______ _______ _______ _____ _____    ______ ____
ROOT
ATOM      1  C   UNL     1       5.864   4.151  14.311  0.00  0.00    +0.000 A 
ATOM      2  C   UNL     1       7.137   4.906  14.516  0.00  0.00    +0.000 A 
ATOM      3  N   UNL     1       7.578   5.399  15.628  0.00  0.00    +0.000 NA
ATOM      4  N   UNL     1       6.754   5.160  16.671  0.00  0.00    +0.000 N 
ATOM      5  N   UNL     1       7.100   5.594  17.889  0.00  0.00    +0.000 NA
ATOM      6  C   UNL     1       6.129   5.136  18.677  0.00  0.00    +0.000 A 
ATOM      7  C   UNL     1       5.123   4.423  17.977  0.00  0.00    +0.000 A 
ATOM      8  C   UNL     1       5.553   4.473  16.660  0.00  0.00    +0.000 A 
ATOM      9  C   UNL     1       5.099   4.000  15.402  0.00  0.00    +0.000 A 
ENDROOT
BRANCH   7  10
ATOM     10  C   UNL     1       3.940   3.747  18.488  0.00  0.00    +0.000 A 
ATOM     11  C   UNL     1       3.701   2.383  18.270  0.00  0.00    +0.000 A 
ATOM     12  C   UNL     1       2.567   1.790  18.808  0.00  0.00    +0.000 A 
ATOM     13  N   UNL     1       1.652   2.406  19.580  0.00  0.00    +0.000 NA
ATOM     14  C   UNL     1       1.933   3.704  19.789  0.00  0.00    +0.000 A 
ATOM     15  N   UNL     1       1.165   4.524  20.573  0.00  0.00    +0.000 N 
ATOM     16  C   UNL     1       1.700   5.786  20.582  0.00  0.00    +0.000 A 
ATOM     17  C   UNL     1       2.821   5.771  19.780  0.00  0.00    +0.000 A 
ATOM     18  C   UNL     1       3.007   4.441  19.294  0.00  0.00    +0.000 A 
ATOM     19  H   UNL     1       0.339   4.215  21.060  0.00  0.00    +0.000 HD
ENDBRANCH   7  10
BRANCH   1  21
ATOM     20  C   UNL     1       6.476   3.458  12.129  0.00  0.00    +0.000 C 
ATOM     21  O   UNL     1       5.446   3.665  13.090  0.00  0.00    +0.000 OA
ENDBRANCH   1  21
TORSDOF 2
ENDMDL
MODEL 2
REMARK VINA RESULT:      -7.9      2.346      6.124
REMARK  Name = 
REMARK  3 active torsions:
REMARK  status: ('A' for Active; 'I' for Inactive)
REMARK    1  A    between atoms: C_1  and  O_2
REMARK    2  A    between atoms: O_2  and  C_3
REMARK    3  A    between atoms: C_9  and  C_10
REMARK                            x       y       z     vdW  Elec       q    Type
REMARK                         _______ _______ _______ _____ _____    ______ ____
ROOT
ATOM      1  C   UNL     1       1.892   5.497  20.202  0.00  0.00    +0.000 A 
ATOM      2  C   UNL     1       1.195   4.243  20.619  0.00  0.00    +0.000 A 
ATOM      3  N   UNL     1       1.397   3.052  20.156  0.00  0.00    +0.000 NA
ATOM      4  N   UNL     1       2.357   3.013  19.207  0.00  0.00    +0.000 N 
ATOM      5  N   UNL     1       2.686   1.837  18.658  0.00  0.00    +0.000 NA
ATOM      6  C   UNL     1       3.690   2.139  17.838  0.00  0.00    +0.000 A 
ATOM      7  C   UNL     1       4.009   3.520  17.821  0.00  0.00    +0.000 A 
ATOM      8  C   UNL     1       3.104   4.069  18.716  0.00  0.00    +0.000 A 
ATOM      9  C   UNL     1       2.802   5.357  19.227  0.00  0.00    +0.000 A 
ENDROOT
BRANCH   7  10
ATOM     10  C   UNL     1       5.056   4.221  17.093  0.00  0.00    +0.000 A 
ATOM     11  C   UNL     1       5.065   4.315  15.693  0.00  0.00    +0.000 A 
ATOM     12  C   UNL     1       6.077   5.021  15.059  0.00  0.00    +0.000 A 
ATOM     13  N   UNL     1       7.074   5.684  15.674  0.00  0.00    +0.000 NA
ATOM     14  C   UNL     1       7.014   5.594  17.014  0.00  0.00    +0.000 A 
ATOM     15  N   UNL     1       7.900   6.218  17.852  0.00  0.00    +0.000 N 
ATOM     16  C   UNL     1       7.585   5.929  19.154  0.00  0.00    +0.000 A 
ATOM     17  C   UNL     1       6.486   5.096  19.144  0.00  0.00    +0.000 A 
ATOM     18  C   UNL     1       6.084   4.901  17.787  0.00  0.00    +0.000 A 
ATOM     19  H   UNL     1       8.657   6.799  17.529  0.00  0.00    +0.000 HD
ENDBRANCH   7  10
BRANCH   1  21
ATOM     20  C   UNL     1       1.932   7.846  19.886  0.00  0.00    +0.000 C 
ATOM     21  O   UNL     1       1.616   6.742  20.729  0.00  0.00    +0.000 OA
ENDBRANCH   1  21
TORSDOF 2
ENDMDL
MODEL 3
REMARK VINA RESULT:      -7.9      2.352      6.519
REMARK  Name = 
REMARK  3 active torsions:
REMARK  status: ('A' for Active; 'I' for Inactive)
REMARK    1  A    between atoms: C_1  and  O_2
REMARK    2  A    between atoms: O_2  and  C_3
REMARK    3  A    between atoms: C_9  and  C_10
REMARK                            x       y       z     vdW  Elec       q    Type
REMARK                         _______ _______ _______ _____ _____    ______ ____
ROOT
ATOM      1  C   UNL     1       1.746   5.476  20.345  0.00  0.00    +0.000 A 
ATOM      2  C   UNL     1       1.033   4.166  20.438  0.00  0.00    +0.000 A 
ATOM      3  N   UNL     1       1.336   3.072  19.818  0.00  0.00    +0.000 NA
ATOM      4  N   UNL     1       2.425   3.199  19.029  0.00  0.00    +0.000 N 
ATOM      5  N   UNL     1       2.865   2.135  18.346  0.00  0.00    +0.000 NA
ATOM      6  C   UNL     1       3.969   2.576  17.746  0.00  0.00    +0.000 A 
ATOM      7  C   UNL     1       4.246   3.942  18.008  0.00  0.00    +0.000 A 
ATOM      8  C   UNL     1       3.203   4.327  18.838  0.00  0.00    +0.000 A 
ATOM      9  C   UNL     1       2.792   5.508  19.506  0.00  0.00    +0.000 A 
ENDROOT
BRANCH   7  10
ATOM     10  C   UNL     1       5.366   4.760  17.571  0.00  0.00    +0.000 A 
ATOM     11  C   UNL     1       6.063   5.609  18.444  0.00  0.00    +0.000 A 
ATOM     12  C   UNL     1       7.142   6.343  17.972  0.00  0.00    +0.000 A 
ATOM     13  N   UNL     1       7.632   6.298  16.720  0.00  0.00    +0.000 NA
ATOM     14  C   UNL     1       6.956   5.453  15.922  0.00  0.00    +0.000 A 
ATOM     15  N   UNL     1       7.295   5.214  14.617  0.00  0.00    +0.000 N 
ATOM     16  C   UNL     1       6.414   4.319  14.069  0.00  0.00    +0.000 A 
ATOM     17  C   UNL     1       5.491   3.992  15.039  0.00  0.00    +0.000 A 
ATOM     18  C   UNL     1       5.843   4.678  16.242  0.00  0.00    +0.000 A 
ATOM     19  H   UNL     1       8.082   5.645  14.158  0.00  0.00    +0.000 HD
ENDBRANCH   7  10
BRANCH   1  21
ATOM     20  C   UNL     1       1.710   7.846  20.404  0.00  0.00    +0.000 C 
ATOM     21  O   UNL     1       1.360   6.613  21.025  0.00  0.00    +0.000 OA
ENDBRANCH   1  21
TORSDOF 2
ENDMDL
MODEL 4
REMARK VINA RESULT:      -7.7      1.164      1.361
REMARK  Name = 
REMARK  3 active torsions:
REMARK  status: ('A' for Active; 'I' for Inactive)
REMARK    1  A    between atoms: C_1  and  O_2
REMARK    2  A    between atoms: O_2  and  C_3
REMARK    3  A    between atoms: C_9  and  C_10
REMARK                            x       y       z     vdW  Elec       q    Type
REMARK                         _______ _______ _______ _____ _____    ______ ____
ROOT
ATOM      1  C   UNL     1       6.202   3.830  13.217  0.00  0.00    +0.000 A 
ATOM      2  C   UNL     1       7.413   4.704  13.214  0.00  0.00    +0.000 A 
ATOM      3  N   UNL     1       7.817   5.475  14.172  0.00  0.00    +0.000 NA
ATOM      4  N   UNL     1       7.016   5.426  15.258  0.00  0.00    +0.000 N 
ATOM      5  N   UNL     1       7.329   6.157  16.335  0.00  0.00    +0.000 NA
ATOM      6  C   UNL     1       6.398   5.826  17.227  0.00  0.00    +0.000 A 
ATOM      7  C   UNL     1       5.448   4.896  16.732  0.00  0.00    +0.000 A 
ATOM      8  C   UNL     1       5.871   4.668  15.431  0.00  0.00    +0.000 A 
ATOM      9  C   UNL     1       5.452   3.882  14.327  0.00  0.00    +0.000 A 
ENDROOT
BRANCH   7  10
ATOM     10  C   UNL     1       4.321   4.273  17.409  0.00  0.00    +0.000 A 
ATOM     11  C   UNL     1       4.042   2.902  17.299  0.00  0.00    +0.000 A 
ATOM     12  C   UNL     1       2.968   2.363  17.993  0.00  0.00    +0.000 A 
ATOM     13  N   UNL     1       2.153   3.038  18.823  0.00  0.00    +0.000 NA
ATOM     14  C   UNL     1       2.470   4.341  18.924  0.00  0.00    +0.000 A 
ATOM     15  N   UNL     1       1.805   5.219  19.739  0.00  0.00    +0.000 N 
ATOM     16  C   UNL     1       2.353   6.469  19.614  0.00  0.00    +0.000 A 
ATOM     17  C   UNL     1       3.377   6.387  18.695  0.00  0.00    +0.000 A 
ATOM     18  C   UNL     1       3.492   5.028  18.271  0.00  0.00    +0.000 A 
ATOM     19  H   UNL     1       1.035   4.953  20.331  0.00  0.00    +0.000 HD
ENDBRANCH   7  10
BRANCH   1  21
ATOM     20  C   UNL     1       4.489   3.245  11.686  0.00  0.00    +0.000 C 
ATOM     21  O   UNL     1       5.820   3.042  12.151  0.00  0.00    +0.000 OA
ENDBRANCH   1  21
TORSDOF 2
ENDMDL
MODEL 5
REMARK VINA RESULT:      -7.7      2.349      6.221
REMARK  Name = 
REMARK  3 active torsions:
REMARK  status: ('A' for Active; 'I' for Inactive)
REMARK    1  A    between atoms: C_1  and  O_2
REMARK    2  A    between atoms: O_2  and  C_3
REMARK    3  A    between atoms: C_9  and  C_10
REMARK                            x       y       z     vdW  Elec       q    Type
REMARK                         _______ _______ _______ _____ _____    ______ ____
ROOT
ATOM      1  C   UNL     1       2.190   6.509  19.926  0.00  0.00    +0.000 A 
ATOM      2  C   UNL     1       1.663   5.453  20.842  0.00  0.00    +0.000 A 
ATOM      3  N   UNL     1       1.918   4.185  20.793  0.00  0.00    +0.000 NA
ATOM      4  N   UNL     1       2.761   3.858  19.790  0.00  0.00    +0.000 N 
ATOM      5  N   UNL     1       3.129   2.580  19.637  0.00  0.00    +0.000 NA
ATOM      6  C   UNL     1       4.000   2.618  18.630  0.00  0.00    +0.000 A 
ATOM      7  C   UNL     1       4.188   3.918  18.095  0.00  0.00    +0.000 A 
ATOM      8  C   UNL     1       3.346   4.706  18.866  0.00  0.00    +0.000 A 
ATOM      9  C   UNL     1       2.989   6.076  18.941  0.00  0.00    +0.000 A 
ENDROOT
BRANCH   7  10
ATOM     10  C   UNL     1       5.075   4.363  17.032  0.00  0.00    +0.000 A 
ATOM     11  C   UNL     1       4.928   3.938  15.703  0.00  0.00    +0.000 A 
ATOM     12  C   UNL     1       5.790   4.421  14.728  0.00  0.00    +0.000 A 
ATOM     13  N   UNL     1       6.771   5.321  14.927  0.00  0.00    +0.000 NA
ATOM     14  C   UNL     1       6.861   5.724  16.206  0.00  0.00    +0.000 A 
ATOM     15  N   UNL     1       7.760   6.663  16.640  0.00  0.00    +0.000 N 
ATOM     16  C   UNL     1       7.614   6.852  17.989  0.00  0.00    +0.000 A 
ATOM     17  C   UNL     1       6.613   6.010  18.424  0.00  0.00    +0.000 A 
ATOM     18  C   UNL     1       6.094   5.309  17.293  0.00  0.00    +0.000 A 
ATOM     19  H   UNL     1       8.415   7.128  16.032  0.00  0.00    +0.000 HD
ENDBRANCH   7  10
BRANCH   1  21
ATOM     20  C   UNL     1       1.159   8.216  21.208  0.00  0.00    +0.000 C 
ATOM     21  O   UNL     1       1.864   7.846  20.027  0.00  0.00    +0.000 OA
ENDBRANCH   1  21
TORSDOF 2
ENDMDL
MODEL 6
REMARK VINA RESULT:      -7.7      0.754      2.135
REMARK  Name = 
REMARK  3 active torsions:
REMARK  status: ('A' for Active; 'I' for Inactive)
REMARK    1  A    between atoms: C_1  and  O_2
REMARK    2  A    between atoms: O_2  and  C_3
REMARK    3  A    between atoms: C_9  and  C_10
REMARK                            x       y       z     vdW  Elec       q    Type
REMARK                         _______ _______ _______ _____ _____    ______ ____
ROOT
ATOM      1  C   UNL     1       5.652   4.315  15.066  0.00  0.00    +0.000 A 
ATOM      2  C   UNL     1       7.132   4.415  15.240  0.00  0.00    +0.000 A 
ATOM      3  N   UNL     1       7.770   4.667  16.337  0.00  0.00    +0.000 NA
ATOM      4  N   UNL     1       6.948   4.839  17.395  0.00  0.00    +0.000 N 
ATOM      5  N   UNL     1       7.476   5.084  18.600  0.00  0.00    +0.000 NA
ATOM      6  C   UNL     1       6.420   5.124  19.409  0.00  0.00    +0.000 A 
ATOM      7  C   UNL     1       5.186   4.935  18.735  0.00  0.00    +0.000 A 
ATOM      8  C   UNL     1       5.566   4.770  17.411  0.00  0.00    +0.000 A 
ATOM      9  C   UNL     1       4.922   4.539  16.169  0.00  0.00    +0.000 A 
ENDROOT
BRANCH   7  10
ATOM     10  C   UNL     1       3.836   4.874  19.273  0.00  0.00    +0.000 A 
ATOM     11  C   UNL     1       3.200   5.989  19.837  0.00  0.00    +0.000 A 
ATOM     12  C   UNL     1       1.900   5.873  20.309  0.00  0.00    +0.000 A 
ATOM     13  N   UNL     1       1.140   4.764  20.246  0.00  0.00    +0.000 NA
ATOM     14  C   UNL     1       1.775   3.726  19.674  0.00  0.00    +0.000 A 
ATOM     15  N   UNL     1       1.189   2.505  19.467  0.00  0.00    +0.000 N 
ATOM     16  C   UNL     1       2.089   1.656  18.877  0.00  0.00    +0.000 A 
ATOM     17  C   UNL     1       3.272   2.346  18.716  0.00  0.00    +0.000 A 
ATOM     18  C   UNL     1       3.079   3.682  19.185  0.00  0.00    +0.000 A 
ATOM     19  H   UNL     1       0.237   2.295  19.719  0.00  0.00    +0.000 HD
ENDBRANCH   7  10
BRANCH   1  21
ATOM     20  C   UNL     1       5.890   3.578  12.826  0.00  0.00    +0.000 C 
ATOM     21  O   UNL     1       5.035   4.056  13.859  0.00  0.00    +0.000 OA
ENDBRANCH   1  21
TORSDOF 2
ENDMDL
MODEL 7
REMARK VINA RESULT:      -7.6      0.757      2.150
REMARK  Name = 
REMARK  3 active torsions:
REMARK  status: ('A' for Active; 'I' for Inactive)
REMARK    1  A    between atoms: C_1  and  O_2
REMARK    2  A    between atoms: O_2  and  C_3
REMARK    3  A    between atoms: C_9  and  C_10
REMARK                            x       y       z     vdW  Elec       q    Type
REMARK                         _______ _______ _______ _____ _____    ______ ____
ROOT
ATOM      1  C   UNL     1       5.592   4.321  14.165  0.00  0.00    +0.000 A 
ATOM      2  C   UNL     1       7.014   4.777  14.112  0.00  0.00    +0.000 A 
ATOM      3  N   UNL     1       7.682   5.348  15.061  0.00  0.00    +0.000 NA
ATOM      4  N   UNL     1       6.958   5.509  16.190  0.00  0.00    +0.000 N 
ATOM      5  N   UNL     1       7.535   6.067  17.262  0.00  0.00    +0.000 NA
ATOM      6  C   UNL     1       6.590   6.007  18.198  0.00  0.00    +0.000 A 
ATOM      7  C   UNL     1       5.376   5.437  17.739  0.00  0.00    +0.000 A 
ATOM      8  C   UNL     1       5.644   5.137  16.412  0.00  0.00    +0.000 A 
ATOM      9  C   UNL     1       4.949   4.561  15.318  0.00  0.00    +0.000 A 
ENDROOT
BRANCH   7  10
ATOM     10  C   UNL     1       4.144   5.168  18.466  0.00  0.00    +0.000 A 
ATOM     11  C   UNL     1       3.356   6.192  19.014  0.00  0.00    +0.000 A 
ATOM     12  C   UNL     1       2.177   5.872  19.672  0.00  0.00    +0.000 A 
ATOM     13  N   UNL     1       1.671   4.634  19.816  0.00  0.00    +0.000 NA
ATOM     14  C   UNL     1       2.440   3.685  19.254  0.00  0.00    +0.000 A 
ATOM     15  N   UNL     1       2.110   2.356  19.241  0.00  0.00    +0.000 N 
ATOM     16  C   UNL     1       3.093   1.642  18.607  0.00  0.00    +0.000 A 
ATOM     17  C   UNL     1       4.072   2.532  18.220  0.00  0.00    +0.000 A 
ATOM     18  C   UNL     1       3.656   3.847  18.592  0.00  0.00    +0.000 A 
ATOM     19  H   UNL     1       1.261   1.989  19.643  0.00  0.00    +0.000 HD
ENDBRANCH   7  10
BRANCH   1  21
ATOM     20  C   UNL     1       5.772   3.161  12.107  0.00  0.00    +0.000 C 
ATOM     21  O   UNL     1       4.933   3.731  13.107  0.00  0.00    +0.000 OA
ENDBRANCH   1  21
TORSDOF 2
ENDMDL
MODEL 8
REMARK VINA RESULT:      -7.5      1.745      2.353
REMARK  Name = 
REMARK  3 active torsions:
REMARK  status: ('A' for Active; 'I' for Inactive)
REMARK    1  A    between atoms: C_1  and  O_2
REMARK    2  A    between atoms: O_2  and  C_3
REMARK    3  A    between atoms: C_9  and  C_10
REMARK                            x       y       z     vdW  Elec       q    Type
REMARK                         _______ _______ _______ _____ _____    ______ ____
ROOT
ATOM      1  C   UNL     1       5.622   3.419  12.391  0.00  0.00    +0.000 A 
ATOM      2  C   UNL     1       6.961   4.031  12.137  0.00  0.00    +0.000 A 
ATOM      3  N   UNL     1       7.650   4.759  12.954  0.00  0.00    +0.000 NA
ATOM      4  N   UNL     1       7.036   4.936  14.144  0.00  0.00    +0.000 N 
ATOM      5  N   UNL     1       7.649   5.652  15.095  0.00  0.00    +0.000 NA
ATOM      6  C   UNL     1       6.825   5.568  16.138  0.00  0.00    +0.000 A 
ATOM      7  C   UNL     1       5.651   4.819  15.870  0.00  0.00    +0.000 A 
ATOM      8  C   UNL     1       5.811   4.435  14.547  0.00  0.00    +0.000 A 
ATOM      9  C   UNL     1       5.081   3.685  13.589  0.00  0.00    +0.000 A 
ENDROOT
BRANCH   7  10
ATOM     10  C   UNL     1       4.548   4.476  16.755  0.00  0.00    +0.000 A 
ATOM     11  C   UNL     1       4.193   3.148  17.033  0.00  0.00    +0.000 A 
ATOM     12  C   UNL     1       3.149   2.885  17.908  0.00  0.00    +0.000 A 
ATOM     13  N   UNL     1       2.433   3.810  18.574  0.00  0.00    +0.000 NA
ATOM     14  C   UNL     1       2.823   5.068  18.303  0.00  0.00    +0.000 A 
ATOM     15  N   UNL     1       2.266   6.173  18.891  0.00  0.00    +0.000 N 
ATOM     16  C   UNL     1       2.865   7.306  18.403  0.00  0.00    +0.000 A 
ATOM     17  C   UNL     1       3.811   6.915  17.481  0.00  0.00    +0.000 A 
ATOM     18  C   UNL     1       3.825   5.487  17.430  0.00  0.00    +0.000 A 
ATOM     19  H   UNL     1       1.530   6.127  19.577  0.00  0.00    +0.000 HD
ENDBRANCH   7  10
BRANCH   1  21
ATOM     20  C   UNL     1       3.743   3.254  10.955  0.00  0.00    +0.000 C 
ATOM     21  O   UNL     1       4.934   2.661  11.466  0.00  0.00    +0.000 OA
ENDBRANCH   1  21
TORSDOF 2
ENDMDL
MODEL 9
REMARK VINA RESULT:      -7.5      4.255      7.050
REMARK  Name = 
REMARK  3 active torsions:
REMARK  status: ('A' for Active; 'I' for Inactive)
REMARK    1  A    between atoms: C_1  and  O_2
REMARK    2  A    between atoms: O_2  and  C_3
REMARK    3  A    between atoms: C_9  and  C_10
REMARK                            x       y       z     vdW  Elec       q    Type
REMARK                         _______ _______ _______ _____ _____    ______ ____
ROOT
ATOM      1  C   UNL     1       0.882   9.498  21.586  0.00  0.00    +0.000 A 
ATOM      2  C   UNL     1       0.689  10.535  20.528  0.00  0.00    +0.000 A 
ATOM      3  N   UNL     1       1.025  10.445  19.282  0.00  0.00    +0.000 NA
ATOM      4  N   UNL     1       1.596   9.260  18.976  0.00  0.00    +0.000 N 
ATOM      5  N   UNL     1       1.971   9.022  17.713  0.00  0.00    +0.000 NA
ATOM      6  C   UNL     1       2.415   7.767  17.744  0.00  0.00    +0.000 A 
ATOM      7  C   UNL     1       2.362   7.181  19.035  0.00  0.00    +0.000 A 
ATOM      8  C   UNL     1       1.837   8.193  19.824  0.00  0.00    +0.000 A 
ATOM      9  C   UNL     1       1.492   8.371  21.188  0.00  0.00    +0.000 A 
ENDROOT
BRANCH   7  10
ATOM     10  C   UNL     1       2.716   5.835  19.457  0.00  0.00    +0.000 A 
ATOM     11  C   UNL     1       1.839   5.021  20.189  0.00  0.00    +0.000 A 
ATOM     12  C   UNL     1       2.225   3.735  20.538  0.00  0.00    +0.000 A 
ATOM     13  N   UNL     1       3.389   3.148  20.203  0.00  0.00    +0.000 NA
ATOM     14  C   UNL     1       4.189   3.950  19.478  0.00  0.00    +0.000 A 
ATOM     15  N   UNL     1       5.408   3.558  18.992  0.00  0.00    +0.000 N 
ATOM     16  C   UNL     1       5.986   4.594  18.306  0.00  0.00    +0.000 A 
ATOM     17  C   UNL     1       5.125   5.668  18.367  0.00  0.00    +0.000 A 
ATOM     18  C   UNL     1       3.954   5.265  19.080  0.00  0.00    +0.000 A 
ATOM     19  H   UNL     1       5.793   2.637  19.132  0.00  0.00    +0.000 HD
ENDBRANCH   7  10
BRANCH   1  21
ATOM     20  C   UNL     1      -0.753  10.285  23.110  0.00  0.00    +0.000 C 
ATOM     21  O   UNL     1       0.513   9.666  22.904  0.00  0.00    +0.000 OA
ENDBRANCH   1  21
TORSDOF 2
ENDMDL
