MODEL 1
REMARK VINA RESULT:      -7.7      0.000      0.000
REMARK  Name = 
REMARK  7 active torsions:
REMARK  status: ('A' for Active; 'I' for Inactive)
REMARK    1  A    between atoms: C_1  and  O_2
REMARK    2  A    between atoms: O_2  and  C_3
REMARK    3  A    between atoms: C_6  and  C_7
REMARK    4  A    between atoms: N_9  and  C_10
REMARK    5  A    between atoms: C_11  and  C_12
REMARK    6  A    between atoms: C_16  and  C_17
REMARK    7  A    between atoms: C_21  and  C_22
REMARK                            x       y       z     vdW  Elec       q    Type
REMARK                         _______ _______ _______ _____ _____    ______ ____
ROOT
ATOM      1  C   UNL     1       1.457  10.572  18.490  0.00  0.00    +0.000 A 
ATOM      2  C   UNL     1       2.279   9.844  17.623  0.00  0.00    +0.000 A 
ATOM      3  C   UNL     1       2.618   8.527  17.925  0.00  0.00    +0.000 A 
ATOM      4  C   UNL     1       2.139   7.938  19.099  0.00  0.00    +0.000 A 
ATOM      5  C   UNL     1       1.298   8.672  19.994  0.00  0.00    +0.000 A 
ATOM      6  C   UNL     1       0.766   8.154  21.195  0.00  0.00    +0.000 A 
ATOM      7  C   UNL     1      -0.041   8.923  22.029  0.00  0.00    +0.000 A 
ATOM      8  C   UNL     1      -0.309  10.229  21.670  0.00  0.00    +0.000 A 
ATOM      9  N   UNL     1       0.188  10.756  20.514  0.00  0.00    +0.000 NA
ATOM     10  C   UNL     1       0.966  10.016  19.687  0.00  0.00    +0.000 A 
ENDROOT
BRANCH   4  11
ATOM     11  C   UNL     1       2.482   6.502  19.343  0.00  0.00    +0.000 C 
ATOM     12  O   UNL     1       3.100   6.192  20.352  0.00  0.00    +0.000 OA
ATOM     13  N   UNL     1       2.091   5.611  18.345  0.00  0.00    +0.000 N 
ATOM     14  H   UNL     1       1.957   6.014  17.427  0.00  0.00    +0.000 HD
BRANCH  13  15
ATOM     15  C   UNL     1       2.439   4.233  18.394  0.00  0.00    +0.000 A 
ATOM     16  C   UNL     1       1.756   3.314  19.209  0.00  0.00    +0.000 A 
ATOM     17  C   UNL     1       0.535   3.615  20.026  0.00  0.00    +0.000 C 
ATOM     18  C   UNL     1       2.240   2.007  19.241  0.00  0.00    +0.000 A 
ATOM     19  N   UNL     1       3.282   1.555  18.515  0.00  0.00    +0.000 NA
ATOM     20  C   UNL     1       3.884   2.451  17.711  0.00  0.00    +0.000 A 
ATOM     21  C   UNL     1       3.509   3.788  17.595  0.00  0.00    +0.000 A 
ATOM     22  C   UNL     1       4.311   4.699  16.715  0.00  0.00    +0.000 C 
ENDBRANCH  13  15
ENDBRANCH   4  11
BRANCH   8  23
ATOM     23  C   UNL     1      -1.157  11.105  22.585  0.00  0.00    +0.000 C 
ATOM     24  F   UNL     1      -0.469  12.177  23.089  0.00  0.00    +0.000 F 
ATOM     25  F   UNL     1      -2.242  11.646  21.958  0.00  0.00    +0.000 F 
ATOM     26  F   UNL     1      -1.639  10.446  23.676  0.00  0.00    +0.000 F 
ENDBRANCH   8  23
BRANCH   1  28
ATOM     27  C   UNL     1       2.153  12.851  18.327  0.00  0.00    +0.000 C 
ATOM     28  O   UNL     1       1.112  11.888  18.242  0.00  0.00    +0.000 OA
ENDBRANCH   1  28
TORSDOF 4
ENDMDL
MODEL 2
REMARK VINA RESULT:      -7.6      3.662      7.560
REMARK  Name = 
REMARK  7 active torsions:
REMARK  status: ('A' for Active; 'I' for Inactive)
REMARK    1  A    between atoms: C_1  and  O_2
REMARK    2  A    between atoms: O_2  and  C_3
REMARK    3  A    between atoms: C_6  and  C_7
REMARK    4  A    between atoms: N_9  and  C_10
REMARK    5  A    between atoms: C_11  and  C_12
REMARK    6  A    between atoms: C_16  and  C_17
REMARK    7  A    between atoms: C_21  and  C_22
REMARK                            x       y       z     vdW  Elec       q    Type
REMARK                         _______ _______ _______ _____ _____    ______ ____
ROOT
ATOM      1  C   UNL     1       4.032   6.233  17.741  0.00  0.00    +0.000 A 
ATOM      2  C   UNL     1       3.936   7.508  17.173  0.00  0.00    +0.000 A 
ATOM      3  C   UNL     1       3.002   8.420  17.659  0.00  0.00    +0.000 A 
ATOM      4  C   UNL     1       2.158   8.056  18.713  0.00  0.00    +0.000 A 
ATOM      5  C   UNL     1       2.247   6.756  19.303  0.00  0.00    +0.000 A 
ATOM      6  C   UNL     1       1.439   6.307  20.372  0.00  0.00    +0.000 A 
ATOM      7  C   UNL     1       1.568   5.025  20.896  0.00  0.00    +0.000 A 
ATOM      8  C   UNL     1       2.501   4.172  20.340  0.00  0.00    +0.000 A 
ATOM      9  N   UNL     1       3.297   4.577  19.309  0.00  0.00    +0.000 NA
ATOM     10  C   UNL     1       3.191   5.828  18.795  0.00  0.00    +0.000 A 
ENDROOT
BRANCH   4  11
ATOM     11  C   UNL     1       1.219   9.095  19.238  0.00  0.00    +0.000 C 
ATOM     12  O   UNL     1       0.285   9.471  18.542  0.00  0.00    +0.000 OA
ATOM     13  N   UNL     1       1.518   9.596  20.503  0.00  0.00    +0.000 N 
ATOM     14  H   UNL     1       2.485   9.509  20.791  0.00  0.00    +0.000 HD
BRANCH  13  15
ATOM     15  C   UNL     1       0.773  10.658  21.084  0.00  0.00    +0.000 A 
ATOM     16  C   UNL     1       0.967  12.001  20.716  0.00  0.00    +0.000 A 
ATOM     17  C   UNL     1       1.869  12.481  19.617  0.00  0.00    +0.000 C 
ATOM     18  C   UNL     1       0.240  12.965  21.412  0.00  0.00    +0.000 A 
ATOM     19  N   UNL     1      -0.663  12.699  22.377  0.00  0.00    +0.000 NA
ATOM     20  C   UNL     1      -0.856  11.400  22.673  0.00  0.00    +0.000 A 
ATOM     21  C   UNL     1      -0.188  10.341  22.062  0.00  0.00    +0.000 A 
ATOM     22  C   UNL     1      -0.445   8.943  22.537  0.00  0.00    +0.000 C 
ENDBRANCH  13  15
ENDBRANCH   4  11
BRANCH   8  23
ATOM     23  C   UNL     1       2.635   2.749  20.871  0.00  0.00    +0.000 C 
ATOM     24  F   UNL     1       2.078   2.586  22.112  0.00  0.00    +0.000 F 
ATOM     25  F   UNL     1       2.016   1.821  20.083  0.00  0.00    +0.000 F 
ATOM     26  F   UNL     1       3.926   2.335  21.002  0.00  0.00    +0.000 F 
ENDBRANCH   8  23
BRANCH   1  28
ATOM     27  C   UNL     1       5.537   5.545  16.020  0.00  0.00    +0.000 C 
ATOM     28  O   UNL     1       4.928   5.288  17.277  0.00  0.00    +0.000 OA
ENDBRANCH   1  28
TORSDOF 4
ENDMDL
MODEL 3
REMARK VINA RESULT:      -7.6      0.134      1.819
REMARK  Name = 
REMARK  7 active torsions:
REMARK  status: ('A' for Active; 'I' for Inactive)
REMARK    1  A    between atoms: C_1  and  O_2
REMARK    2  A    between atoms: O_2  and  C_3
REMARK    3  A    between atoms: C_6  and  C_7
REMARK    4  A    between atoms: N_9  and  C_10
REMARK    5  A    between atoms: C_11  and  C_12
REMARK    6  A    between atoms: C_16  and  C_17
REMARK    7  A    between atoms: C_21  and  C_22
REMARK                            x       y       z     vdW  Elec       q    Type
REMARK                         _______ _______ _______ _____ _____    ______ ____
ROOT
ATOM      1  C   UNL     1       1.405  10.547  18.456  0.00  0.00    +0.000 A 
ATOM      2  C   UNL     1       2.232   9.839  17.577  0.00  0.00    +0.000 A 
ATOM      3  C   UNL     1       2.618   8.536  17.878  0.00  0.00    +0.000 A 
ATOM      4  C   UNL     1       2.180   7.938  19.065  0.00  0.00    +0.000 A 
ATOM      5  C   UNL     1       1.335   8.651  19.972  0.00  0.00    +0.000 A 
ATOM      6  C   UNL     1       0.843   8.124  21.187  0.00  0.00    +0.000 A 
ATOM      7  C   UNL     1       0.029   8.873  22.032  0.00  0.00    +0.000 A 
ATOM      8  C   UNL     1      -0.286  10.168  21.671  0.00  0.00    +0.000 A 
ATOM      9  N   UNL     1       0.171  10.704  20.503  0.00  0.00    +0.000 NA
ATOM     10  C   UNL     1       0.956   9.982  19.665  0.00  0.00    +0.000 A 
ENDROOT
BRANCH   4  11
ATOM     11  C   UNL     1       2.572   6.515  19.308  0.00  0.00    +0.000 C 
ATOM     12  O   UNL     1       3.306   6.243  20.249  0.00  0.00    +0.000 OA
ATOM     13  N   UNL     1       2.085   5.589  18.388  0.00  0.00    +0.000 N 
ATOM     14  H   UNL     1       1.841   5.962  17.479  0.00  0.00    +0.000 HD
BRANCH  13  15
ATOM     15  C   UNL     1       2.458   4.218  18.436  0.00  0.00    +0.000 A 
ATOM     16  C   UNL     1       3.489   3.692  17.637  0.00  0.00    +0.000 A 
ATOM     17  C   UNL     1       4.388   4.490  16.739  0.00  0.00    +0.000 C 
ATOM     18  C   UNL     1       3.711   2.317  17.706  0.00  0.00    +0.000 A 
ATOM     19  N   UNL     1       3.041   1.470  18.512  0.00  0.00    +0.000 NA
ATOM     20  C   UNL     1       2.091   2.015  19.295  0.00  0.00    +0.000 A 
ATOM     21  C   UNL     1       1.763   3.368  19.315  0.00  0.00    +0.000 A 
ATOM     22  C   UNL     1       0.633   3.833  20.185  0.00  0.00    +0.000 C 
ENDBRANCH  13  15
ENDBRANCH   4  11
BRANCH   8  23
ATOM     23  C   UNL     1      -1.143  11.022  22.600  0.00  0.00    +0.000 C 
ATOM     24  F   UNL     1      -1.597  10.334  23.693  0.00  0.00    +0.000 F 
ATOM     25  F   UNL     1      -0.473  12.096  23.112  0.00  0.00    +0.000 F 
ATOM     26  F   UNL     1      -2.261  11.522  22.002  0.00  0.00    +0.000 F 
ENDBRANCH   8  23
BRANCH   1  28
ATOM     27  C   UNL     1       2.010  12.854  18.344  0.00  0.00    +0.000 C 
ATOM     28  O   UNL     1       1.015  11.850  18.208  0.00  0.00    +0.000 OA
ENDBRANCH   1  28
TORSDOF 4
ENDMDL
MODEL 4
REMARK VINA RESULT:      -7.6      3.905      7.584
REMARK  Name = 
REMARK  7 active torsions:
REMARK  status: ('A' for Active; 'I' for Inactive)
REMARK    1  A    between atoms: C_1  and  O_2
REMARK    2  A    between atoms: O_2  and  C_3
REMARK    3  A    between atoms: C_6  and  C_7
REMARK    4  A    between atoms: N_9  and  C_10
REMARK    5  A    between atoms: C_11  and  C_12
REMARK    6  A    between atoms: C_16  and  C_17
REMARK    7  A    between atoms: C_21  and  C_22
REMARK                            x       y       z     vdW  Elec       q    Type
REMARK                         _______ _______ _______ _____ _____    ______ ____
ROOT
ATOM      1  C   UNL     1       4.057   6.105  17.633  0.00  0.00    +0.000 A 
ATOM      2  C   UNL     1       3.987   7.385  17.072  0.00  0.00    +0.000 A 
ATOM      3  C   UNL     1       3.105   8.328  17.592  0.00  0.00    +0.000 A 
ATOM      4  C   UNL     1       2.285   7.991  18.674  0.00  0.00    +0.000 A 
ATOM      5  C   UNL     1       2.347   6.686  19.257  0.00  0.00    +0.000 A 
ATOM      6  C   UNL     1       1.562   6.263  20.352  0.00  0.00    +0.000 A 
ATOM      7  C   UNL     1       1.662   4.974  20.869  0.00  0.00    +0.000 A 
ATOM      8  C   UNL     1       2.544   4.091  20.278  0.00  0.00    +0.000 A 
ATOM      9  N   UNL     1       3.318   4.471  19.221  0.00  0.00    +0.000 NA
ATOM     10  C   UNL     1       3.238   5.726  18.714  0.00  0.00    +0.000 A 
ENDROOT
BRANCH   4  11
ATOM     11  C   UNL     1       1.403   9.061  19.234  0.00  0.00    +0.000 C 
ATOM     12  O   UNL     1       1.068   9.013  20.410  0.00  0.00    +0.000 OA
ATOM     13  N   UNL     1       0.986  10.035  18.329  0.00  0.00    +0.000 N 
ATOM     14  H   UNL     1       0.995   9.759  17.355  0.00  0.00    +0.000 HD
BRANCH  13  15
ATOM     15  C   UNL     1       0.065  11.053  18.696  0.00  0.00    +0.000 A 
ATOM     16  C   UNL     1       0.447  12.174  19.454  0.00  0.00    +0.000 A 
ATOM     17  C   UNL     1       1.849  12.507  19.871  0.00  0.00    +0.000 C 
ATOM     18  C   UNL     1      -0.559  13.064  19.828  0.00  0.00    +0.000 A 
ATOM     19  N   UNL     1      -1.856  12.950  19.478  0.00  0.00    +0.000 NA
ATOM     20  C   UNL     1      -2.178  11.889  18.715  0.00  0.00    +0.000 A 
ATOM     21  C   UNL     1      -1.274  10.922  18.283  0.00  0.00    +0.000 A 
ATOM     22  C   UNL     1      -1.778   9.750  17.496  0.00  0.00    +0.000 C 
ENDBRANCH  13  15
ENDBRANCH   4  11
BRANCH   8  23
ATOM     23  C   UNL     1       2.644   2.661  20.800  0.00  0.00    +0.000 C 
ATOM     24  F   UNL     1       2.094   1.741  19.948  0.00  0.00    +0.000 F 
ATOM     25  F   UNL     1       3.931   2.246  20.985  0.00  0.00    +0.000 F 
ATOM     26  F   UNL     1       2.008   2.471  21.990  0.00  0.00    +0.000 F 
ENDBRANCH   8  23
BRANCH   1  28
ATOM     27  C   UNL     1       5.417   5.335  15.828  0.00  0.00    +0.000 C 
ATOM     28  O   UNL     1       4.901   5.130  17.135  0.00  0.00    +0.000 OA
ENDBRANCH   1  28
TORSDOF 4
ENDMDL
MODEL 5
REMARK VINA RESULT:      -7.6      3.613      7.335
REMARK  Name = 
REMARK  7 active torsions:
REMARK  status: ('A' for Active; 'I' for Inactive)
REMARK    1  A    between atoms: C_1  and  O_2
REMARK    2  A    between atoms: O_2  and  C_3
REMARK    3  A    between atoms: C_6  and  C_7
REMARK    4  A    between atoms: N_9  and  C_10
REMARK    5  A    between atoms: C_11  and  C_12
REMARK    6  A    between atoms: C_16  and  C_17
REMARK    7  A    between atoms: C_21  and  C_22
REMARK                            x       y       z     vdW  Elec       q    Type
REMARK                         _______ _______ _______ _____ _____    ______ ____
ROOT
ATOM      1  C   UNL     1       4.339   5.444  17.703  0.00  0.00    +0.000 A 
ATOM      2  C   UNL     1       4.492   6.630  16.976  0.00  0.00    +0.000 A 
ATOM      3  C   UNL     1       3.691   7.733  17.263  0.00  0.00    +0.000 A 
ATOM      4  C   UNL     1       2.731   7.650  18.276  0.00  0.00    +0.000 A 
ATOM      5  C   UNL     1       2.565   6.444  19.027  0.00  0.00    +0.000 A 
ATOM      6  C   UNL     1       1.626   6.275  20.068  0.00  0.00    +0.000 A 
ATOM      7  C   UNL     1       1.507   5.071  20.756  0.00  0.00    +0.000 A 
ATOM      8  C   UNL     1       2.322   4.017  20.393  0.00  0.00    +0.000 A 
ATOM      9  N   UNL     1       3.240   4.150  19.393  0.00  0.00    +0.000 NA
ATOM     10  C   UNL     1       3.375   5.321  18.721  0.00  0.00    +0.000 A 
ENDROOT
BRANCH   4  11
ATOM     11  C   UNL     1       1.943   8.883  18.585  0.00  0.00    +0.000 C 
ATOM     12  O   UNL     1       2.312   9.962  18.141  0.00  0.00    +0.000 OA
ATOM     13  N   UNL     1       0.838   8.701  19.415  0.00  0.00    +0.000 N 
ATOM     14  H   UNL     1       0.869   7.884  20.012  0.00  0.00    +0.000 HD
BRANCH  13  15
ATOM     15  C   UNL     1       0.059   9.798  19.874  0.00  0.00    +0.000 A 
ATOM     16  C   UNL     1      -0.843  10.481  19.039  0.00  0.00    +0.000 A 
ATOM     17  C   UNL     1      -1.187  10.095  17.630  0.00  0.00    +0.000 C 
ATOM     18  C   UNL     1      -1.489  11.594  19.572  0.00  0.00    +0.000 A 
ATOM     19  N   UNL     1      -1.347  12.032  20.839  0.00  0.00    +0.000 NA
ATOM     20  C   UNL     1      -0.510  11.328  21.625  0.00  0.00    +0.000 A 
ATOM     21  C   UNL     1       0.206  10.206  21.212  0.00  0.00    +0.000 A 
ATOM     22  C   UNL     1       1.160   9.556  22.169  0.00  0.00    +0.000 C 
ENDBRANCH  13  15
ENDBRANCH   4  11
BRANCH   8  23
ATOM     23  C   UNL     1       2.183   2.675  21.105  0.00  0.00    +0.000 C 
ATOM     24  F   UNL     1       1.801   1.662  20.266  0.00  0.00    +0.000 F 
ATOM     25  F   UNL     1       3.348   2.244  21.671  0.00  0.00    +0.000 F 
ATOM     26  F   UNL     1       1.256   2.681  22.103  0.00  0.00    +0.000 F 
ENDBRANCH   8  23
BRANCH   1  28
ATOM     27  C   UNL     1       5.393   4.050  16.076  0.00  0.00    +0.000 C 
ATOM     28  O   UNL     1       5.096   4.318  17.439  0.00  0.00    +0.000 OA
ENDBRANCH   1  28
TORSDOF 4
ENDMDL
MODEL 6
REMARK VINA RESULT:      -7.5      3.597      7.555
REMARK  Name = 
REMARK  7 active torsions:
REMARK  status: ('A' for Active; 'I' for Inactive)
REMARK    1  A    between atoms: C_1  and  O_2
REMARK    2  A    between atoms: O_2  and  C_3
REMARK    3  A    between atoms: C_6  and  C_7
REMARK    4  A    between atoms: N_9  and  C_10
REMARK    5  A    between atoms: C_11  and  C_12
REMARK    6  A    between atoms: C_16  and  C_17
REMARK    7  A    between atoms: C_21  and  C_22
REMARK                            x       y       z     vdW  Elec       q    Type
REMARK                         _______ _______ _______ _____ _____    ______ ____
ROOT
ATOM      1  C   UNL     1       4.494   5.596  17.929  0.00  0.00    +0.000 A 
ATOM      2  C   UNL     1       4.600   6.786  17.199  0.00  0.00    +0.000 A 
ATOM      3  C   UNL     1       3.652   7.792  17.364  0.00  0.00    +0.000 A 
ATOM      4  C   UNL     1       2.592   7.609  18.258  0.00  0.00    +0.000 A 
ATOM      5  C   UNL     1       2.473   6.399  19.010  0.00  0.00    +0.000 A 
ATOM      6  C   UNL     1       1.440   6.133  19.937  0.00  0.00    +0.000 A 
ATOM      7  C   UNL     1       1.375   4.929  20.632  0.00  0.00    +0.000 A 
ATOM      8  C   UNL     1       2.341   3.971  20.391  0.00  0.00    +0.000 A 
ATOM      9  N   UNL     1       3.352   4.201  19.505  0.00  0.00    +0.000 NA
ATOM     10  C   UNL     1       3.434   5.373  18.828  0.00  0.00    +0.000 A 
ENDROOT
BRANCH   4  11
ATOM     11  C   UNL     1       1.639   8.747  18.444  0.00  0.00    +0.000 C 
ATOM     12  O   UNL     1       0.836   9.013  17.559  0.00  0.00    +0.000 OA
ATOM     13  N   UNL     1       1.776   9.462  19.633  0.00  0.00    +0.000 N 
ATOM     14  H   UNL     1       2.685   9.406  20.074  0.00  0.00    +0.000 HD
BRANCH  13  15
ATOM     15  C   UNL     1       1.008  10.628  19.898  0.00  0.00    +0.000 A 
ATOM     16  C   UNL     1       1.303  11.872  19.312  0.00  0.00    +0.000 A 
ATOM     17  C   UNL     1       2.357  12.115  18.272  0.00  0.00    +0.000 C 
ATOM     18  C   UNL     1       0.534  12.964  19.711  0.00  0.00    +0.000 A 
ATOM     19  N   UNL     1      -0.494  12.903  20.581  0.00  0.00    +0.000 NA
ATOM     20  C   UNL     1      -0.777  11.689  21.088  0.00  0.00    +0.000 A 
ATOM     21  C   UNL     1      -0.081  10.522  20.782  0.00  0.00    +0.000 A 
ATOM     22  C   UNL     1      -0.455   9.245  21.474  0.00  0.00    +0.000 C 
ENDBRANCH  13  15
ENDBRANCH   4  11
BRANCH   8  23
ATOM     23  C   UNL     1       2.269   2.629  21.111  0.00  0.00    +0.000 C 
ATOM     24  F   UNL     1       1.399   2.635  22.169  0.00  0.00    +0.000 F 
ATOM     25  F   UNL     1       1.841   1.611  20.308  0.00  0.00    +0.000 F 
ATOM     26  F   UNL     1       3.461   2.226  21.632  0.00  0.00    +0.000 F 
ENDBRANCH   8  23
BRANCH   1  28
ATOM     27  C   UNL     1       5.993   4.407  16.501  0.00  0.00    +0.000 C 
ATOM     28  O   UNL     1       5.399   4.562  17.781  0.00  0.00    +0.000 OA
ENDBRANCH   1  28
TORSDOF 4
ENDMDL
MODEL 7
REMARK VINA RESULT:      -7.4      3.714      7.450
REMARK  Name = 
REMARK  7 active torsions:
REMARK  status: ('A' for Active; 'I' for Inactive)
REMARK    1  A    between atoms: C_1  and  O_2
REMARK    2  A    between atoms: O_2  and  C_3
REMARK    3  A    between atoms: C_6  and  C_7
REMARK    4  A    between atoms: N_9  and  C_10
REMARK    5  A    between atoms: C_11  and  C_12
REMARK    6  A    between atoms: C_16  and  C_17
REMARK    7  A    between atoms: C_21  and  C_22
REMARK                            x       y       z     vdW  Elec       q    Type
REMARK                         _______ _______ _______ _____ _____    ______ ____
ROOT
ATOM      1  C   UNL     1       3.943   6.529  17.736  0.00  0.00    +0.000 A 
ATOM      2  C   UNL     1       3.761   7.820  17.227  0.00  0.00    +0.000 A 
ATOM      3  C   UNL     1       2.805   8.663  17.789  0.00  0.00    +0.000 A 
ATOM      4  C   UNL     1       2.026   8.214  18.859  0.00  0.00    +0.000 A 
ATOM      5  C   UNL     1       2.202   6.897  19.388  0.00  0.00    +0.000 A 
ATOM      6  C   UNL     1       1.464   6.365  20.469  0.00  0.00    +0.000 A 
ATOM      7  C   UNL     1       1.677   5.070  20.932  0.00  0.00    +0.000 A 
ATOM      8  C   UNL     1       2.627   4.289  20.303  0.00  0.00    +0.000 A 
ATOM      9  N   UNL     1       3.358   4.776  19.259  0.00  0.00    +0.000 NA
ATOM     10  C   UNL     1       3.168   6.039  18.804  0.00  0.00    +0.000 A 
ENDROOT
BRANCH   4  11
ATOM     11  C   UNL     1       1.059   9.181  19.465  0.00  0.00    +0.000 C 
ATOM     12  O   UNL     1      -0.002   9.409  18.900  0.00  0.00    +0.000 OA
ATOM     13  N   UNL     1       1.479   9.796  20.644  0.00  0.00    +0.000 N 
ATOM     14  H   UNL     1       2.481   9.831  20.786  0.00  0.00    +0.000 HD
BRANCH  13  15
ATOM     15  C   UNL     1       0.709  10.811  21.274  0.00  0.00    +0.000 A 
ATOM     16  C   UNL     1      -0.248  10.524  22.263  0.00  0.00    +0.000 A 
ATOM     17  C   UNL     1      -0.504   9.171  22.858  0.00  0.00    +0.000 C 
ATOM     18  C   UNL     1      -1.004  11.589  22.749  0.00  0.00    +0.000 A 
ATOM     19  N   UNL     1      -0.851  12.875  22.372  0.00  0.00    +0.000 NA
ATOM     20  C   UNL     1       0.104  13.120  21.456  0.00  0.00    +0.000 A 
ATOM     21  C   UNL     1       0.919  12.147  20.883  0.00  0.00    +0.000 A 
ATOM     22  C   UNL     1       1.898  12.547  19.820  0.00  0.00    +0.000 C 
ENDBRANCH  13  15
ENDBRANCH   4  11
BRANCH   8  23
ATOM     23  C   UNL     1       2.852   2.854  20.767  0.00  0.00    +0.000 C 
ATOM     24  F   UNL     1       4.149   2.441  20.618  0.00  0.00    +0.000 F 
ATOM     25  F   UNL     1       2.571   2.666  22.089  0.00  0.00    +0.000 F 
ATOM     26  F   UNL     1       2.105   1.939  20.087  0.00  0.00    +0.000 F 
ENDBRANCH   8  23
BRANCH   1  28
ATOM     27  C   UNL     1       5.284   5.901  15.863  0.00  0.00    +0.000 C 
ATOM     28  O   UNL     1       4.864   5.651  17.196  0.00  0.00    +0.000 OA
ENDBRANCH   1  28
TORSDOF 4
ENDMDL
MODEL 8
REMARK VINA RESULT:      -7.4      0.969      1.216
REMARK  Name = 
REMARK  7 active torsions:
REMARK  status: ('A' for Active; 'I' for Inactive)
REMARK    1  A    between atoms: C_1  and  O_2
REMARK    2  A    between atoms: O_2  and  C_3
REMARK    3  A    between atoms: C_6  and  C_7
REMARK    4  A    between atoms: N_9  and  C_10
REMARK    5  A    between atoms: C_11  and  C_12
REMARK    6  A    between atoms: C_16  and  C_17
REMARK    7  A    between atoms: C_21  and  C_22
REMARK                            x       y       z     vdW  Elec       q    Type
REMARK                         _______ _______ _______ _____ _____    ______ ____
ROOT
ATOM      1  C   UNL     1       1.326  10.644  18.634  0.00  0.00    +0.000 A 
ATOM      2  C   UNL     1       2.143   9.843  17.828  0.00  0.00    +0.000 A 
ATOM      3  C   UNL     1       2.424   8.532  18.205  0.00  0.00    +0.000 A 
ATOM      4  C   UNL     1       1.890   8.020  19.393  0.00  0.00    +0.000 A 
ATOM      5  C   UNL     1       1.053   8.829  20.224  0.00  0.00    +0.000 A 
ATOM      6  C   UNL     1       0.469   8.393  21.434  0.00  0.00    +0.000 A 
ATOM      7  C   UNL     1      -0.330   9.232  22.204  0.00  0.00    +0.000 A 
ATOM      8  C   UNL     1      -0.538  10.528  21.772  0.00  0.00    +0.000 A 
ATOM      9  N   UNL     1       0.010  10.977  20.607  0.00  0.00    +0.000 NA
ATOM     10  C   UNL     1       0.782  10.167  19.841  0.00  0.00    +0.000 A 
ENDROOT
BRANCH   4  11
ATOM     11  C   UNL     1       2.171   6.587  19.717  0.00  0.00    +0.000 C 
ATOM     12  O   UNL     1       1.942   6.167  20.843  0.00  0.00    +0.000 OA
ATOM     13  N   UNL     1       2.728   5.833  18.686  0.00  0.00    +0.000 N 
ATOM     14  H   UNL     1       3.218   6.360  17.974  0.00  0.00    +0.000 HD
BRANCH  13  15
ATOM     15  C   UNL     1       3.140   4.487  18.882  0.00  0.00    +0.000 A 
ATOM     16  C   UNL     1       2.243   3.407  18.805  0.00  0.00    +0.000 A 
ATOM     17  C   UNL     1       0.800   3.502  18.406  0.00  0.00    +0.000 C 
ATOM     18  C   UNL     1       2.743   2.140  19.100  0.00  0.00    +0.000 A 
ATOM     19  N   UNL     1       4.028   1.872  19.407  0.00  0.00    +0.000 NA
ATOM     20  C   UNL     1       4.869   2.923  19.428  0.00  0.00    +0.000 A 
ATOM     21  C   UNL     1       4.496   4.240  19.165  0.00  0.00    +0.000 A 
ATOM     22  C   UNL     1       5.520   5.328  19.292  0.00  0.00    +0.000 C 
ENDBRANCH  13  15
ENDBRANCH   4  11
BRANCH   8  23
ATOM     23  C   UNL     1      -1.378  11.480  22.618  0.00  0.00    +0.000 C 
ATOM     24  F   UNL     1      -2.386  12.076  21.910  0.00  0.00    +0.000 F 
ATOM     25  F   UNL     1      -1.999  10.862  23.665  0.00  0.00    +0.000 F 
ATOM     26  F   UNL     1      -0.662  12.507  23.154  0.00  0.00    +0.000 F 
ENDBRANCH   8  23
BRANCH   1  28
ATOM     27  C   UNL     1       2.128  12.869  18.303  0.00  0.00    +0.000 C 
ATOM     28  O   UNL     1       1.039  11.957  18.310  0.00  0.00    +0.000 OA
ENDBRANCH   1  28
TORSDOF 4
ENDMDL
MODEL 9
REMARK VINA RESULT:      -7.4      4.757      8.427
REMARK  Name = 
REMARK  7 active torsions:
REMARK  status: ('A' for Active; 'I' for Inactive)
REMARK    1  A    between atoms: C_1  and  O_2
REMARK    2  A    between atoms: O_2  and  C_3
REMARK    3  A    between atoms: C_6  and  C_7
REMARK    4  A    between atoms: N_9  and  C_10
REMARK    5  A    between atoms: C_11  and  C_12
REMARK    6  A    between atoms: C_16  and  C_17
REMARK    7  A    between atoms: C_21  and  C_22
REMARK                            x       y       z     vdW  Elec       q    Type
REMARK                         _______ _______ _______ _____ _____    ______ ____
ROOT
ATOM      1  C   UNL     1       3.148   4.980  19.783  0.00  0.00    +0.000 A 
ATOM      2  C   UNL     1       2.148   5.647  20.500  0.00  0.00    +0.000 A 
ATOM      3  C   UNL     1       1.711   6.902  20.085  0.00  0.00    +0.000 A 
ATOM      4  C   UNL     1       2.277   7.495  18.952  0.00  0.00    +0.000 A 
ATOM      5  C   UNL     1       3.299   6.824  18.210  0.00  0.00    +0.000 A 
ATOM      6  C   UNL     1       3.920   7.345  17.054  0.00  0.00    +0.000 A 
ATOM      7  C   UNL     1       4.917   6.645  16.381  0.00  0.00    +0.000 A 
ATOM      8  C   UNL     1       5.312   5.417  16.874  0.00  0.00    +0.000 A 
ATOM      9  N   UNL     1       4.728   4.886  17.986  0.00  0.00    +0.000 NA
ATOM     10  C   UNL     1       3.749   5.552  18.646  0.00  0.00    +0.000 A 
ENDROOT
BRANCH   4  11
ATOM     11  C   UNL     1       1.726   8.815  18.513  0.00  0.00    +0.000 C 
ATOM     12  O   UNL     1       2.241   9.401  17.571  0.00  0.00    +0.000 OA
ATOM     13  N   UNL     1       0.660   9.304  19.266  0.00  0.00    +0.000 N 
ATOM     14  H   UNL     1       0.591   8.947  20.210  0.00  0.00    +0.000 HD
BRANCH  13  15
ATOM     15  C   UNL     1       0.103  10.590  19.027  0.00  0.00    +0.000 A 
ATOM     16  C   UNL     1      -0.900  10.809  18.067  0.00  0.00    +0.000 A 
ATOM     17  C   UNL     1      -1.586   9.741  17.267  0.00  0.00    +0.000 C 
ATOM     18  C   UNL     1      -1.309  12.125  17.860  0.00  0.00    +0.000 A 
ATOM     19  N   UNL     1      -0.845  13.191  18.543  0.00  0.00    +0.000 NA
ATOM     20  C   UNL     1       0.082  12.940  19.485  0.00  0.00    +0.000 A 
ATOM     21  C   UNL     1       0.584  11.675  19.783  0.00  0.00    +0.000 A 
ATOM     22  C   UNL     1       1.670  11.543  20.810  0.00  0.00    +0.000 C 
ENDBRANCH  13  15
ENDBRANCH   4  11
BRANCH   8  23
ATOM     23  C   UNL     1       6.430   4.648  16.177  0.00  0.00    +0.000 C 
ATOM     24  F   UNL     1       7.504   4.412  16.992  0.00  0.00    +0.000 F 
ATOM     25  F   UNL     1       6.041   3.415  15.739  0.00  0.00    +0.000 F 
ATOM     26  F   UNL     1       6.940   5.293  15.091  0.00  0.00    +0.000 F 
ENDBRANCH   8  23
BRANCH   1  28
ATOM     27  C   UNL     1       2.704   2.665  20.165  0.00  0.00    +0.000 C 
ATOM     28  O   UNL     1       3.628   3.743  20.172  0.00  0.00    +0.000 OA
ENDBRANCH   1  28
TORSDOF 4
ENDMDL
