MODEL 1
REMARK VINA RESULT:      -8.2      0.000      0.000
REMARK  Name = 
REMARK  15 active torsions:
REMARK  status: ('A' for Active; 'I' for Inactive)
REMARK    1  A    between atoms: C_1  and  O_2
REMARK    2  A    between atoms: O_2  and  C_3
REMARK    3  A    between atoms: C_5  and  N_6
REMARK    4  A    between atoms: N_6  and  C_7
REMARK    5  A    between atoms: N_6  and  C_8
REMARK    6  A    between atoms: C_8  and  C_9
REMARK    7  A    between atoms: C_9  and  N_10
REMARK    8  A    between atoms: N_10  and  C_11
REMARK    9  A    between atoms: N_10  and  C_12
REMARK   10  A    between atoms: C_15  and  N_16
REMARK   11  A    between atoms: C_21  and  C_22
REMARK   12  A    between atoms: N_24  and  C_25
REMARK   13  A    between atoms: C_25  and  C_26
REMARK   14  A    between atoms: C_26  and  C_27
REMARK   15  A    between atoms: C_27  and  O_28
REMARK                            x       y       z     vdW  Elec       q    Type
REMARK                         _______ _______ _______ _____ _____    ______ ____
ROOT
ATOM      1  N   UNL     1       1.875   6.996  20.893  0.00  0.00    +0.000 N 
ATOM      2  C   UNL     1       2.580   5.886  20.395  0.00  0.00    +0.000 A 
ATOM      3  N   UNL     1       2.150   4.689  20.831  0.00  0.00    +0.000 NA
ATOM      4  C   UNL     1       2.755   3.588  20.335  0.00  0.00    +0.000 A 
ATOM      5  C   UNL     1       3.810   3.610  19.451  0.00  0.00    +0.000 A 
ATOM      6  C   UNL     1       4.244   4.866  19.105  0.00  0.00    +0.000 A 
ATOM      7  N   UNL     1       3.612   5.997  19.547  0.00  0.00    +0.000 NA
ATOM      8  H   UNL     1       1.154   6.640  21.513  0.00  0.00    +0.000 HD
ENDROOT
BRANCH   6   9
ATOM      9  C   UNL     1       5.296   5.098  18.100  0.00  0.00    +0.000 A 
ATOM     10  C   UNL     1       6.508   5.607  18.548  0.00  0.00    +0.000 A 
ATOM     11  N   UNL     1       7.070   6.195  17.452  0.00  0.00    +0.000 N 
ATOM     12  C   UNL     1       6.767   5.399  16.377  0.00  0.00    +0.000 A 
ATOM     13  C   UNL     1       7.454   5.229  15.163  0.00  0.00    +0.000 A 
ATOM     14  C   UNL     1       6.809   4.503  14.172  0.00  0.00    +0.000 A 
ATOM     15  C   UNL     1       5.499   4.062  14.365  0.00  0.00    +0.000 A 
ATOM     16  C   UNL     1       4.824   4.255  15.593  0.00  0.00    +0.000 A 
ATOM     17  C   UNL     1       5.500   4.865  16.672  0.00  0.00    +0.000 A 
BRANCH  11  18
ATOM     18  C   UNL     1       7.182   7.647  17.339  0.00  0.00    +0.000 C 
BRANCH  18  19
ATOM     19  C   UNL     1       8.280   8.249  18.181  0.00  0.00    +0.000 C 
BRANCH  19  20
ATOM     20  C   UNL     1       8.209   9.765  18.197  0.00  0.00    +0.000 C 
BRANCH  20  21
ATOM     21  O   UNL     1       9.517  10.302  18.077  0.00  0.00    +0.000 OA
ATOM     22  H   UNL     1       9.435  11.230  17.800  0.00  0.00    +0.000 HD
ENDBRANCH  20  21
ENDBRANCH  19  20
ENDBRANCH  18  19
ENDBRANCH  11  18
ENDBRANCH   6   9
BRANCH   1  28
ATOM     23  C   UNL     1       0.899   9.231  21.081  0.00  0.00    +0.000 A 
ATOM     24  C   UNL     1       0.378  10.400  20.490  0.00  0.00    +0.000 A 
ATOM     25  C   UNL     1       0.469  10.645  19.121  0.00  0.00    +0.000 A 
ATOM     26  C   UNL     1       1.161   9.693  18.364  0.00  0.00    +0.000 A 
ATOM     27  C   UNL     1       1.660   8.500  18.935  0.00  0.00    +0.000 A 
ATOM     28  C   UNL     1       1.468   8.212  20.286  0.00  0.00    +0.000 A 
BRANCH  23  30
ATOM     29  C   UNL     1      -0.243   9.714  23.104  0.00  0.00    +0.000 C 
ATOM     30  O   UNL     1       0.822   9.016  22.446  0.00  0.00    +0.000 OA
ENDBRANCH  23  30
BRANCH  25  31
ATOM     31  N   UNL     1      -0.091  11.782  18.527  0.00  0.00    +0.000 N 
ATOM     32  C   UNL     1       0.679  13.028  18.514  0.00  0.00    +0.000 C 
BRANCH  31  33
ATOM     33  C   UNL     1      -1.550  11.953  18.692  0.00  0.00    +0.000 C 
BRANCH  33  34
ATOM     34  C   UNL     1      -2.397  10.864  17.967  0.00  0.00    +0.000 C 
BRANCH  34  35
ATOM     35  N   UNL     1      -2.989  11.282  16.671  0.00  0.00    +0.000 NA
ATOM     36  C   UNL     1      -2.696  10.320  15.606  0.00  0.00    +0.000 C 
ATOM     37  C   UNL     1      -4.443  11.431  16.809  0.00  0.00    +0.000 C 
ENDBRANCH  34  35
ENDBRANCH  33  34
ENDBRANCH  31  33
ENDBRANCH  25  31
ENDBRANCH   1  28
TORSDOF 11
ENDMDL
MODEL 2
REMARK VINA RESULT:      -8.1      1.545      2.117
REMARK  Name = 
REMARK  15 active torsions:
REMARK  status: ('A' for Active; 'I' for Inactive)
REMARK    1  A    between atoms: C_1  and  O_2
REMARK    2  A    between atoms: O_2  and  C_3
REMARK    3  A    between atoms: C_5  and  N_6
REMARK    4  A    between atoms: N_6  and  C_7
REMARK    5  A    between atoms: N_6  and  C_8
REMARK    6  A    between atoms: C_8  and  C_9
REMARK    7  A    between atoms: C_9  and  N_10
REMARK    8  A    between atoms: N_10  and  C_11
REMARK    9  A    between atoms: N_10  and  C_12
REMARK   10  A    between atoms: C_15  and  N_16
REMARK   11  A    between atoms: C_21  and  C_22
REMARK   12  A    between atoms: N_24  and  C_25
REMARK   13  A    between atoms: C_25  and  C_26
REMARK   14  A    between atoms: C_26  and  C_27
REMARK   15  A    between atoms: C_27  and  O_28
REMARK                            x       y       z     vdW  Elec       q    Type
REMARK                         _______ _______ _______ _____ _____    ______ ____
ROOT
ATOM      1  N   UNL     1       1.594   6.970  20.887  0.00  0.00    +0.000 N 
ATOM      2  C   UNL     1       2.176   5.774  20.433  0.00  0.00    +0.000 A 
ATOM      3  N   UNL     1       1.506   4.652  20.748  0.00  0.00    +0.000 NA
ATOM      4  C   UNL     1       1.992   3.480  20.283  0.00  0.00    +0.000 A 
ATOM      5  C   UNL     1       3.150   3.354  19.550  0.00  0.00    +0.000 A 
ATOM      6  C   UNL     1       3.821   4.532  19.326  0.00  0.00    +0.000 A 
ATOM      7  N   UNL     1       3.320   5.738  19.735  0.00  0.00    +0.000 NA
ATOM      8  H   UNL     1       0.746   6.720  21.387  0.00  0.00    +0.000 HD
ENDROOT
BRANCH   6   9
ATOM      9  C   UNL     1       5.026   4.616  18.483  0.00  0.00    +0.000 A 
ATOM     10  C   UNL     1       6.259   4.543  19.118  0.00  0.00    +0.000 A 
ATOM     11  N   UNL     1       7.134   5.143  18.260  0.00  0.00    +0.000 N 
ATOM     12  C   UNL     1       6.749   4.788  16.991  0.00  0.00    +0.000 A 
ATOM     13  C   UNL     1       7.513   4.687  15.817  0.00  0.00    +0.000 A 
ATOM     14  C   UNL     1       6.819   4.497  14.630  0.00  0.00    +0.000 A 
ATOM     15  C   UNL     1       5.424   4.510  14.623  0.00  0.00    +0.000 A 
ATOM     16  C   UNL     1       4.677   4.623  15.819  0.00  0.00    +0.000 A 
ATOM     17  C   UNL     1       5.349   4.678  17.059  0.00  0.00    +0.000 A 
BRANCH  11  18
ATOM     18  C   UNL     1       7.724   6.444  18.559  0.00  0.00    +0.000 C 
BRANCH  18  19
ATOM     19  C   UNL     1       7.525   7.476  17.475  0.00  0.00    +0.000 C 
BRANCH  19  20
ATOM     20  C   UNL     1       8.057   8.836  17.889  0.00  0.00    +0.000 C 
BRANCH  20  21
ATOM     21  O   UNL     1       8.886   8.693  19.031  0.00  0.00    +0.000 OA
ATOM     22  H   UNL     1       8.331   8.383  19.767  0.00  0.00    +0.000 HD
ENDBRANCH  20  21
ENDBRANCH  19  20
ENDBRANCH  18  19
ENDBRANCH  11  18
ENDBRANCH   6   9
BRANCH   1  28
ATOM     23  C   UNL     1       1.139   9.365  21.095  0.00  0.00    +0.000 A 
ATOM     24  C   UNL     1       0.896  10.626  20.515  0.00  0.00    +0.000 A 
ATOM     25  C   UNL     1       1.049  10.858  19.149  0.00  0.00    +0.000 A 
ATOM     26  C   UNL     1       1.518   9.784  18.385  0.00  0.00    +0.000 A 
ATOM     27  C   UNL     1       1.734   8.504  18.944  0.00  0.00    +0.000 A 
ATOM     28  C   UNL     1       1.473   8.253  20.291  0.00  0.00    +0.000 A 
BRANCH  23  30
ATOM     29  C   UNL     1      -0.236   9.611  23.013  0.00  0.00    +0.000 C 
ATOM     30  O   UNL     1       1.005   9.159  22.457  0.00  0.00    +0.000 OA
ENDBRANCH  23  30
BRANCH  25  31
ATOM     31  N   UNL     1       0.762  12.098  18.565  0.00  0.00    +0.000 N 
ATOM     32  C   UNL     1       1.812  13.116  18.507  0.00  0.00    +0.000 C 
BRANCH  31  33
ATOM     33  C   UNL     1      -0.603  12.622  18.786  0.00  0.00    +0.000 C 
BRANCH  33  34
ATOM     34  C   UNL     1      -0.648  13.902  19.674  0.00  0.00    +0.000 C 
BRANCH  34  35
ATOM     35  N   UNL     1      -1.470  13.789  20.906  0.00  0.00    +0.000 NA
ATOM     36  C   UNL     1      -0.636  13.663  22.104  0.00  0.00    +0.000 C 
ATOM     37  C   UNL     1      -2.341  14.963  21.037  0.00  0.00    +0.000 C 
ENDBRANCH  34  35
ENDBRANCH  33  34
ENDBRANCH  31  33
ENDBRANCH  25  31
ENDBRANCH   1  28
TORSDOF 11
ENDMDL
MODEL 3
REMARK VINA RESULT:      -7.9      1.240      2.635
REMARK  Name = 
REMARK  15 active torsions:
REMARK  status: ('A' for Active; 'I' for Inactive)
REMARK    1  A    between atoms: C_1  and  O_2
REMARK    2  A    between atoms: O_2  and  C_3
REMARK    3  A    between atoms: C_5  and  N_6
REMARK    4  A    between atoms: N_6  and  C_7
REMARK    5  A    between atoms: N_6  and  C_8
REMARK    6  A    between atoms: C_8  and  C_9
REMARK    7  A    between atoms: C_9  and  N_10
REMARK    8  A    between atoms: N_10  and  C_11
REMARK    9  A    between atoms: N_10  and  C_12
REMARK   10  A    between atoms: C_15  and  N_16
REMARK   11  A    between atoms: C_21  and  C_22
REMARK   12  A    between atoms: N_24  and  C_25
REMARK   13  A    between atoms: C_25  and  C_26
REMARK   14  A    between atoms: C_26  and  C_27
REMARK   15  A    between atoms: C_27  and  O_28
REMARK                            x       y       z     vdW  Elec       q    Type
REMARK                         _______ _______ _______ _____ _____    ______ ____
ROOT
ATOM      1  N   UNL     1       1.830   6.931  20.832  0.00  0.00    +0.000 N 
ATOM      2  C   UNL     1       2.456   5.811  20.256  0.00  0.00    +0.000 A 
ATOM      3  N   UNL     1       1.908   4.624  20.567  0.00  0.00    +0.000 NA
ATOM      4  C   UNL     1       2.436   3.521  19.991  0.00  0.00    +0.000 A 
ATOM      5  C   UNL     1       3.523   3.528  19.147  0.00  0.00    +0.000 A 
ATOM      6  C   UNL     1       4.076   4.766  18.931  0.00  0.00    +0.000 A 
ATOM      7  N   UNL     1       3.526   5.905  19.455  0.00  0.00    +0.000 NA
ATOM      8  H   UNL     1       1.057   6.587  21.393  0.00  0.00    +0.000 HD
ENDROOT
BRANCH   6   9
ATOM      9  C   UNL     1       5.183   4.992  17.986  0.00  0.00    +0.000 A 
ATOM     10  C   UNL     1       6.397   5.416  18.510  0.00  0.00    +0.000 A 
ATOM     11  N   UNL     1       7.036   6.027  17.470  0.00  0.00    +0.000 N 
ATOM     12  C   UNL     1       6.744   5.298  16.344  0.00  0.00    +0.000 A 
ATOM     13  C   UNL     1       7.477   5.152  15.155  0.00  0.00    +0.000 A 
ATOM     14  C   UNL     1       6.842   4.508  14.102  0.00  0.00    +0.000 A 
ATOM     15  C   UNL     1       5.505   4.125  14.215  0.00  0.00    +0.000 A 
ATOM     16  C   UNL     1       4.785   4.293  15.422  0.00  0.00    +0.000 A 
ATOM     17  C   UNL     1       5.440   4.816  16.558  0.00  0.00    +0.000 A 
BRANCH  11  18
ATOM     18  C   UNL     1       7.223   7.474  17.434  0.00  0.00    +0.000 C 
BRANCH  18  19
ATOM     19  C   UNL     1       8.279   7.985  18.384  0.00  0.00    +0.000 C 
BRANCH  19  20
ATOM     20  C   UNL     1       8.477   9.484  18.253  0.00  0.00    +0.000 C 
BRANCH  20  21
ATOM     21  O   UNL     1       9.278   9.951  19.326  0.00  0.00    +0.000 OA
ATOM     22  H   UNL     1       8.773  10.631  19.803  0.00  0.00    +0.000 HD
ENDBRANCH  20  21
ENDBRANCH  19  20
ENDBRANCH  18  19
ENDBRANCH  11  18
ENDBRANCH   6   9
BRANCH   1  28
ATOM     23  C   UNL     1       1.070   9.227  21.199  0.00  0.00    +0.000 A 
ATOM     24  C   UNL     1       0.674  10.486  20.705  0.00  0.00    +0.000 A 
ATOM     25  C   UNL     1       0.813  10.835  19.362  0.00  0.00    +0.000 A 
ATOM     26  C   UNL     1       1.425   9.887  18.534  0.00  0.00    +0.000 A 
ATOM     27  C   UNL     1       1.796   8.607  19.006  0.00  0.00    +0.000 A 
ATOM     28  C   UNL     1       1.553   8.228  20.326  0.00  0.00    +0.000 A 
BRANCH  23  30
ATOM     29  C   UNL     1      -0.085   9.618  23.234  0.00  0.00    +0.000 C 
ATOM     30  O   UNL     1       0.947   8.907  22.540  0.00  0.00    +0.000 OA
ENDBRANCH  23  30
BRANCH  25  31
ATOM     31  N   UNL     1       0.376  12.067  18.861  0.00  0.00    +0.000 N 
ATOM     32  C   UNL     1      -0.925  12.141  18.195  0.00  0.00    +0.000 C 
BRANCH  31  33
ATOM     33  C   UNL     1       1.420  12.944  18.289  0.00  0.00    +0.000 C 
BRANCH  33  34
ATOM     34  C   UNL     1       1.674  14.240  19.115  0.00  0.00    +0.000 C 
BRANCH  34  35
ATOM     35  N   UNL     1       2.242  14.025  20.471  0.00  0.00    +0.000 NA
ATOM     36  C   UNL     1       3.464  14.805  20.677  0.00  0.00    +0.000 C 
ATOM     37  C   UNL     1       1.252  14.389  21.492  0.00  0.00    +0.000 C 
ENDBRANCH  34  35
ENDBRANCH  33  34
ENDBRANCH  31  33
ENDBRANCH  25  31
ENDBRANCH   1  28
TORSDOF 11
ENDMDL
MODEL 4
REMARK VINA RESULT:      -7.8      2.489      9.578
REMARK  Name = 
REMARK  15 active torsions:
REMARK  status: ('A' for Active; 'I' for Inactive)
REMARK    1  A    between atoms: C_1  and  O_2
REMARK    2  A    between atoms: O_2  and  C_3
REMARK    3  A    between atoms: C_5  and  N_6
REMARK    4  A    between atoms: N_6  and  C_7
REMARK    5  A    between atoms: N_6  and  C_8
REMARK    6  A    between atoms: C_8  and  C_9
REMARK    7  A    between atoms: C_9  and  N_10
REMARK    8  A    between atoms: N_10  and  C_11
REMARK    9  A    between atoms: N_10  and  C_12
REMARK   10  A    between atoms: C_15  and  N_16
REMARK   11  A    between atoms: C_21  and  C_22
REMARK   12  A    between atoms: N_24  and  C_25
REMARK   13  A    between atoms: C_25  and  C_26
REMARK   14  A    between atoms: C_26  and  C_27
REMARK   15  A    between atoms: C_27  and  O_28
REMARK                            x       y       z     vdW  Elec       q    Type
REMARK                         _______ _______ _______ _____ _____    ______ ____
ROOT
ATOM      1  N   UNL     1       1.331   8.082  20.976  0.00  0.00    +0.000 N 
ATOM      2  C   UNL     1       0.509   9.217  21.095  0.00  0.00    +0.000 A 
ATOM      3  N   UNL     1       0.655   9.915  22.235  0.00  0.00    +0.000 NA
ATOM      4  C   UNL     1      -0.069  11.048  22.372  0.00  0.00    +0.000 A 
ATOM      5  C   UNL     1      -0.976  11.509  21.446  0.00  0.00    +0.000 A 
ATOM      6  C   UNL     1      -1.126  10.709  20.340  0.00  0.00    +0.000 A 
ATOM      7  N   UNL     1      -0.365   9.588  20.149  0.00  0.00    +0.000 NA
ATOM      8  H   UNL     1       1.888   8.025  21.823  0.00  0.00    +0.000 HD
ENDROOT
BRANCH   6   9
ATOM      9  C   UNL     1      -1.978  11.081  19.197  0.00  0.00    +0.000 A 
ATOM     10  C   UNL     1      -2.667  12.284  19.275  0.00  0.00    +0.000 A 
ATOM     11  N   UNL     1      -3.715  12.147  18.412  0.00  0.00    +0.000 N 
ATOM     12  C   UNL     1      -3.247  11.443  17.331  0.00  0.00    +0.000 A 
ATOM     13  C   UNL     1      -3.692  11.444  15.998  0.00  0.00    +0.000 A 
ATOM     14  C   UNL     1      -3.155  10.480  15.156  0.00  0.00    +0.000 A 
ATOM     15  C   UNL     1      -2.294   9.506  15.663  0.00  0.00    +0.000 A 
ATOM     16  C   UNL     1      -1.869   9.520  17.012  0.00  0.00    +0.000 A 
ATOM     17  C   UNL     1      -2.284  10.568  17.863  0.00  0.00    +0.000 A 
BRANCH  11  18
ATOM     18  C   UNL     1      -5.087  12.014  18.893  0.00  0.00    +0.000 C 
BRANCH  18  19
ATOM     19  C   UNL     1      -5.727  10.685  18.573  0.00  0.00    +0.000 C 
BRANCH  19  20
ATOM     20  C   UNL     1      -6.912  10.399  19.477  0.00  0.00    +0.000 C 
BRANCH  20  21
ATOM     21  O   UNL     1      -7.495   9.157  19.115  0.00  0.00    +0.000 OA
ATOM     22  H   UNL     1      -7.410   9.056  18.152  0.00  0.00    +0.000 HD
ENDBRANCH  20  21
ENDBRANCH  19  20
ENDBRANCH  18  19
ENDBRANCH  11  18
ENDBRANCH   6   9
BRANCH   1  28
ATOM     23  C   UNL     1       2.329   6.148  19.861  0.00  0.00    +0.000 A 
ATOM     24  C   UNL     1       3.121   5.591  18.836  0.00  0.00    +0.000 A 
ATOM     25  C   UNL     1       3.573   6.344  17.753  0.00  0.00    +0.000 A 
ATOM     26  C   UNL     1       3.147   7.676  17.702  0.00  0.00    +0.000 A 
ATOM     27  C   UNL     1       2.382   8.259  18.738  0.00  0.00    +0.000 A 
ATOM     28  C   UNL     1       2.027   7.527  19.871  0.00  0.00    +0.000 A 
BRANCH  23  30
ATOM     29  C   UNL     1       1.124   4.217  20.531  0.00  0.00    +0.000 C 
ATOM     30  O   UNL     1       1.869   5.379  20.916  0.00  0.00    +0.000 OA
ENDBRANCH  23  30
BRANCH  25  31
ATOM     31  N   UNL     1       4.399   5.804  16.760  0.00  0.00    +0.000 N 
ATOM     32  C   UNL     1       4.346   4.364  16.498  0.00  0.00    +0.000 C 
BRANCH  31  33
ATOM     33  C   UNL     1       5.740   6.412  16.627  0.00  0.00    +0.000 C 
BRANCH  33  34
ATOM     34  C   UNL     1       6.908   5.444  16.980  0.00  0.00    +0.000 C 
BRANCH  34  35
ATOM     35  N   UNL     1       7.618   5.745  18.249  0.00  0.00    +0.000 NA
ATOM     36  C   UNL     1       8.057   7.141  18.306  0.00  0.00    +0.000 C 
ATOM     37  C   UNL     1       6.742   5.461  19.392  0.00  0.00    +0.000 C 
ENDBRANCH  34  35
ENDBRANCH  33  34
ENDBRANCH  31  33
ENDBRANCH  25  31
ENDBRANCH   1  28
TORSDOF 11
ENDMDL
MODEL 5
REMARK VINA RESULT:      -7.7      2.434      9.429
REMARK  Name = 
REMARK  15 active torsions:
REMARK  status: ('A' for Active; 'I' for Inactive)
REMARK    1  A    between atoms: C_1  and  O_2
REMARK    2  A    between atoms: O_2  and  C_3
REMARK    3  A    between atoms: C_5  and  N_6
REMARK    4  A    between atoms: N_6  and  C_7
REMARK    5  A    between atoms: N_6  and  C_8
REMARK    6  A    between atoms: C_8  and  C_9
REMARK    7  A    between atoms: C_9  and  N_10
REMARK    8  A    between atoms: N_10  and  C_11
REMARK    9  A    between atoms: N_10  and  C_12
REMARK   10  A    between atoms: C_15  and  N_16
REMARK   11  A    between atoms: C_21  and  C_22
REMARK   12  A    between atoms: N_24  and  C_25
REMARK   13  A    between atoms: C_25  and  C_26
REMARK   14  A    between atoms: C_26  and  C_27
REMARK   15  A    between atoms: C_27  and  O_28
REMARK                            x       y       z     vdW  Elec       q    Type
REMARK                         _______ _______ _______ _____ _____    ______ ____
ROOT
ATOM      1  N   UNL     1       1.508   7.756  21.084  0.00  0.00    +0.000 N 
ATOM      2  C   UNL     1       0.733   8.916  21.263  0.00  0.00    +0.000 A 
ATOM      3  N   UNL     1       0.914   9.553  22.433  0.00  0.00    +0.000 NA
ATOM      4  C   UNL     1       0.238  10.706  22.630  0.00  0.00    +0.000 A 
ATOM      5  C   UNL     1      -0.656  11.247  21.734  0.00  0.00    +0.000 A 
ATOM      6  C   UNL     1      -0.846  10.506  20.593  0.00  0.00    +0.000 A 
ATOM      7  N   UNL     1      -0.131   9.366  20.343  0.00  0.00    +0.000 NA
ATOM      8  H   UNL     1       2.068   7.637  21.923  0.00  0.00    +0.000 HD
ENDROOT
BRANCH   6   9
ATOM      9  C   UNL     1      -1.689  10.965  19.475  0.00  0.00    +0.000 A 
ATOM     10  C   UNL     1      -2.315  12.197  19.608  0.00  0.00    +0.000 A 
ATOM     11  N   UNL     1      -3.377  12.148  18.753  0.00  0.00    +0.000 N 
ATOM     12  C   UNL     1      -2.957  11.464  17.640  0.00  0.00    +0.000 A 
ATOM     13  C   UNL     1      -3.415  11.540  16.314  0.00  0.00    +0.000 A 
ATOM     14  C   UNL     1      -2.937  10.584  15.429  0.00  0.00    +0.000 A 
ATOM     15  C   UNL     1      -2.121   9.548  15.887  0.00  0.00    +0.000 A 
ATOM     16  C   UNL     1      -1.682   9.488  17.230  0.00  0.00    +0.000 A 
ATOM     17  C   UNL     1      -2.034  10.521  18.126  0.00  0.00    +0.000 A 
BRANCH  11  18
ATOM     18  C   UNL     1      -4.749  12.065  19.246  0.00  0.00    +0.000 C 
BRANCH  18  19
ATOM     19  C   UNL     1      -5.132  13.174  20.196  0.00  0.00    +0.000 C 
BRANCH  19  20
ATOM     20  C   UNL     1      -5.505  12.637  21.566  0.00  0.00    +0.000 C 
BRANCH  20  21
ATOM     21  O   UNL     1      -6.431  11.573  21.422  0.00  0.00    +0.000 OA
ATOM     22  H   UNL     1      -7.134  11.697  22.081  0.00  0.00    +0.000 HD
ENDBRANCH  20  21
ENDBRANCH  19  20
ENDBRANCH  18  19
ENDBRANCH  11  18
ENDBRANCH   6   9
BRANCH   1  28
ATOM     23  C   UNL     1       2.545   5.864  19.932  0.00  0.00    +0.000 A 
ATOM     24  C   UNL     1       3.310   5.339  18.872  0.00  0.00    +0.000 A 
ATOM     25  C   UNL     1       3.668   6.103  17.763  0.00  0.00    +0.000 A 
ATOM     26  C   UNL     1       3.174   7.411  17.725  0.00  0.00    +0.000 A 
ATOM     27  C   UNL     1       2.434   7.965  18.794  0.00  0.00    +0.000 A 
ATOM     28  C   UNL     1       2.175   7.226  19.949  0.00  0.00    +0.000 A 
BRANCH  23  30
ATOM     29  C   UNL     1       1.205   4.073  20.723  0.00  0.00    +0.000 C 
ATOM     30  O   UNL     1       2.179   5.083  21.015  0.00  0.00    +0.000 OA
ENDBRANCH  23  30
BRANCH  25  31
ATOM     31  N   UNL     1       4.468   5.596  16.732  0.00  0.00    +0.000 N 
ATOM     32  C   UNL     1       4.719   4.154  16.671  0.00  0.00    +0.000 C 
BRANCH  31  33
ATOM     33  C   UNL     1       5.605   6.444  16.313  0.00  0.00    +0.000 C 
BRANCH  33  34
ATOM     34  C   UNL     1       6.999   5.783  16.538  0.00  0.00    +0.000 C 
BRANCH  34  35
ATOM     35  N   UNL     1       7.811   6.377  17.631  0.00  0.00    +0.000 NA
ATOM     36  C   UNL     1       7.674   7.835  17.677  0.00  0.00    +0.000 C 
ATOM     37  C   UNL     1       7.407   5.807  18.922  0.00  0.00    +0.000 C 
ENDBRANCH  34  35
ENDBRANCH  33  34
ENDBRANCH  31  33
ENDBRANCH  25  31
ENDBRANCH   1  28
TORSDOF 11
ENDMDL
MODEL 6
REMARK VINA RESULT:      -7.7      1.556      2.187
REMARK  Name = 
REMARK  15 active torsions:
REMARK  status: ('A' for Active; 'I' for Inactive)
REMARK    1  A    between atoms: C_1  and  O_2
REMARK    2  A    between atoms: O_2  and  C_3
REMARK    3  A    between atoms: C_5  and  N_6
REMARK    4  A    between atoms: N_6  and  C_7
REMARK    5  A    between atoms: N_6  and  C_8
REMARK    6  A    between atoms: C_8  and  C_9
REMARK    7  A    between atoms: C_9  and  N_10
REMARK    8  A    between atoms: N_10  and  C_11
REMARK    9  A    between atoms: N_10  and  C_12
REMARK   10  A    between atoms: C_15  and  N_16
REMARK   11  A    between atoms: C_21  and  C_22
REMARK   12  A    between atoms: N_24  and  C_25
REMARK   13  A    between atoms: C_25  and  C_26
REMARK   14  A    between atoms: C_26  and  C_27
REMARK   15  A    between atoms: C_27  and  O_28
REMARK                            x       y       z     vdW  Elec       q    Type
REMARK                         _______ _______ _______ _____ _____    ______ ____
ROOT
ATOM      1  N   UNL     1       1.676   6.960  20.858  0.00  0.00    +0.000 N 
ATOM      2  C   UNL     1       2.282   5.825  20.289  0.00  0.00    +0.000 A 
ATOM      3  N   UNL     1       1.699   4.652  20.587  0.00  0.00    +0.000 NA
ATOM      4  C   UNL     1       2.207   3.537  20.017  0.00  0.00    +0.000 A 
ATOM      5  C   UNL     1       3.307   3.517  19.190  0.00  0.00    +0.000 A 
ATOM      6  C   UNL     1       3.896   4.742  18.987  0.00  0.00    +0.000 A 
ATOM      7  N   UNL     1       3.367   5.893  19.505  0.00  0.00    +0.000 NA
ATOM      8  H   UNL     1       0.885   6.634  21.405  0.00  0.00    +0.000 HD
ENDROOT
BRANCH   6   9
ATOM      9  C   UNL     1       5.023   4.941  18.060  0.00  0.00    +0.000 A 
ATOM     10  C   UNL     1       6.224   5.386  18.598  0.00  0.00    +0.000 A 
ATOM     11  N   UNL     1       6.885   5.965  17.554  0.00  0.00    +0.000 N 
ATOM     12  C   UNL     1       6.620   5.200  16.445  0.00  0.00    +0.000 A 
ATOM     13  C   UNL     1       7.380   5.018  15.278  0.00  0.00    +0.000 A 
ATOM     14  C   UNL     1       6.772   4.339  14.232  0.00  0.00    +0.000 A 
ATOM     15  C   UNL     1       5.433   3.956  14.327  0.00  0.00    +0.000 A 
ATOM     16  C   UNL     1       4.686   4.160  15.511  0.00  0.00    +0.000 A 
ATOM     17  C   UNL     1       5.314   4.721  16.645  0.00  0.00    +0.000 A 
BRANCH  11  18
ATOM     18  C   UNL     1       7.069   7.411  17.476  0.00  0.00    +0.000 C 
BRANCH  18  19
ATOM     19  C   UNL     1       8.224   7.932  18.297  0.00  0.00    +0.000 C 
BRANCH  19  20
ATOM     20  C   UNL     1       8.408   9.428  18.122  0.00  0.00    +0.000 C 
BRANCH  20  21
ATOM     21  O   UNL     1       9.164   9.942  19.208  0.00  0.00    +0.000 OA
ATOM     22  H   UNL     1       8.589  10.538  19.717  0.00  0.00    +0.000 HD
ENDBRANCH  20  21
ENDBRANCH  19  20
ENDBRANCH  18  19
ENDBRANCH  11  18
ENDBRANCH   6   9
BRANCH   1  28
ATOM     23  C   UNL     1       0.864   9.243  21.189  0.00  0.00    +0.000 A 
ATOM     24  C   UNL     1       0.510  10.509  20.681  0.00  0.00    +0.000 A 
ATOM     25  C   UNL     1       0.781  10.885  19.367  0.00  0.00    +0.000 A 
ATOM     26  C   UNL     1       1.481   9.957  18.587  0.00  0.00    +0.000 A 
ATOM     27  C   UNL     1       1.813   8.671  19.070  0.00  0.00    +0.000 A 
ATOM     28  C   UNL     1       1.441   8.264  20.351  0.00  0.00    +0.000 A 
BRANCH  23  30
ATOM     29  C   UNL     1      -0.257   9.797  23.206  0.00  0.00    +0.000 C 
ATOM     30  O   UNL     1       0.609   8.896  22.505  0.00  0.00    +0.000 OA
ENDBRANCH  23  30
BRANCH  25  31
ATOM     31  N   UNL     1       0.387  12.124  18.848  0.00  0.00    +0.000 N 
ATOM     32  C   UNL     1       1.395  12.987  18.228  0.00  0.00    +0.000 C 
BRANCH  31  33
ATOM     33  C   UNL     1      -0.669  12.838  19.596  0.00  0.00    +0.000 C 
BRANCH  33  34
ATOM     34  C   UNL     1      -0.214  14.215  20.167  0.00  0.00    +0.000 C 
BRANCH  34  35
ATOM     35  N   UNL     1      -1.045  15.376  19.757  0.00  0.00    +0.000 NA
ATOM     36  C   UNL     1      -1.570  16.102  20.915  0.00  0.00    +0.000 C 
ATOM     37  C   UNL     1      -0.254  16.289  18.924  0.00  0.00    +0.000 C 
ENDBRANCH  34  35
ENDBRANCH  33  34
ENDBRANCH  31  33
ENDBRANCH  25  31
ENDBRANCH   1  28
TORSDOF 11
ENDMDL
MODEL 7
REMARK VINA RESULT:      -7.6      2.477      9.665
REMARK  Name = 
REMARK  15 active torsions:
REMARK  status: ('A' for Active; 'I' for Inactive)
REMARK    1  A    between atoms: C_1  and  O_2
REMARK    2  A    between atoms: O_2  and  C_3
REMARK    3  A    between atoms: C_5  and  N_6
REMARK    4  A    between atoms: N_6  and  C_7
REMARK    5  A    between atoms: N_6  and  C_8
REMARK    6  A    between atoms: C_8  and  C_9
REMARK    7  A    between atoms: C_9  and  N_10
REMARK    8  A    between atoms: N_10  and  C_11
REMARK    9  A    between atoms: N_10  and  C_12
REMARK   10  A    between atoms: C_15  and  N_16
REMARK   11  A    between atoms: C_21  and  C_22
REMARK   12  A    between atoms: N_24  and  C_25
REMARK   13  A    between atoms: C_25  and  C_26
REMARK   14  A    between atoms: C_26  and  C_27
REMARK   15  A    between atoms: C_27  and  O_28
REMARK                            x       y       z     vdW  Elec       q    Type
REMARK                         _______ _______ _______ _____ _____    ______ ____
ROOT
ATOM      1  N   UNL     1       1.336   8.524  20.910  0.00  0.00    +0.000 N 
ATOM      2  C   UNL     1       0.485   9.643  20.954  0.00  0.00    +0.000 A 
ATOM      3  N   UNL     1       0.705  10.492  21.973  0.00  0.00    +0.000 NA
ATOM      4  C   UNL     1      -0.046  11.614  22.025  0.00  0.00    +0.000 A 
ATOM      5  C   UNL     1      -1.049  11.923  21.134  0.00  0.00    +0.000 A 
ATOM      6  C   UNL     1      -1.266  10.977  20.162  0.00  0.00    +0.000 A 
ATOM      7  N   UNL     1      -0.482   9.860  20.052  0.00  0.00    +0.000 NA
ATOM      8  H   UNL     1       1.967   8.596  21.702  0.00  0.00    +0.000 HD
ENDROOT
BRANCH   6   9
ATOM      9  C   UNL     1      -2.228  11.168  19.063  0.00  0.00    +0.000 A 
ATOM     10  C   UNL     1      -3.156  12.193  19.195  0.00  0.00    +0.000 A 
ATOM     11  N   UNL     1      -4.188  11.843  18.374  0.00  0.00    +0.000 N 
ATOM     12  C   UNL     1      -3.629  11.269  17.260  0.00  0.00    +0.000 A 
ATOM     13  C   UNL     1      -4.123  11.189  15.948  0.00  0.00    +0.000 A 
ATOM     14  C   UNL     1      -3.430  10.374  15.064  0.00  0.00    +0.000 A 
ATOM     15  C   UNL     1      -2.357   9.603  15.513  0.00  0.00    +0.000 A 
ATOM     16  C   UNL     1      -1.884   9.694  16.844  0.00  0.00    +0.000 A 
ATOM     17  C   UNL     1      -2.476  10.617  17.733  0.00  0.00    +0.000 A 
BRANCH  11  18
ATOM     18  C   UNL     1      -5.476  11.410  18.910  0.00  0.00    +0.000 C 
BRANCH  18  19
ATOM     19  C   UNL     1      -6.322  12.530  19.464  0.00  0.00    +0.000 C 
BRANCH  19  20
ATOM     20  C   UNL     1      -6.922  12.168  20.811  0.00  0.00    +0.000 C 
BRANCH  20  21
ATOM     21  O   UNL     1      -6.649  13.202  21.744  0.00  0.00    +0.000 OA
ATOM     22  H   UNL     1      -7.359  13.200  22.408  0.00  0.00    +0.000 HD
ENDBRANCH  20  21
ENDBRANCH  19  20
ENDBRANCH  18  19
ENDBRANCH  11  18
ENDBRANCH   6   9
BRANCH   1  28
ATOM     23  C   UNL     1       2.192   6.454  19.927  0.00  0.00    +0.000 A 
ATOM     24  C   UNL     1       2.908   5.774  18.922  0.00  0.00    +0.000 A 
ATOM     25  C   UNL     1       3.339   6.407  17.758  0.00  0.00    +0.000 A 
ATOM     26  C   UNL     1       2.971   7.749  17.608  0.00  0.00    +0.000 A 
ATOM     27  C   UNL     1       2.284   8.455  18.621  0.00  0.00    +0.000 A 
ATOM     28  C   UNL     1       1.952   7.842  19.829  0.00  0.00    +0.000 A 
BRANCH  23  30
ATOM     29  C   UNL     1       2.017   4.395  21.093  0.00  0.00    +0.000 C 
ATOM     30  O   UNL     1       1.750   5.803  21.065  0.00  0.00    +0.000 OA
ENDBRANCH  23  30
BRANCH  25  31
ATOM     31  N   UNL     1       4.091   5.744  16.781  0.00  0.00    +0.000 N 
ATOM     32  C   UNL     1       4.284   4.297  16.894  0.00  0.00    +0.000 C 
BRANCH  31  33
ATOM     33  C   UNL     1       5.248   6.486  16.234  0.00  0.00    +0.000 C 
BRANCH  33  34
ATOM     34  C   UNL     1       6.618   6.041  16.829  0.00  0.00    +0.000 C 
BRANCH  34  35
ATOM     35  N   UNL     1       7.059   6.792  18.032  0.00  0.00    +0.000 NA
ATOM     36  C   UNL     1       7.886   5.965  18.914  0.00  0.00    +0.000 C 
ATOM     37  C   UNL     1       7.814   7.984  17.630  0.00  0.00    +0.000 C 
ENDBRANCH  34  35
ENDBRANCH  33  34
ENDBRANCH  31  33
ENDBRANCH  25  31
ENDBRANCH   1  28
TORSDOF 11
ENDMDL
MODEL 8
REMARK VINA RESULT:      -7.4      1.346      1.559
REMARK  Name = 
REMARK  15 active torsions:
REMARK  status: ('A' for Active; 'I' for Inactive)
REMARK    1  A    between atoms: C_1  and  O_2
REMARK    2  A    between atoms: O_2  and  C_3
REMARK    3  A    between atoms: C_5  and  N_6
REMARK    4  A    between atoms: N_6  and  C_7
REMARK    5  A    between atoms: N_6  and  C_8
REMARK    6  A    between atoms: C_8  and  C_9
REMARK    7  A    between atoms: C_9  and  N_10
REMARK    8  A    between atoms: N_10  and  C_11
REMARK    9  A    between atoms: N_10  and  C_12
REMARK   10  A    between atoms: C_15  and  N_16
REMARK   11  A    between atoms: C_21  and  C_22
REMARK   12  A    between atoms: N_24  and  C_25
REMARK   13  A    between atoms: C_25  and  C_26
REMARK   14  A    between atoms: C_26  and  C_27
REMARK   15  A    between atoms: C_27  and  O_28
REMARK                            x       y       z     vdW  Elec       q    Type
REMARK                         _______ _______ _______ _____ _____    ______ ____
ROOT
ATOM      1  N   UNL     1       1.493   6.860  20.965  0.00  0.00    +0.000 N 
ATOM      2  C   UNL     1       2.036   5.651  20.496  0.00  0.00    +0.000 A 
ATOM      3  N   UNL     1       1.327   4.548  20.793  0.00  0.00    +0.000 NA
ATOM      4  C   UNL     1       1.775   3.367  20.314  0.00  0.00    +0.000 A 
ATOM      5  C   UNL     1       2.931   3.212  19.583  0.00  0.00    +0.000 A 
ATOM      6  C   UNL     1       3.642   4.369  19.378  0.00  0.00    +0.000 A 
ATOM      7  N   UNL     1       3.181   5.586  19.803  0.00  0.00    +0.000 NA
ATOM      8  H   UNL     1       0.635   6.632  21.458  0.00  0.00    +0.000 HD
ENDROOT
BRANCH   6   9
ATOM      9  C   UNL     1       4.853   4.424  18.541  0.00  0.00    +0.000 A 
ATOM     10  C   UNL     1       6.081   4.308  19.180  0.00  0.00    +0.000 A 
ATOM     11  N   UNL     1       6.977   4.889  18.332  0.00  0.00    +0.000 N 
ATOM     12  C   UNL     1       6.587   4.557  17.058  0.00  0.00    +0.000 A 
ATOM     13  C   UNL     1       7.353   4.443  15.886  0.00  0.00    +0.000 A 
ATOM     14  C   UNL     1       6.659   4.284  14.695  0.00  0.00    +0.000 A 
ATOM     15  C   UNL     1       5.265   4.340  14.682  0.00  0.00    +0.000 A 
ATOM     16  C   UNL     1       4.516   4.465  15.876  0.00  0.00    +0.000 A 
ATOM     17  C   UNL     1       5.184   4.489  17.119  0.00  0.00    +0.000 A 
BRANCH  11  18
ATOM     18  C   UNL     1       7.604   6.169  18.645  0.00  0.00    +0.000 C 
BRANCH  18  19
ATOM     19  C   UNL     1       7.813   7.064  17.447  0.00  0.00    +0.000 C 
BRANCH  19  20
ATOM     20  C   UNL     1       6.841   8.230  17.440  0.00  0.00    +0.000 C 
BRANCH  20  21
ATOM     21  O   UNL     1       5.511   7.737  17.388  0.00  0.00    +0.000 OA
ATOM     22  H   UNL     1       5.092   7.916  18.246  0.00  0.00    +0.000 HD
ENDBRANCH  20  21
ENDBRANCH  19  20
ENDBRANCH  18  19
ENDBRANCH  11  18
ENDBRANCH   6   9
BRANCH   1  28
ATOM     23  C   UNL     1       1.009   9.248  21.181  0.00  0.00    +0.000 A 
ATOM     24  C   UNL     1       0.811  10.520  20.607  0.00  0.00    +0.000 A 
ATOM     25  C   UNL     1       1.083  10.781  19.265  0.00  0.00    +0.000 A 
ATOM     26  C   UNL     1       1.623   9.724  18.524  0.00  0.00    +0.000 A 
ATOM     27  C   UNL     1       1.795   8.433  19.074  0.00  0.00    +0.000 A 
ATOM     28  C   UNL     1       1.418   8.154  20.387  0.00  0.00    +0.000 A 
BRANCH  23  30
ATOM     29  C   UNL     1      -0.359   9.736  23.057  0.00  0.00    +0.000 C 
ATOM     30  O   UNL     1       0.757   9.013  22.521  0.00  0.00    +0.000 OA
ENDBRANCH  23  30
BRANCH  25  31
ATOM     31  N   UNL     1       0.842  12.031  18.683  0.00  0.00    +0.000 N 
ATOM     32  C   UNL     1       1.946  12.986  18.569  0.00  0.00    +0.000 C 
BRANCH  31  33
ATOM     33  C   UNL     1      -0.479  12.636  18.962  0.00  0.00    +0.000 C 
BRANCH  33  34
ATOM     34  C   UNL     1      -1.632  12.057  18.089  0.00  0.00    +0.000 C 
BRANCH  34  35
ATOM     35  N   UNL     1      -2.835  11.618  18.842  0.00  0.00    +0.000 NA
ATOM     36  C   UNL     1      -3.162  12.543  19.929  0.00  0.00    +0.000 C 
ATOM     37  C   UNL     1      -3.982  11.507  17.933  0.00  0.00    +0.000 C 
ENDBRANCH  34  35
ENDBRANCH  33  34
ENDBRANCH  31  33
ENDBRANCH  25  31
ENDBRANCH   1  28
TORSDOF 11
ENDMDL
MODEL 9
REMARK VINA RESULT:      -7.4      2.483      9.873
REMARK  Name = 
REMARK  15 active torsions:
REMARK  status: ('A' for Active; 'I' for Inactive)
REMARK    1  A    between atoms: C_1  and  O_2
REMARK    2  A    between atoms: O_2  and  C_3
REMARK    3  A    between atoms: C_5  and  N_6
REMARK    4  A    between atoms: N_6  and  C_7
REMARK    5  A    between atoms: N_6  and  C_8
REMARK    6  A    between atoms: C_8  and  C_9
REMARK    7  A    between atoms: C_9  and  N_10
REMARK    8  A    between atoms: N_10  and  C_11
REMARK    9  A    between atoms: N_10  and  C_12
REMARK   10  A    between atoms: C_15  and  N_16
REMARK   11  A    between atoms: C_21  and  C_22
REMARK   12  A    between atoms: N_24  and  C_25
REMARK   13  A    between atoms: C_25  and  C_26
REMARK   14  A    between atoms: C_26  and  C_27
REMARK   15  A    between atoms: C_27  and  O_28
REMARK                            x       y       z     vdW  Elec       q    Type
REMARK                         _______ _______ _______ _____ _____    ______ ____
ROOT
ATOM      1  N   UNL     1       1.777  10.152  19.720  0.00  0.00    +0.000 N 
ATOM      2  C   UNL     1       0.867  11.127  19.275  0.00  0.00    +0.000 A 
ATOM      3  N   UNL     1       1.384  12.355  19.094  0.00  0.00    +0.000 NA
ATOM      4  C   UNL     1       0.565  13.314  18.610  0.00  0.00    +0.000 A 
ATOM      5  C   UNL     1      -0.771  13.131  18.334  0.00  0.00    +0.000 A 
ATOM      6  C   UNL     1      -1.248  11.872  18.610  0.00  0.00    +0.000 A 
ATOM      7  N   UNL     1      -0.427  10.867  19.046  0.00  0.00    +0.000 NA
ATOM      8  H   UNL     1       2.680  10.606  19.819  0.00  0.00    +0.000 HD
ENDROOT
BRANCH   6   9
ATOM      9  C   UNL     1      -2.625  11.454  18.294  0.00  0.00    +0.000 A 
ATOM     10  C   UNL     1      -2.785  10.345  17.473  0.00  0.00    +0.000 A 
ATOM     11  N   UNL     1      -4.030  10.482  16.934  0.00  0.00    +0.000 N 
ATOM     12  C   UNL     1      -4.833  10.999  17.919  0.00  0.00    +0.000 A 
ATOM     13  C   UNL     1      -6.221  10.882  18.100  0.00  0.00    +0.000 A 
ATOM     14  C   UNL     1      -6.796  11.678  19.081  0.00  0.00    +0.000 A 
ATOM     15  C   UNL     1      -6.023  12.614  19.769  0.00  0.00    +0.000 A 
ATOM     16  C   UNL     1      -4.627  12.720  19.561  0.00  0.00    +0.000 A 
ATOM     17  C   UNL     1      -3.985  11.830  18.673  0.00  0.00    +0.000 A 
BRANCH  11  18
ATOM     18  C   UNL     1      -4.219  10.811  15.524  0.00  0.00    +0.000 C 
BRANCH  18  19
ATOM     19  C   UNL     1      -3.241  10.133  14.596  0.00  0.00    +0.000 C 
BRANCH  19  20
ATOM     20  C   UNL     1      -3.856   9.854  13.236  0.00  0.00    +0.000 C 
BRANCH  20  21
ATOM     21  O   UNL     1      -2.827   9.580  12.298  0.00  0.00    +0.000 OA
ATOM     22  H   UNL     1      -2.815  10.303  11.649  0.00  0.00    +0.000 HD
ENDBRANCH  20  21
ENDBRANCH  19  20
ENDBRANCH  18  19
ENDBRANCH  11  18
ENDBRANCH   6   9
BRANCH   1  28
ATOM     23  C   UNL     1       1.668   7.796  20.371  0.00  0.00    +0.000 A 
ATOM     24  C   UNL     1       1.926   6.435  20.113  0.00  0.00    +0.000 A 
ATOM     25  C   UNL     1       2.373   5.985  18.872  0.00  0.00    +0.000 A 
ATOM     26  C   UNL     1       2.495   6.953  17.868  0.00  0.00    +0.000 A 
ATOM     27  C   UNL     1       2.273   8.326  18.119  0.00  0.00    +0.000 A 
ATOM     28  C   UNL     1       1.932   8.779  19.393  0.00  0.00    +0.000 A 
BRANCH  23  30
ATOM     29  C   UNL     1      -0.225   8.321  21.702  0.00  0.00    +0.000 C 
ATOM     30  O   UNL     1       1.201   8.222  21.603  0.00  0.00    +0.000 OA
ENDBRANCH  23  30
BRANCH  25  31
ATOM     31  N   UNL     1       2.675   4.640  18.629  0.00  0.00    +0.000 N 
ATOM     32  C   UNL     1       1.580   3.675  18.518  0.00  0.00    +0.000 C 
BRANCH  31  33
ATOM     33  C   UNL     1       3.901   4.121  19.274  0.00  0.00    +0.000 C 
BRANCH  33  34
ATOM     34  C   UNL     1       5.116   5.092  19.188  0.00  0.00    +0.000 C 
BRANCH  34  35
ATOM     35  N   UNL     1       5.923   4.987  17.945  0.00  0.00    +0.000 NA
ATOM     36  C   UNL     1       5.263   4.151  16.940  0.00  0.00    +0.000 C 
ATOM     37  C   UNL     1       6.164   6.323  17.389  0.00  0.00    +0.000 C 
ENDBRANCH  34  35
ENDBRANCH  33  34
ENDBRANCH  31  33
ENDBRANCH  25  31
ENDBRANCH   1  28
TORSDOF 11
ENDMDL
