MODEL 1
REMARK VINA RESULT:      -9.4      0.000      0.000
REMARK  Name = 
REMARK  5 active torsions:
REMARK  status: ('A' for Active; 'I' for Inactive)
REMARK    1  A    between atoms: C_2  and  C_4
REMARK    2  A    between atoms: N_10  and  C_11
REMARK    3  A    between atoms: C_11  and  C_12
REMARK    4  A    between atoms: C_16  and  N_17
REMARK    5  A    between atoms: N_20  and  C_21
REMARK                            x       y       z     vdW  Elec       q    Type
REMARK                         _______ _______ _______ _____ _____    ______ ____
ROOT
ATOM      1  C   UNL     1       2.536   6.124  19.578  0.00  0.00    +0.000 A 
ATOM      2  C   UNL     1       2.013   5.372  20.642  0.00  0.00    +0.000 A 
ATOM      3  C   UNL     1       2.376   4.034  20.791  0.00  0.00    +0.000 A 
ATOM      4  C   UNL     1       3.249   3.432  19.880  0.00  0.00    +0.000 A 
ATOM      5  C   UNL     1       3.763   4.160  18.797  0.00  0.00    +0.000 A 
ATOM      6  C   UNL     1       3.402   5.509  18.664  0.00  0.00    +0.000 A 
ENDROOT
BRANCH   5   7
ATOM      7  N   UNL     1       4.657   3.606  17.854  0.00  0.00    +0.000 N 
ATOM      8  C   UNL     1       5.016   4.201  16.656  0.00  0.00    +0.000 C 
ATOM      9  O   UNL     1       4.666   5.316  16.291  0.00  0.00    +0.000 OA
ATOM     10  N   UNL     1       5.825   3.371  15.884  0.00  0.00    +0.000 N 
ATOM     11  H   UNL     1       5.264   2.870  18.184  0.00  0.00    +0.000 HD
ATOM     12  H   UNL     1       5.596   2.388  15.954  0.00  0.00    +0.000 HD
BRANCH  10  13
ATOM     13  C   UNL     1       6.327   3.819  14.640  0.00  0.00    +0.000 A 
ATOM     14  C   UNL     1       7.311   4.819  14.577  0.00  0.00    +0.000 A 
ATOM     15  C   UNL     1       7.763   5.278  13.338  0.00  0.00    +0.000 A 
ATOM     16  C   UNL     1       7.218   4.757  12.174  0.00  0.00    +0.000 A 
ATOM     17  F   UNL     1       7.634   5.213  10.986  0.00  0.00    +0.000 F 
ATOM     18  C   UNL     1       6.241   3.766  12.226  0.00  0.00    +0.000 A 
ATOM     19  C   UNL     1       5.810   3.276  13.463  0.00  0.00    +0.000 A 
ENDBRANCH  10  13
ENDBRANCH   5   7
BRANCH   1  20
ATOM     20  C   UNL     1       2.248   7.607  19.456  0.00  0.00    +0.000 C 
BRANCH  20  27
ATOM     21  C   UNL     1      -1.375  12.043  21.546  0.00  0.00    +0.000 A 
ATOM     22  C   UNL     1      -1.658  11.599  22.845  0.00  0.00    +0.000 A 
ATOM     23  C   UNL     1      -1.089  10.430  23.320  0.00  0.00    +0.000 A 
ATOM     24  C   UNL     1      -0.267   9.679  22.476  0.00  0.00    +0.000 A 
ATOM     25  C   UNL     1       0.024  10.102  21.148  0.00  0.00    +0.000 A 
ATOM     26  C   UNL     1       0.828   9.390  20.220  0.00  0.00    +0.000 A 
ATOM     27  N   UNL     1       1.346   8.104  20.511  0.00  0.00    +0.000 N 
ATOM     28  N   UNL     1       1.057   9.868  18.983  0.00  0.00    +0.000 NA
ATOM     29  C   UNL     1       0.498  11.030  18.659  0.00  0.00    +0.000 A 
ATOM     30  N   UNL     1      -0.270  11.777  19.444  0.00  0.00    +0.000 NA
ATOM     31  C   UNL     1      -0.534  11.314  20.687  0.00  0.00    +0.000 A 
ATOM     32  H   UNL     1       1.791   8.084  21.421  0.00  0.00    +0.000 HD
BRANCH  21  34
ATOM     33  N   UNL     1      -2.838  13.253  19.996  0.00  0.00    +0.000 N 
ATOM     34  C   UNL     1      -2.057  13.303  21.122  0.00  0.00    +0.000 C 
ATOM     35  O   UNL     1      -1.898  14.358  21.732  0.00  0.00    +0.000 OA
ATOM     36  H   UNL     1      -3.412  14.061  19.796  0.00  0.00    +0.000 HD
ATOM     37  H   UNL     1      -3.132  12.351  19.641  0.00  0.00    +0.000 HD
ENDBRANCH  21  34
ENDBRANCH  20  27
ENDBRANCH   1  20
TORSDOF 5
ENDMDL
MODEL 2
REMARK VINA RESULT:      -9.4      4.679      9.907
REMARK  Name = 
REMARK  5 active torsions:
REMARK  status: ('A' for Active; 'I' for Inactive)
REMARK    1  A    between atoms: C_2  and  C_4
REMARK    2  A    between atoms: N_10  and  C_11
REMARK    3  A    between atoms: C_11  and  C_12
REMARK    4  A    between atoms: C_16  and  N_17
REMARK    5  A    between atoms: N_20  and  C_21
REMARK                            x       y       z     vdW  Elec       q    Type
REMARK                         _______ _______ _______ _____ _____    ______ ____
ROOT
ATOM      1  C   UNL     1       0.655  10.115  19.841  0.00  0.00    +0.000 A 
ATOM      2  C   UNL     1      -0.697  10.463  19.996  0.00  0.00    +0.000 A 
ATOM      3  C   UNL     1      -1.172  11.661  19.462  0.00  0.00    +0.000 A 
ATOM      4  C   UNL     1      -0.306  12.524  18.784  0.00  0.00    +0.000 A 
ATOM      5  C   UNL     1       1.052  12.206  18.639  0.00  0.00    +0.000 A 
ATOM      6  C   UNL     1       1.516  10.992  19.168  0.00  0.00    +0.000 A 
ENDROOT
BRANCH   5   7
ATOM      7  N   UNL     1       1.966  13.035  17.953  0.00  0.00    +0.000 N 
ATOM      8  C   UNL     1       3.019  13.714  18.545  0.00  0.00    +0.000 C 
ATOM      9  O   UNL     1       3.342  13.625  19.723  0.00  0.00    +0.000 OA
ATOM     10  N   UNL     1       3.681  14.540  17.639  0.00  0.00    +0.000 N 
ATOM     11  H   UNL     1       2.017  12.922  16.952  0.00  0.00    +0.000 HD
ATOM     12  H   UNL     1       3.075  14.971  16.954  0.00  0.00    +0.000 HD
BRANCH  10  13
ATOM     13  C   UNL     1       4.811  15.286  18.047  0.00  0.00    +0.000 A 
ATOM     14  C   UNL     1       4.663  16.531  18.681  0.00  0.00    +0.000 A 
ATOM     15  C   UNL     1       5.791  17.271  19.039  0.00  0.00    +0.000 A 
ATOM     16  C   UNL     1       7.054  16.780  18.745  0.00  0.00    +0.000 A 
ATOM     17  F   UNL     1       8.136  17.500  19.066  0.00  0.00    +0.000 F 
ATOM     18  C   UNL     1       7.212  15.548  18.115  0.00  0.00    +0.000 A 
ATOM     19  C   UNL     1       6.087  14.785  17.787  0.00  0.00    +0.000 A 
ENDBRANCH  10  13
ENDBRANCH   5   7
BRANCH   1  20
ATOM     20  C   UNL     1       1.173   8.770  20.312  0.00  0.00    +0.000 C 
BRANCH  20  27
ATOM     21  C   UNL     1       4.004   3.691  18.482  0.00  0.00    +0.000 A 
ATOM     22  C   UNL     1       4.686   4.134  17.340  0.00  0.00    +0.000 A 
ATOM     23  C   UNL     1       4.614   5.463  16.958  0.00  0.00    +0.000 A 
ATOM     24  C   UNL     1       3.820   6.343  17.698  0.00  0.00    +0.000 A 
ATOM     25  C   UNL     1       3.107   5.913  18.853  0.00  0.00    +0.000 A 
ATOM     26  C   UNL     1       2.263   6.735  19.645  0.00  0.00    +0.000 A 
ATOM     27  N   UNL     1       1.968   8.073  19.286  0.00  0.00    +0.000 N 
ATOM     28  N   UNL     1       1.630   6.246  20.728  0.00  0.00    +0.000 NA
ATOM     29  C   UNL     1       1.819   4.965  21.026  0.00  0.00    +0.000 A 
ATOM     30  N   UNL     1       2.582   4.108  20.356  0.00  0.00    +0.000 NA
ATOM     31  C   UNL     1       3.217   4.564  19.253  0.00  0.00    +0.000 A 
ATOM     32  H   UNL     1       2.811   8.586  19.055  0.00  0.00    +0.000 HD
BRANCH  21  34
ATOM     33  N   UNL     1       4.926   1.880  19.852  0.00  0.00    +0.000 N 
ATOM     34  C   UNL     1       4.128   2.235  18.794  0.00  0.00    +0.000 C 
ATOM     35  O   UNL     1       3.570   1.379  18.111  0.00  0.00    +0.000 OA
ATOM     36  H   UNL     1       4.892   0.915  20.153  0.00  0.00    +0.000 HD
ATOM     37  H   UNL     1       5.194   2.587  20.526  0.00  0.00    +0.000 HD
ENDBRANCH  21  34
ENDBRANCH  20  27
ENDBRANCH   1  20
TORSDOF 5
ENDMDL
MODEL 3
REMARK VINA RESULT:      -9.2      4.937      6.286
REMARK  Name = 
REMARK  5 active torsions:
REMARK  status: ('A' for Active; 'I' for Inactive)
REMARK    1  A    between atoms: C_2  and  C_4
REMARK    2  A    between atoms: N_10  and  C_11
REMARK    3  A    between atoms: C_11  and  C_12
REMARK    4  A    between atoms: C_16  and  N_17
REMARK    5  A    between atoms: N_20  and  C_21
REMARK                            x       y       z     vdW  Elec       q    Type
REMARK                         _______ _______ _______ _____ _____    ______ ____
ROOT
ATOM      1  C   UNL     1       4.946   5.529  17.220  0.00  0.00    +0.000 A 
ATOM      2  C   UNL     1       5.459   4.541  16.364  0.00  0.00    +0.000 A 
ATOM      3  C   UNL     1       6.839   4.376  16.241  0.00  0.00    +0.000 A 
ATOM      4  C   UNL     1       7.715   5.198  16.956  0.00  0.00    +0.000 A 
ATOM      5  C   UNL     1       7.223   6.206  17.797  0.00  0.00    +0.000 A 
ATOM      6  C   UNL     1       5.833   6.354  17.924  0.00  0.00    +0.000 A 
ENDROOT
BRANCH   5   7
ATOM      7  N   UNL     1       8.063   7.056  18.551  0.00  0.00    +0.000 N 
ATOM      8  C   UNL     1       8.182   8.423  18.362  0.00  0.00    +0.000 C 
ATOM      9  O   UNL     1       7.523   9.085  17.571  0.00  0.00    +0.000 OA
ATOM     10  N   UNL     1       9.167   8.977  19.177  0.00  0.00    +0.000 N 
ATOM     11  H   UNL     1       8.392   6.699  19.435  0.00  0.00    +0.000 HD
ATOM     12  H   UNL     1       9.968   8.377  19.323  0.00  0.00    +0.000 HD
BRANCH  10  13
ATOM     13  C   UNL     1       9.411  10.370  19.156  0.00  0.00    +0.000 A 
ATOM     14  C   UNL     1       9.330  11.134  20.331  0.00  0.00    +0.000 A 
ATOM     15  C   UNL     1       9.532  12.514  20.283  0.00  0.00    +0.000 A 
ATOM     16  C   UNL     1       9.791  13.126  19.065  0.00  0.00    +0.000 A 
ATOM     17  F   UNL     1       9.962  14.453  19.014  0.00  0.00    +0.000 F 
ATOM     18  C   UNL     1       9.872  12.377  17.894  0.00  0.00    +0.000 A 
ATOM     19  C   UNL     1       9.706  10.989  17.942  0.00  0.00    +0.000 A 
ENDBRANCH  10  13
ENDBRANCH   5   7
BRANCH   1  20
ATOM     20  C   UNL     1       3.455   5.656  17.459  0.00  0.00    +0.000 C 
BRANCH  20  27
ATOM     21  C   UNL     1       0.559   9.870  20.780  0.00  0.00    +0.000 A 
ATOM     22  C   UNL     1       0.527  10.961  19.901  0.00  0.00    +0.000 A 
ATOM     23  C   UNL     1       1.048  10.841  18.623  0.00  0.00    +0.000 A 
ATOM     24  C   UNL     1       1.643   9.636  18.240  0.00  0.00    +0.000 A 
ATOM     25  C   UNL     1       1.701   8.519  19.120  0.00  0.00    +0.000 A 
ATOM     26  C   UNL     1       2.306   7.271  18.819  0.00  0.00    +0.000 A 
ATOM     27  N   UNL     1       3.017   7.055  17.613  0.00  0.00    +0.000 N 
ATOM     28  N   UNL     1       2.309   6.263  19.712  0.00  0.00    +0.000 NA
ATOM     29  C   UNL     1       1.729   6.480  20.888  0.00  0.00    +0.000 A 
ATOM     30  N   UNL     1       1.138   7.605  21.275  0.00  0.00    +0.000 NA
ATOM     31  C   UNL     1       1.134   8.642  20.407  0.00  0.00    +0.000 A 
ATOM     32  H   UNL     1       2.483   7.369  16.810  0.00  0.00    +0.000 HD
BRANCH  21  34
ATOM     33  N   UNL     1      -0.674   9.072  22.742  0.00  0.00    +0.000 N 
ATOM     34  C   UNL     1      -0.008  10.109  22.141  0.00  0.00    +0.000 C 
ATOM     35  O   UNL     1       0.081  11.205  22.693  0.00  0.00    +0.000 OA
ATOM     36  H   UNL     1      -0.927   9.186  23.714  0.00  0.00    +0.000 HD
ATOM     37  H   UNL     1      -0.550   8.133  22.382  0.00  0.00    +0.000 HD
ENDBRANCH  21  34
ENDBRANCH  20  27
ENDBRANCH   1  20
TORSDOF 5
ENDMDL
MODEL 4
REMARK VINA RESULT:      -9.1      1.220      2.118
REMARK  Name = 
REMARK  5 active torsions:
REMARK  status: ('A' for Active; 'I' for Inactive)
REMARK    1  A    between atoms: C_2  and  C_4
REMARK    2  A    between atoms: N_10  and  C_11
REMARK    3  A    between atoms: C_11  and  C_12
REMARK    4  A    between atoms: C_16  and  N_17
REMARK    5  A    between atoms: N_20  and  C_21
REMARK                            x       y       z     vdW  Elec       q    Type
REMARK                         _______ _______ _______ _____ _____    ______ ____
ROOT
ATOM      1  C   UNL     1       2.163   5.274  20.230  0.00  0.00    +0.000 A 
ATOM      2  C   UNL     1       1.141   4.349  20.499  0.00  0.00    +0.000 A 
ATOM      3  C   UNL     1       1.198   3.070  19.947  0.00  0.00    +0.000 A 
ATOM      4  C   UNL     1       2.262   2.706  19.116  0.00  0.00    +0.000 A 
ATOM      5  C   UNL     1       3.280   3.622  18.816  0.00  0.00    +0.000 A 
ATOM      6  C   UNL     1       3.220   4.902  19.387  0.00  0.00    +0.000 A 
ENDROOT
BRANCH   5   7
ATOM      7  N   UNL     1       4.383   3.303  17.993  0.00  0.00    +0.000 N 
ATOM      8  C   UNL     1       4.673   3.914  16.784  0.00  0.00    +0.000 C 
ATOM      9  O   UNL     1       4.059   4.860  16.307  0.00  0.00    +0.000 OA
ATOM     10  N   UNL     1       5.757   3.315  16.145  0.00  0.00    +0.000 N 
ATOM     11  H   UNL     1       5.138   2.793  18.426  0.00  0.00    +0.000 HD
ATOM     12  H   UNL     1       5.810   2.314  16.273  0.00  0.00    +0.000 HD
BRANCH  10  13
ATOM     13  C   UNL     1       6.230   3.826  14.914  0.00  0.00    +0.000 A 
ATOM     14  C   UNL     1       5.817   3.265  13.694  0.00  0.00    +0.000 A 
ATOM     15  C   UNL     1       6.327   3.755  12.491  0.00  0.00    +0.000 A 
ATOM     16  C   UNL     1       7.260   4.782  12.511  0.00  0.00    +0.000 A 
ATOM     17  F   UNL     1       7.768   5.237  11.359  0.00  0.00    +0.000 F 
ATOM     18  C   UNL     1       7.677   5.344  13.715  0.00  0.00    +0.000 A 
ATOM     19  C   UNL     1       7.142   4.881  14.921  0.00  0.00    +0.000 A 
ENDBRANCH  10  13
ENDBRANCH   5   7
BRANCH   1  20
ATOM     20  C   UNL     1       2.185   6.631  20.905  0.00  0.00    +0.000 C 
BRANCH  20  27
ATOM     21  C   UNL     1      -1.066  11.780  20.617  0.00  0.00    +0.000 A 
ATOM     22  C   UNL     1      -1.287  11.907  19.238  0.00  0.00    +0.000 A 
ATOM     23  C   UNL     1      -0.820  10.938  18.366  0.00  0.00    +0.000 A 
ATOM     24  C   UNL     1      -0.092   9.859  18.873  0.00  0.00    +0.000 A 
ATOM     25  C   UNL     1       0.157   9.715  20.267  0.00  0.00    +0.000 A 
ATOM     26  C   UNL     1       0.905   8.665  20.860  0.00  0.00    +0.000 A 
ATOM     27  N   UNL     1       1.576   7.690  20.081  0.00  0.00    +0.000 N 
ATOM     28  N   UNL     1       1.087   8.603  22.193  0.00  0.00    +0.000 NA
ATOM     29  C   UNL     1       0.544   9.564  22.933  0.00  0.00    +0.000 A 
ATOM     30  N   UNL     1      -0.169  10.591  22.485  0.00  0.00    +0.000 NA
ATOM     31  C   UNL     1      -0.354  10.691  21.150  0.00  0.00    +0.000 A 
ATOM     32  H   UNL     1       0.965   7.304  19.370  0.00  0.00    +0.000 HD
BRANCH  21  34
ATOM     33  N   UNL     1      -2.553  12.579  22.394  0.00  0.00    +0.000 N 
ATOM     34  C   UNL     1      -1.590  12.890  21.468  0.00  0.00    +0.000 C 
ATOM     35  O   UNL     1      -1.204  14.049  21.326  0.00  0.00    +0.000 OA
ATOM     36  H   UNL     1      -2.797  13.294  23.065  0.00  0.00    +0.000 HD
ATOM     37  H   UNL     1      -2.696  11.609  22.649  0.00  0.00    +0.000 HD
ENDBRANCH  21  34
ENDBRANCH  20  27
ENDBRANCH   1  20
TORSDOF 5
ENDMDL
MODEL 5
REMARK VINA RESULT:      -9.0      4.757     11.686
REMARK  Name = 
REMARK  5 active torsions:
REMARK  status: ('A' for Active; 'I' for Inactive)
REMARK    1  A    between atoms: C_2  and  C_4
REMARK    2  A    between atoms: N_10  and  C_11
REMARK    3  A    between atoms: C_11  and  C_12
REMARK    4  A    between atoms: C_16  and  N_17
REMARK    5  A    between atoms: N_20  and  C_21
REMARK                            x       y       z     vdW  Elec       q    Type
REMARK                         _______ _______ _______ _____ _____    ______ ____
ROOT
ATOM      1  C   UNL     1       1.791   9.936  18.491  0.00  0.00    +0.000 A 
ATOM      2  C   UNL     1       2.319  11.134  17.981  0.00  0.00    +0.000 A 
ATOM      3  C   UNL     1       1.901  12.356  18.506  0.00  0.00    +0.000 A 
ATOM      4  C   UNL     1       0.950  12.398  19.530  0.00  0.00    +0.000 A 
ATOM      5  C   UNL     1       0.394  11.215  20.036  0.00  0.00    +0.000 A 
ATOM      6  C   UNL     1       0.830   9.989  19.510  0.00  0.00    +0.000 A 
ENDROOT
BRANCH   5   7
ATOM      7  N   UNL     1      -0.561  11.199  21.077  0.00  0.00    +0.000 N 
ATOM      8  C   UNL     1      -1.383  12.262  21.415  0.00  0.00    +0.000 C 
ATOM      9  O   UNL     1      -1.444  13.325  20.812  0.00  0.00    +0.000 OA
ATOM     10  N   UNL     1      -2.142  11.991  22.552  0.00  0.00    +0.000 N 
ATOM     11  H   UNL     1      -0.844  10.293  21.418  0.00  0.00    +0.000 HD
ATOM     12  H   UNL     1      -1.662  11.435  23.247  0.00  0.00    +0.000 HD
BRANCH  10  13
ATOM     13  C   UNL     1      -3.072  12.943  23.032  0.00  0.00    +0.000 A 
ATOM     14  C   UNL     1      -4.411  12.918  22.611  0.00  0.00    +0.000 A 
ATOM     15  C   UNL     1      -5.304  13.891  23.063  0.00  0.00    +0.000 A 
ATOM     16  C   UNL     1      -4.855  14.892  23.911  0.00  0.00    +0.000 A 
ATOM     17  F   UNL     1      -5.704  15.840  24.327  0.00  0.00    +0.000 F 
ATOM     18  C   UNL     1      -3.528  14.926  24.333  0.00  0.00    +0.000 A 
ATOM     19  C   UNL     1      -2.637  13.934  23.913  0.00  0.00    +0.000 A 
ENDBRANCH  10  13
ENDBRANCH   5   7
BRANCH   1  20
ATOM     20  C   UNL     1       2.308   8.592  18.018  0.00  0.00    +0.000 C 
BRANCH  20  27
ATOM     21  C   UNL     1       3.409   2.893  19.885  0.00  0.00    +0.000 A 
ATOM     22  C   UNL     1       2.415   2.709  20.855  0.00  0.00    +0.000 A 
ATOM     23  C   UNL     1       1.494   3.711  21.108  0.00  0.00    +0.000 A 
ATOM     24  C   UNL     1       1.596   4.921  20.417  0.00  0.00    +0.000 A 
ATOM     25  C   UNL     1       2.606   5.138  19.437  0.00  0.00    +0.000 A 
ATOM     26  C   UNL     1       2.793   6.341  18.708  0.00  0.00    +0.000 A 
ATOM     27  N   UNL     1       2.029   7.504  18.972  0.00  0.00    +0.000 N 
ATOM     28  N   UNL     1       3.773   6.457  17.792  0.00  0.00    +0.000 NA
ATOM     29  C   UNL     1       4.562   5.406  17.598  0.00  0.00    +0.000 A 
ATOM     30  N   UNL     1       4.479   4.237  18.224  0.00  0.00    +0.000 NA
ATOM     31  C   UNL     1       3.517   4.095  19.162  0.00  0.00    +0.000 A 
ATOM     32  H   UNL     1       1.039   7.291  19.016  0.00  0.00    +0.000 HD
BRANCH  21  34
ATOM     33  N   UNL     1       4.250   1.008  18.564  0.00  0.00    +0.000 N 
ATOM     34  C   UNL     1       4.366   1.761  19.704  0.00  0.00    +0.000 C 
ATOM     35  O   UNL     1       5.205   1.483  20.560  0.00  0.00    +0.000 OA
ATOM     36  H   UNL     1       4.985   0.341  18.373  0.00  0.00    +0.000 HD
ATOM     37  H   UNL     1       3.717   1.375  17.784  0.00  0.00    +0.000 HD
ENDBRANCH  21  34
ENDBRANCH  20  27
ENDBRANCH   1  20
TORSDOF 5
ENDMDL
MODEL 6
REMARK VINA RESULT:      -8.9      1.344      2.257
REMARK  Name = 
REMARK  5 active torsions:
REMARK  status: ('A' for Active; 'I' for Inactive)
REMARK    1  A    between atoms: C_2  and  C_4
REMARK    2  A    between atoms: N_10  and  C_11
REMARK    3  A    between atoms: C_11  and  C_12
REMARK    4  A    between atoms: C_16  and  N_17
REMARK    5  A    between atoms: N_20  and  C_21
REMARK                            x       y       z     vdW  Elec       q    Type
REMARK                         _______ _______ _______ _____ _____    ______ ____
ROOT
ATOM      1  C   UNL     1       1.963   4.871  20.181  0.00  0.00    +0.000 A 
ATOM      2  C   UNL     1       1.079   3.785  20.279  0.00  0.00    +0.000 A 
ATOM      3  C   UNL     1       1.390   2.577  19.655  0.00  0.00    +0.000 A 
ATOM      4  C   UNL     1       2.573   2.445  18.921  0.00  0.00    +0.000 A 
ATOM      5  C   UNL     1       3.457   3.525  18.792  0.00  0.00    +0.000 A 
ATOM      6  C   UNL     1       3.142   4.732  19.435  0.00  0.00    +0.000 A 
ENDROOT
BRANCH   5   7
ATOM      7  N   UNL     1       4.671   3.443  18.073  0.00  0.00    +0.000 N 
ATOM      8  C   UNL     1       4.846   3.857  16.763  0.00  0.00    +0.000 C 
ATOM      9  O   UNL     1       3.997   4.417  16.082  0.00  0.00    +0.000 OA
ATOM     10  N   UNL     1       6.118   3.549  16.285  0.00  0.00    +0.000 N 
ATOM     11  H   UNL     1       5.512   3.322  18.617  0.00  0.00    +0.000 HD
ATOM     12  H   UNL     1       6.489   2.675  16.631  0.00  0.00    +0.000 HD
BRANCH  10  13
ATOM     13  C   UNL     1       6.500   3.929  14.978  0.00  0.00    +0.000 A 
ATOM     14  C   UNL     1       7.410   4.978  14.768  0.00  0.00    +0.000 A 
ATOM     15  C   UNL     1       7.743   5.366  13.469  0.00  0.00    +0.000 A 
ATOM     16  C   UNL     1       7.152   4.724  12.390  0.00  0.00    +0.000 A 
ATOM     17  F   UNL     1       7.453   5.110  11.144  0.00  0.00    +0.000 F 
ATOM     18  C   UNL     1       6.248   3.683  12.588  0.00  0.00    +0.000 A 
ATOM     19  C   UNL     1       5.939   3.266  13.886  0.00  0.00    +0.000 A 
ENDBRANCH  10  13
ENDBRANCH   5   7
BRANCH   1  20
ATOM     20  C   UNL     1       1.706   6.157  20.941  0.00  0.00    +0.000 C 
BRANCH  20  27
ATOM     21  C   UNL     1       0.438  11.958  19.557  0.00  0.00    +0.000 A 
ATOM     22  C   UNL     1       1.272  12.182  18.452  0.00  0.00    +0.000 A 
ATOM     23  C   UNL     1       2.059  11.157  17.955  0.00  0.00    +0.000 A 
ATOM     24  C   UNL     1       2.045   9.914  18.595  0.00  0.00    +0.000 A 
ATOM     25  C   UNL     1       1.217   9.667  19.727  0.00  0.00    +0.000 A 
ATOM     26  C   UNL     1       1.160   8.445  20.446  0.00  0.00    +0.000 A 
ATOM     27  N   UNL     1       2.023   7.361  20.152  0.00  0.00    +0.000 N 
ATOM     28  N   UNL     1       0.341   8.296  21.505  0.00  0.00    +0.000 NA
ATOM     29  C   UNL     1      -0.409   9.336  21.855  0.00  0.00    +0.000 A 
ATOM     30  N   UNL     1      -0.433  10.522  21.257  0.00  0.00    +0.000 NA
ATOM     31  C   UNL     1       0.392  10.709  20.202  0.00  0.00    +0.000 A 
ATOM     32  H   UNL     1       2.038   7.162  19.158  0.00  0.00    +0.000 HD
BRANCH  21  34
ATOM     33  N   UNL     1      -1.678  13.189  19.675  0.00  0.00    +0.000 N 
ATOM     34  C   UNL     1      -0.353  13.134  20.028  0.00  0.00    +0.000 C 
ATOM     35  O   UNL     1       0.165  14.041  20.676  0.00  0.00    +0.000 OA
ATOM     36  H   UNL     1      -2.243  13.902  20.115  0.00  0.00    +0.000 HD
ATOM     37  H   UNL     1      -2.134  12.349  19.342  0.00  0.00    +0.000 HD
ENDBRANCH  21  34
ENDBRANCH  20  27
ENDBRANCH   1  20
TORSDOF 5
ENDMDL
MODEL 7
REMARK VINA RESULT:      -8.9      2.174      2.941
REMARK  Name = 
REMARK  5 active torsions:
REMARK  status: ('A' for Active; 'I' for Inactive)
REMARK    1  A    between atoms: C_2  and  C_4
REMARK    2  A    between atoms: N_10  and  C_11
REMARK    3  A    between atoms: C_11  and  C_12
REMARK    4  A    between atoms: C_16  and  N_17
REMARK    5  A    between atoms: N_20  and  C_21
REMARK                            x       y       z     vdW  Elec       q    Type
REMARK                         _______ _______ _______ _____ _____    ______ ____
ROOT
ATOM      1  C   UNL     1       2.018   8.165  18.979  0.00  0.00    +0.000 A 
ATOM      2  C   UNL     1       1.522   7.867  20.259  0.00  0.00    +0.000 A 
ATOM      3  C   UNL     1       1.756   6.613  20.821  0.00  0.00    +0.000 A 
ATOM      4  C   UNL     1       2.472   5.643  20.112  0.00  0.00    +0.000 A 
ATOM      5  C   UNL     1       2.955   5.913  18.824  0.00  0.00    +0.000 A 
ATOM      6  C   UNL     1       2.726   7.182  18.272  0.00  0.00    +0.000 A 
ENDROOT
BRANCH   5   7
ATOM      7  N   UNL     1       3.694   4.975  18.069  0.00  0.00    +0.000 N 
ATOM      8  C   UNL     1       4.371   5.259  16.894  0.00  0.00    +0.000 C 
ATOM      9  O   UNL     1       4.482   6.372  16.396  0.00  0.00    +0.000 OA
ATOM     10  N   UNL     1       4.915   4.113  16.316  0.00  0.00    +0.000 N 
ATOM     11  H   UNL     1       3.960   4.124  18.540  0.00  0.00    +0.000 HD
ATOM     12  H   UNL     1       4.346   3.285  16.428  0.00  0.00    +0.000 HD
BRANCH  10  13
ATOM     13  C   UNL     1       5.678   4.206  15.129  0.00  0.00    +0.000 A 
ATOM     14  C   UNL     1       6.885   4.923  15.101  0.00  0.00    +0.000 A 
ATOM     15  C   UNL     1       7.602   5.039  13.910  0.00  0.00    +0.000 A 
ATOM     16  C   UNL     1       7.104   4.461  12.752  0.00  0.00    +0.000 A 
ATOM     17  F   UNL     1       7.779   4.591  11.603  0.00  0.00    +0.000 F 
ATOM     18  C   UNL     1       5.907   3.749  12.768  0.00  0.00    +0.000 A 
ATOM     19  C   UNL     1       5.202   3.599  13.967  0.00  0.00    +0.000 A 
ENDBRANCH  10  13
ENDBRANCH   5   7
BRANCH   1  20
ATOM     20  C   UNL     1       1.876   9.554  18.391  0.00  0.00    +0.000 C 
BRANCH  20  27
ATOM     21  C   UNL     1      -3.856  11.629  18.520  0.00  0.00    +0.000 A 
ATOM     22  C   UNL     1      -4.371  11.136  17.313  0.00  0.00    +0.000 A 
ATOM     23  C   UNL     1      -3.583  10.349  16.490  0.00  0.00    +0.000 A 
ATOM     24  C   UNL     1      -2.259  10.092  16.856  0.00  0.00    +0.000 A 
ATOM     25  C   UNL     1      -1.709  10.594  18.069  0.00  0.00    +0.000 A 
ATOM     26  C   UNL     1      -0.372  10.400  18.503  0.00  0.00    +0.000 A 
ATOM     27  N   UNL     1       0.592   9.752  17.693  0.00  0.00    +0.000 N 
ATOM     28  N   UNL     1       0.064  10.907  19.673  0.00  0.00    +0.000 NA
ATOM     29  C   UNL     1      -0.803  11.601  20.403  0.00  0.00    +0.000 A 
ATOM     30  N   UNL     1      -2.071  11.845  20.094  0.00  0.00    +0.000 NA
ATOM     31  C   UNL     1      -2.533  11.365  18.918  0.00  0.00    +0.000 A 
ATOM     32  H   UNL     1       0.233   8.881  17.319  0.00  0.00    +0.000 HD
BRANCH  21  34
ATOM     33  N   UNL     1      -4.293  13.681  19.787  0.00  0.00    +0.000 N 
ATOM     34  C   UNL     1      -4.779  12.485  19.323  0.00  0.00    +0.000 C 
ATOM     35  O   UNL     1      -5.922  12.122  19.596  0.00  0.00    +0.000 OA
ATOM     36  H   UNL     1      -4.957  14.321  20.201  0.00  0.00    +0.000 HD
ATOM     37  H   UNL     1      -3.447  14.060  19.379  0.00  0.00    +0.000 HD
ENDBRANCH  21  34
ENDBRANCH  20  27
ENDBRANCH   1  20
TORSDOF 5
ENDMDL
MODEL 8
REMARK VINA RESULT:      -8.9      5.037     11.988
REMARK  Name = 
REMARK  5 active torsions:
REMARK  status: ('A' for Active; 'I' for Inactive)
REMARK    1  A    between atoms: C_2  and  C_4
REMARK    2  A    between atoms: N_10  and  C_11
REMARK    3  A    between atoms: C_11  and  C_12
REMARK    4  A    between atoms: C_16  and  N_17
REMARK    5  A    between atoms: N_20  and  C_21
REMARK                            x       y       z     vdW  Elec       q    Type
REMARK                         _______ _______ _______ _____ _____    ______ ____
ROOT
ATOM      1  C   UNL     1       0.084  10.383  18.692  0.00  0.00    +0.000 A 
ATOM      2  C   UNL     1      -0.742   9.622  17.851  0.00  0.00    +0.000 A 
ATOM      3  C   UNL     1      -1.989  10.116  17.467  0.00  0.00    +0.000 A 
ATOM      4  C   UNL     1      -2.426  11.362  17.927  0.00  0.00    +0.000 A 
ATOM      5  C   UNL     1      -1.626  12.127  18.787  0.00  0.00    +0.000 A 
ATOM      6  C   UNL     1      -0.368  11.627  19.156  0.00  0.00    +0.000 A 
ENDROOT
BRANCH   5   7
ATOM      7  N   UNL     1      -2.014  13.396  19.271  0.00  0.00    +0.000 N 
ATOM      8  C   UNL     1      -2.533  13.639  20.532  0.00  0.00    +0.000 C 
ATOM      9  O   UNL     1      -2.653  12.803  21.418  0.00  0.00    +0.000 OA
ATOM     10  N   UNL     1      -2.927  14.967  20.686  0.00  0.00    +0.000 N 
ATOM     11  H   UNL     1      -1.654  14.199  18.776  0.00  0.00    +0.000 HD
ATOM     12  H   UNL     1      -3.316  15.382  19.850  0.00  0.00    +0.000 HD
BRANCH  10  13
ATOM     13  C   UNL     1      -3.446  15.418  21.922  0.00  0.00    +0.000 A 
ATOM     14  C   UNL     1      -4.825  15.376  22.183  0.00  0.00    +0.000 A 
ATOM     15  C   UNL     1      -5.323  15.865  23.392  0.00  0.00    +0.000 A 
ATOM     16  C   UNL     1      -4.450  16.412  24.321  0.00  0.00    +0.000 A 
ATOM     17  F   UNL     1      -4.929  16.903  25.471  0.00  0.00    +0.000 F 
ATOM     18  C   UNL     1      -3.081  16.460  24.071  0.00  0.00    +0.000 A 
ATOM     19  C   UNL     1      -2.573  15.939  22.876  0.00  0.00    +0.000 A 
ENDBRANCH  10  13
ENDBRANCH   5   7
BRANCH   1  20
ATOM     20  C   UNL     1       1.487   9.922  19.033  0.00  0.00    +0.000 C 
BRANCH  20  27
ATOM     21  C   UNL     1       3.358   4.125  19.286  0.00  0.00    +0.000 A 
ATOM     22  C   UNL     1       2.630   3.632  20.377  0.00  0.00    +0.000 A 
ATOM     23  C   UNL     1       1.730   4.449  21.040  0.00  0.00    +0.000 A 
ATOM     24  C   UNL     1       1.590   5.779  20.634  0.00  0.00    +0.000 A 
ATOM     25  C   UNL     1       2.329   6.307  19.538  0.00  0.00    +0.000 A 
ATOM     26  C   UNL     1       2.264   7.648  19.077  0.00  0.00    +0.000 A 
ATOM     27  N   UNL     1       1.508   8.636  19.753  0.00  0.00    +0.000 N 
ATOM     28  N   UNL     1       2.995   8.061  18.024  0.00  0.00    +0.000 NA
ATOM     29  C   UNL     1       3.785   7.169  17.435  0.00  0.00    +0.000 A 
ATOM     30  N   UNL     1       3.925   5.894  17.783  0.00  0.00    +0.000 NA
ATOM     31  C   UNL     1       3.217   5.454  18.848  0.00  0.00    +0.000 A 
ATOM     32  H   UNL     1       0.571   8.308  19.956  0.00  0.00    +0.000 HD
BRANCH  21  34
ATOM     33  N   UNL     1       5.647   3.510  18.663  0.00  0.00    +0.000 N 
ATOM     34  C   UNL     1       4.319   3.170  18.655  0.00  0.00    +0.000 C 
ATOM     35  O   UNL     1       3.936   2.134  18.114  0.00  0.00    +0.000 OA
ATOM     36  H   UNL     1       6.307   2.802  18.371  0.00  0.00    +0.000 HD
ATOM     37  H   UNL     1       5.966   4.237  19.291  0.00  0.00    +0.000 HD
ENDBRANCH  21  34
ENDBRANCH  20  27
ENDBRANCH   1  20
TORSDOF 5
ENDMDL
MODEL 9
REMARK VINA RESULT:      -8.8      5.108      6.377
REMARK  Name = 
REMARK  5 active torsions:
REMARK  status: ('A' for Active; 'I' for Inactive)
REMARK    1  A    between atoms: C_2  and  C_4
REMARK    2  A    between atoms: N_10  and  C_11
REMARK    3  A    between atoms: C_11  and  C_12
REMARK    4  A    between atoms: C_16  and  N_17
REMARK    5  A    between atoms: N_20  and  C_21
REMARK                            x       y       z     vdW  Elec       q    Type
REMARK                         _______ _______ _______ _____ _____    ______ ____
ROOT
ATOM      1  C   UNL     1       4.753   6.003  17.058  0.00  0.00    +0.000 A 
ATOM      2  C   UNL     1       5.168   5.156  16.018  0.00  0.00    +0.000 A 
ATOM      3  C   UNL     1       6.527   5.009  15.741  0.00  0.00    +0.000 A 
ATOM      4  C   UNL     1       7.480   5.712  16.485  0.00  0.00    +0.000 A 
ATOM      5  C   UNL     1       7.084   6.581  17.512  0.00  0.00    +0.000 A 
ATOM      6  C   UNL     1       5.716   6.711  17.791  0.00  0.00    +0.000 A 
ENDROOT
BRANCH   5   7
ATOM      7  N   UNL     1       8.005   7.306  18.302  0.00  0.00    +0.000 N 
ATOM      8  C   UNL     1       8.183   8.679  18.253  0.00  0.00    +0.000 C 
ATOM      9  O   UNL     1       7.517   9.452  17.577  0.00  0.00    +0.000 OA
ATOM     10  N   UNL     1       9.236   9.096  19.064  0.00  0.00    +0.000 N 
ATOM     11  H   UNL     1       8.362   6.840  19.122  0.00  0.00    +0.000 HD
ATOM     12  H   UNL     1      10.013   8.449  19.098  0.00  0.00    +0.000 HD
BRANCH  10  13
ATOM     13  C   UNL     1       9.548  10.471  19.178  0.00  0.00    +0.000 A 
ATOM     14  C   UNL     1      10.132  11.169  18.108  0.00  0.00    +0.000 A 
ATOM     15  C   UNL     1      10.471  12.515  18.254  0.00  0.00    +0.000 A 
ATOM     16  C   UNL     1      10.248  13.150  19.466  0.00  0.00    +0.000 A 
ATOM     17  F   UNL     1      10.594  14.435  19.615  0.00  0.00    +0.000 F 
ATOM     18  C   UNL     1       9.670  12.466  20.533  0.00  0.00    +0.000 A 
ATOM     19  C   UNL     1       9.295  11.128  20.382  0.00  0.00    +0.000 A 
ENDBRANCH  10  13
ENDBRANCH   5   7
BRANCH   1  20
ATOM     20  C   UNL     1       3.293   6.095  17.454  0.00  0.00    +0.000 C 
BRANCH  20  27
ATOM     21  C   UNL     1       0.440  10.166  20.984  0.00  0.00    +0.000 A 
ATOM     22  C   UNL     1       0.371  11.283  20.141  0.00  0.00    +0.000 A 
ATOM     23  C   UNL     1       0.858  11.210  18.847  0.00  0.00    +0.000 A 
ATOM     24  C   UNL     1       1.457  10.026  18.409  0.00  0.00    +0.000 A 
ATOM     25  C   UNL     1       1.552   8.882  19.252  0.00  0.00    +0.000 A 
ATOM     26  C   UNL     1       2.163   7.652  18.895  0.00  0.00    +0.000 A 
ATOM     27  N   UNL     1       2.843   7.483  17.664  0.00  0.00    +0.000 N 
ATOM     28  N   UNL     1       2.203   6.616  19.755  0.00  0.00    +0.000 NA
ATOM     29  C   UNL     1       1.653   6.789  20.952  0.00  0.00    +0.000 A 
ATOM     30  N   UNL     1       1.059   7.894  21.391  0.00  0.00    +0.000 NA
ATOM     31  C   UNL     1       1.020   8.957  20.557  0.00  0.00    +0.000 A 
ATOM     32  H   UNL     1       2.284   7.815  16.886  0.00  0.00    +0.000 HD
BRANCH  21  34
ATOM     33  N   UNL     1      -1.258  11.064  22.506  0.00  0.00    +0.000 N 
ATOM     34  C   UNL     1      -0.092  10.355  22.367  0.00  0.00    +0.000 C 
ATOM     35  O   UNL     1       0.506   9.927  23.352  0.00  0.00    +0.000 OA
ATOM     36  H   UNL     1      -1.692  11.065  23.418  0.00  0.00    +0.000 HD
ATOM     37  H   UNL     1      -1.843  11.215  21.692  0.00  0.00    +0.000 HD
ENDBRANCH  21  34
ENDBRANCH  20  27
ENDBRANCH   1  20
TORSDOF 5
ENDMDL
