MODEL 1
REMARK VINA RESULT:      -8.2      0.000      0.000
REMARK  Name = 
REMARK  7 active torsions:
REMARK  status: ('A' for Active; 'I' for Inactive)
REMARK    1  A    between atoms: C_1  and  C_2
REMARK    2  A    between atoms: C_8  and  O_9
REMARK    3  A    between atoms: O_9  and  C_10
REMARK    4  A    between atoms: C_10  and  C_11
REMARK    5  A    between atoms: N_13  and  C_14
REMARK    6  A    between atoms: C_17  and  C_18
REMARK    7  A    between atoms: C_22  and  C_23
REMARK                            x       y       z     vdW  Elec       q    Type
REMARK                         _______ _______ _______ _____ _____    ______ ____
ROOT
ATOM      1  C   UNL     1       6.745   5.478  17.837  0.00  0.00    +0.000 A 
ATOM      2  C   UNL     1       7.746   5.704  18.784  0.00  0.00    +0.000 A 
ATOM      3  C   UNL     1       8.318   6.973  18.907  0.00  0.00    +0.000 A 
ATOM      4  C   UNL     1       7.914   8.032  18.078  0.00  0.00    +0.000 A 
ATOM      5  C   UNL     1       6.956   7.771  17.089  0.00  0.00    +0.000 A 
ATOM      6  C   UNL     1       6.390   6.497  16.954  0.00  0.00    +0.000 A 
ENDROOT
BRANCH   4   7
ATOM      7  C   UNL     1       8.466   9.367  18.303  0.00  0.00    +0.000 A 
ATOM      8  N   UNL     1       8.322  10.445  17.553  0.00  0.00    +0.000 NA
ATOM      9  C   UNL     1       9.157  11.362  18.130  0.00  0.00    +0.000 A 
ATOM     10  C   UNL     1       9.473  12.670  17.749  0.00  0.00    +0.000 A 
ATOM     11  C   UNL     1      10.409  13.380  18.517  0.00  0.00    +0.000 A 
ATOM     12  C   UNL     1      10.997  12.793  19.653  0.00  0.00    +0.000 A 
ATOM     13  C   UNL     1      10.679  11.484  20.054  0.00  0.00    +0.000 A 
ATOM     14  C   UNL     1       9.762  10.814  19.250  0.00  0.00    +0.000 A 
ATOM     15  O   UNL     1       9.312   9.531  19.378  0.00  0.00    +0.000 OA
BRANCH  11  16
ATOM     16  C   UNL     1      10.771  14.708  18.118  0.00  0.00    +0.000 C 
ATOM     17  N   UNL     1      11.057  15.784  17.773  0.00  0.00    +0.000 NA
ENDBRANCH  11  16
ENDBRANCH   4   7
BRANCH   1  20
ATOM     18  C   UNL     1       4.874   3.896  18.237  0.00  0.00    +0.000 C 
ATOM     19  O   UNL     1       4.398   2.796  17.945  0.00  0.00    +0.000 OA
ATOM     20  N   UNL     1       6.104   4.237  17.720  0.00  0.00    +0.000 N 
ATOM     21  H   UNL     1       6.330   3.660  16.918  0.00  0.00    +0.000 HD
BRANCH  18  22
ATOM     22  C   UNL     1       4.096   4.895  19.092  0.00  0.00    +0.000 C 
BRANCH  22  23
ATOM     23  O   UNL     1       2.999   5.435  18.377  0.00  0.00    +0.000 OA
BRANCH  23  31
ATOM     24  C   UNL     1       1.477   6.226  21.052  0.00  0.00    +0.000 C 
ATOM     25  C   UNL     1       1.815   7.083  19.865  0.00  0.00    +0.000 A 
ATOM     26  C   UNL     1       1.410   8.436  19.960  0.00  0.00    +0.000 A 
ATOM     27  C   UNL     1       1.661   9.346  18.938  0.00  0.00    +0.000 A 
ATOM     28 BR   UNL     1       1.085  11.138  19.115  0.00  0.00    +0.000 Br
ATOM     29  C   UNL     1       2.330   8.938  17.796  0.00  0.00    +0.000 A 
ATOM     30  C   UNL     1       2.742   7.608  17.687  0.00  0.00    +0.000 A 
ATOM     31  C   UNL     1       2.496   6.666  18.706  0.00  0.00    +0.000 A 
ENDBRANCH  23  31
ENDBRANCH  22  23
ENDBRANCH  18  22
ENDBRANCH   1  20
TORSDOF 6
ENDMDL
MODEL 2
REMARK VINA RESULT:      -8.0      1.043      1.544
REMARK  Name = 
REMARK  7 active torsions:
REMARK  status: ('A' for Active; 'I' for Inactive)
REMARK    1  A    between atoms: C_1  and  C_2
REMARK    2  A    between atoms: C_8  and  O_9
REMARK    3  A    between atoms: O_9  and  C_10
REMARK    4  A    between atoms: C_10  and  C_11
REMARK    5  A    between atoms: N_13  and  C_14
REMARK    6  A    between atoms: C_17  and  C_18
REMARK    7  A    between atoms: C_22  and  C_23
REMARK                            x       y       z     vdW  Elec       q    Type
REMARK                         _______ _______ _______ _____ _____    ______ ____
ROOT
ATOM      1  C   UNL     1       6.975   5.654  17.676  0.00  0.00    +0.000 A 
ATOM      2  C   UNL     1       6.589   6.752  16.905  0.00  0.00    +0.000 A 
ATOM      3  C   UNL     1       7.118   8.018  17.176  0.00  0.00    +0.000 A 
ATOM      4  C   UNL     1       8.026   8.211  18.230  0.00  0.00    +0.000 A 
ATOM      5  C   UNL     1       8.351   7.111  19.035  0.00  0.00    +0.000 A 
ATOM      6  C   UNL     1       7.813   5.844  18.774  0.00  0.00    +0.000 A 
ENDROOT
BRANCH   4   7
ATOM      7  C   UNL     1       8.630   9.528  18.420  0.00  0.00    +0.000 A 
ATOM      8  N   UNL     1       8.577  10.573  17.612  0.00  0.00    +0.000 NA
ATOM      9  C   UNL     1       9.424  11.479  18.188  0.00  0.00    +0.000 A 
ATOM     10  C   UNL     1       9.823  12.750  17.762  0.00  0.00    +0.000 A 
ATOM     11  C   UNL     1      10.752  13.454  18.544  0.00  0.00    +0.000 A 
ATOM     12  C   UNL     1      11.252  12.899  19.737  0.00  0.00    +0.000 A 
ATOM     13  C   UNL     1      10.851  11.627  20.182  0.00  0.00    +0.000 A 
ATOM     14  C   UNL     1       9.944  10.961  19.364  0.00  0.00    +0.000 A 
ATOM     15  O   UNL     1       9.427   9.707  19.528  0.00  0.00    +0.000 OA
BRANCH  11  16
ATOM     16  C   UNL     1      11.197  14.742  18.102  0.00  0.00    +0.000 C 
ATOM     17  N   UNL     1      11.579  15.786  17.751  0.00  0.00    +0.000 NA
ENDBRANCH  11  16
ENDBRANCH   4   7
BRANCH   1  20
ATOM     18  C   UNL     1       5.230   3.998  17.059  0.00  0.00    +0.000 C 
ATOM     19  O   UNL     1       5.014   2.828  16.735  0.00  0.00    +0.000 OA
ATOM     20  N   UNL     1       6.514   4.359  17.401  0.00  0.00    +0.000 N 
ATOM     21  H   UNL     1       7.183   3.682  17.052  0.00  0.00    +0.000 HD
BRANCH  18  22
ATOM     22  C   UNL     1       4.122   5.050  17.017  0.00  0.00    +0.000 C 
BRANCH  22  23
ATOM     23  O   UNL     1       3.011   4.653  17.800  0.00  0.00    +0.000 OA
BRANCH  23  31
ATOM     24  C   UNL     1       1.816   3.797  20.618  0.00  0.00    +0.000 C 
ATOM     25  C   UNL     1       1.977   5.173  20.035  0.00  0.00    +0.000 A 
ATOM     26  C   UNL     1       1.547   6.236  20.865  0.00  0.00    +0.000 A 
ATOM     27  C   UNL     1       1.641   7.563  20.457  0.00  0.00    +0.000 A 
ATOM     28 BR   UNL     1       1.040   8.941  21.603  0.00  0.00    +0.000 Br
ATOM     29  C   UNL     1       2.172   7.871  19.215  0.00  0.00    +0.000 A 
ATOM     30  C   UNL     1       2.606   6.835  18.385  0.00  0.00    +0.000 A 
ATOM     31  C   UNL     1       2.517   5.483  18.774  0.00  0.00    +0.000 A 
ENDBRANCH  23  31
ENDBRANCH  22  23
ENDBRANCH  18  22
ENDBRANCH   1  20
TORSDOF 6
ENDMDL
MODEL 3
REMARK VINA RESULT:      -7.8      1.305      2.058
REMARK  Name = 
REMARK  7 active torsions:
REMARK  status: ('A' for Active; 'I' for Inactive)
REMARK    1  A    between atoms: C_1  and  C_2
REMARK    2  A    between atoms: C_8  and  O_9
REMARK    3  A    between atoms: O_9  and  C_10
REMARK    4  A    between atoms: C_10  and  C_11
REMARK    5  A    between atoms: N_13  and  C_14
REMARK    6  A    between atoms: C_17  and  C_18
REMARK    7  A    between atoms: C_22  and  C_23
REMARK                            x       y       z     vdW  Elec       q    Type
REMARK                         _______ _______ _______ _____ _____    ______ ____
ROOT
ATOM      1  C   UNL     1       6.401   5.273  17.681  0.00  0.00    +0.000 A 
ATOM      2  C   UNL     1       7.355   5.437  18.687  0.00  0.00    +0.000 A 
ATOM      3  C   UNL     1       8.003   6.666  18.842  0.00  0.00    +0.000 A 
ATOM      4  C   UNL     1       7.724   7.744  17.986  0.00  0.00    +0.000 A 
ATOM      5  C   UNL     1       6.813   7.541  16.941  0.00  0.00    +0.000 A 
ATOM      6  C   UNL     1       6.170   6.308  16.776  0.00  0.00    +0.000 A 
ENDROOT
BRANCH   4   7
ATOM      7  C   UNL     1       8.351   9.040  18.241  0.00  0.00    +0.000 A 
ATOM      8  N   UNL     1       9.147   9.377  19.241  0.00  0.00    +0.000 NA
ATOM      9  C   UNL     1       9.320  10.724  19.084  0.00  0.00    +0.000 A 
ATOM     10  C   UNL     1      10.016  11.649  19.869  0.00  0.00    +0.000 A 
ATOM     11  C   UNL     1       9.992  13.000  19.487  0.00  0.00    +0.000 A 
ATOM     12  C   UNL     1       9.300  13.405  18.331  0.00  0.00    +0.000 A 
ATOM     13  C   UNL     1       8.607  12.484  17.526  0.00  0.00    +0.000 A 
ATOM     14  C   UNL     1       8.643  11.161  17.956  0.00  0.00    +0.000 A 
ATOM     15  O   UNL     1       8.025  10.079  17.398  0.00  0.00    +0.000 OA
BRANCH  11  16
ATOM     16  C   UNL     1      10.670  13.964  20.302  0.00  0.00    +0.000 C 
ATOM     17  N   UNL     1      11.202  14.757  20.970  0.00  0.00    +0.000 NA
ENDBRANCH  11  16
ENDBRANCH   4   7
BRANCH   1  20
ATOM     18  C   UNL     1       4.491   3.752  18.132  0.00  0.00    +0.000 C 
ATOM     19  O   UNL     1       3.931   2.704  17.801  0.00  0.00    +0.000 OA
ATOM     20  N   UNL     1       5.685   4.078  17.529  0.00  0.00    +0.000 N 
ATOM     21  H   UNL     1       5.805   3.560  16.666  0.00  0.00    +0.000 HD
BRANCH  18  22
ATOM     22  C   UNL     1       3.850   4.712  19.134  0.00  0.00    +0.000 C 
BRANCH  22  23
ATOM     23  O   UNL     1       3.245   5.810  18.475  0.00  0.00    +0.000 OA
BRANCH  23  31
ATOM     24  C   UNL     1       2.486   8.766  17.586  0.00  0.00    +0.000 C 
ATOM     25  C   UNL     1       2.131   8.036  18.850  0.00  0.00    +0.000 A 
ATOM     26  C   UNL     1       1.336   8.764  19.768  0.00  0.00    +0.000 A 
ATOM     27  C   UNL     1       0.928   8.212  20.978  0.00  0.00    +0.000 A 
ATOM     28 BR   UNL     1      -0.124   9.236  22.169  0.00  0.00    +0.000 Br
ATOM     29  C   UNL     1       1.292   6.917  21.307  0.00  0.00    +0.000 A 
ATOM     30  C   UNL     1       2.072   6.181  20.412  0.00  0.00    +0.000 A 
ATOM     31  C   UNL     1       2.502   6.719  19.182  0.00  0.00    +0.000 A 
ENDBRANCH  23  31
ENDBRANCH  22  23
ENDBRANCH  18  22
ENDBRANCH   1  20
TORSDOF 6
ENDMDL
MODEL 4
REMARK VINA RESULT:      -7.8      6.228      9.796
REMARK  Name = 
REMARK  7 active torsions:
REMARK  status: ('A' for Active; 'I' for Inactive)
REMARK    1  A    between atoms: C_1  and  C_2
REMARK    2  A    between atoms: C_8  and  O_9
REMARK    3  A    between atoms: O_9  and  C_10
REMARK    4  A    between atoms: C_10  and  C_11
REMARK    5  A    between atoms: N_13  and  C_14
REMARK    6  A    between atoms: C_17  and  C_18
REMARK    7  A    between atoms: C_22  and  C_23
REMARK                            x       y       z     vdW  Elec       q    Type
REMARK                         _______ _______ _______ _____ _____    ______ ____
ROOT
ATOM      1  C   UNL     1      -0.601  11.586  22.427  0.00  0.00    +0.000 A 
ATOM      2  C   UNL     1       0.221  11.703  21.305  0.00  0.00    +0.000 A 
ATOM      3  C   UNL     1       0.833  10.568  20.765  0.00  0.00    +0.000 A 
ATOM      4  C   UNL     1       0.649   9.303  21.345  0.00  0.00    +0.000 A 
ATOM      5  C   UNL     1      -0.125   9.213  22.509  0.00  0.00    +0.000 A 
ATOM      6  C   UNL     1      -0.730  10.350  23.060  0.00  0.00    +0.000 A 
ENDROOT
BRANCH   4   7
ATOM      7  C   UNL     1       1.227   8.128  20.694  0.00  0.00    +0.000 A 
ATOM      8  N   UNL     1       1.306   6.895  21.161  0.00  0.00    +0.000 NA
ATOM      9  C   UNL     1       2.062   6.237  20.230  0.00  0.00    +0.000 A 
ATOM     10  C   UNL     1       2.531   4.920  20.206  0.00  0.00    +0.000 A 
ATOM     11  C   UNL     1       3.335   4.518  19.127  0.00  0.00    +0.000 A 
ATOM     12  C   UNL     1       3.642   5.417  18.089  0.00  0.00    +0.000 A 
ATOM     13  C   UNL     1       3.168   6.740  18.096  0.00  0.00    +0.000 A 
ATOM     14  C   UNL     1       2.392   7.097  19.195  0.00  0.00    +0.000 A 
ATOM     15  O   UNL     1       1.847   8.316  19.479  0.00  0.00    +0.000 OA
BRANCH  11  16
ATOM     16  C   UNL     1       3.852   3.182  19.106  0.00  0.00    +0.000 C 
ATOM     17  N   UNL     1       4.293   2.103  19.086  0.00  0.00    +0.000 NA
ENDBRANCH  11  16
ENDBRANCH   4   7
BRANCH   1  20
ATOM     18  C   UNL     1      -2.095  13.564  22.283  0.00  0.00    +0.000 C 
ATOM     19  O   UNL     1      -2.713  14.415  22.927  0.00  0.00    +0.000 OA
ATOM     20  N   UNL     1      -1.281  12.687  22.965  0.00  0.00    +0.000 N 
ATOM     21  H   UNL     1      -1.526  12.660  23.948  0.00  0.00    +0.000 HD
BRANCH  18  22
ATOM     22  C   UNL     1      -2.274  13.428  20.771  0.00  0.00    +0.000 C 
BRANCH  22  23
ATOM     23  O   UNL     1      -3.374  12.592  20.460  0.00  0.00    +0.000 OA
BRANCH  23  31
ATOM     24  C   UNL     1      -6.064  12.221  18.809  0.00  0.00    +0.000 C 
ATOM     25  C   UNL     1      -4.657  11.864  18.421  0.00  0.00    +0.000 A 
ATOM     26  C   UNL     1      -4.509  11.294  17.134  0.00  0.00    +0.000 A 
ATOM     27  C   UNL     1      -3.264  10.919  16.639  0.00  0.00    +0.000 A 
ATOM     28 BR   UNL     1      -3.129  10.153  14.917  0.00  0.00    +0.000 Br
ATOM     29  C   UNL     1      -2.128  11.108  17.409  0.00  0.00    +0.000 A 
ATOM     30  C   UNL     1      -2.254  11.673  18.681  0.00  0.00    +0.000 A 
ATOM     31  C   UNL     1      -3.504  12.057  19.205  0.00  0.00    +0.000 A 
ENDBRANCH  23  31
ENDBRANCH  22  23
ENDBRANCH  18  22
ENDBRANCH   1  20
TORSDOF 6
ENDMDL
MODEL 5
REMARK VINA RESULT:      -7.8      4.143      6.812
REMARK  Name = 
REMARK  7 active torsions:
REMARK  status: ('A' for Active; 'I' for Inactive)
REMARK    1  A    between atoms: C_1  and  C_2
REMARK    2  A    between atoms: C_8  and  O_9
REMARK    3  A    between atoms: O_9  and  C_10
REMARK    4  A    between atoms: C_10  and  C_11
REMARK    5  A    between atoms: N_13  and  C_14
REMARK    6  A    between atoms: C_17  and  C_18
REMARK    7  A    between atoms: C_22  and  C_23
REMARK                            x       y       z     vdW  Elec       q    Type
REMARK                         _______ _______ _______ _____ _____    ______ ____
ROOT
ATOM      1  C   UNL     1       2.400   4.978  19.022  0.00  0.00    +0.000 A 
ATOM      2  C   UNL     1       2.117   5.573  20.253  0.00  0.00    +0.000 A 
ATOM      3  C   UNL     1       1.851   6.944  20.322  0.00  0.00    +0.000 A 
ATOM      4  C   UNL     1       1.878   7.745  19.170  0.00  0.00    +0.000 A 
ATOM      5  C   UNL     1       2.229   7.144  17.953  0.00  0.00    +0.000 A 
ATOM      6  C   UNL     1       2.509   5.773  17.882  0.00  0.00    +0.000 A 
ENDROOT
BRANCH   4   7
ATOM      7  C   UNL     1       1.499   9.153  19.269  0.00  0.00    +0.000 A 
ATOM      8  N   UNL     1       1.695  10.114  18.383  0.00  0.00    +0.000 NA
ATOM      9  C   UNL     1       1.291  11.248  19.032  0.00  0.00    +0.000 A 
ATOM     10  C   UNL     1       1.315  12.586  18.625  0.00  0.00    +0.000 A 
ATOM     11  C   UNL     1       0.868  13.565  19.526  0.00  0.00    +0.000 A 
ATOM     12  C   UNL     1       0.391  13.203  20.800  0.00  0.00    +0.000 A 
ATOM     13  C   UNL     1       0.351  11.861  21.217  0.00  0.00    +0.000 A 
ATOM     14  C   UNL     1       0.822  10.929  20.297  0.00  0.00    +0.000 A 
ATOM     15  O   UNL     1       0.940   9.578  20.454  0.00  0.00    +0.000 OA
BRANCH  11  16
ATOM     16  C   UNL     1       0.921  14.943  19.137  0.00  0.00    +0.000 C 
ATOM     17  N   UNL     1       0.975  16.058  18.803  0.00  0.00    +0.000 NA
ENDBRANCH  11  16
ENDBRANCH   4   7
BRANCH   1  20
ATOM     18  C   UNL     1       3.817   2.939  19.027  0.00  0.00    +0.000 C 
ATOM     19  O   UNL     1       3.818   1.706  19.005  0.00  0.00    +0.000 OA
ATOM     20  N   UNL     1       2.615   3.599  18.899  0.00  0.00    +0.000 N 
ATOM     21  H   UNL     1       1.841   2.977  19.104  0.00  0.00    +0.000 HD
BRANCH  18  22
ATOM     22  C   UNL     1       5.105   3.729  19.264  0.00  0.00    +0.000 C 
BRANCH  22  23
ATOM     23  O   UNL     1       5.707   4.102  18.037  0.00  0.00    +0.000 OA
BRANCH  23  31
ATOM     24  C   UNL     1       5.168   6.267  15.774  0.00  0.00    +0.000 C 
ATOM     25  C   UNL     1       6.120   6.327  16.935  0.00  0.00    +0.000 A 
ATOM     26  C   UNL     1       6.871   7.522  17.042  0.00  0.00    +0.000 A 
ATOM     27  C   UNL     1       7.788   7.719  18.070  0.00  0.00    +0.000 A 
ATOM     28 BR   UNL     1       8.772   9.330  18.154  0.00  0.00    +0.000 Br
ATOM     29  C   UNL     1       7.977   6.735  19.027  0.00  0.00    +0.000 A 
ATOM     30  C   UNL     1       7.240   5.552  18.941  0.00  0.00    +0.000 A 
ATOM     31  C   UNL     1       6.310   5.327  17.906  0.00  0.00    +0.000 A 
ENDBRANCH  23  31
ENDBRANCH  22  23
ENDBRANCH  18  22
ENDBRANCH   1  20
TORSDOF 6
ENDMDL
MODEL 6
REMARK VINA RESULT:      -7.6      1.021      1.632
REMARK  Name = 
REMARK  7 active torsions:
REMARK  status: ('A' for Active; 'I' for Inactive)
REMARK    1  A    between atoms: C_1  and  C_2
REMARK    2  A    between atoms: C_8  and  O_9
REMARK    3  A    between atoms: O_9  and  C_10
REMARK    4  A    between atoms: C_10  and  C_11
REMARK    5  A    between atoms: N_13  and  C_14
REMARK    6  A    between atoms: C_17  and  C_18
REMARK    7  A    between atoms: C_22  and  C_23
REMARK                            x       y       z     vdW  Elec       q    Type
REMARK                         _______ _______ _______ _____ _____    ______ ____
ROOT
ATOM      1  C   UNL     1       6.621   5.507  17.597  0.00  0.00    +0.000 A 
ATOM      2  C   UNL     1       6.135   6.655  16.968  0.00  0.00    +0.000 A 
ATOM      3  C   UNL     1       6.731   7.895  17.220  0.00  0.00    +0.000 A 
ATOM      4  C   UNL     1       7.808   8.012  18.113  0.00  0.00    +0.000 A 
ATOM      5  C   UNL     1       8.239   6.861  18.785  0.00  0.00    +0.000 A 
ATOM      6  C   UNL     1       7.637   5.619  18.545  0.00  0.00    +0.000 A 
ENDROOT
BRANCH   4   7
ATOM      7  C   UNL     1       8.465   9.308  18.274  0.00  0.00    +0.000 A 
ATOM      8  N   UNL     1       9.367   9.657  19.174  0.00  0.00    +0.000 NA
ATOM      9  C   UNL     1       9.528  11.000  18.975  0.00  0.00    +0.000 A 
ATOM     10  C   UNL     1      10.310  11.934  19.663  0.00  0.00    +0.000 A 
ATOM     11  C   UNL     1      10.251  13.278  19.262  0.00  0.00    +0.000 A 
ATOM     12  C   UNL     1       9.438  13.668  18.181  0.00  0.00    +0.000 A 
ATOM     13  C   UNL     1       8.657  12.738  17.474  0.00  0.00    +0.000 A 
ATOM     14  C   UNL     1       8.734  11.422  17.921  0.00  0.00    +0.000 A 
ATOM     15  O   UNL     1       8.053  10.334  17.454  0.00  0.00    +0.000 OA
BRANCH  11  16
ATOM     16  C   UNL     1      11.019  14.251  19.980  0.00  0.00    +0.000 C 
ATOM     17  N   UNL     1      11.656  15.045  20.547  0.00  0.00    +0.000 NA
ENDBRANCH  11  16
ENDBRANCH   4   7
BRANCH   1  20
ATOM     18  C   UNL     1       4.913   3.718  17.817  0.00  0.00    +0.000 C 
ATOM     19  O   UNL     1       4.531   2.625  17.392  0.00  0.00    +0.000 OA
ATOM     20  N   UNL     1       6.092   4.237  17.329  0.00  0.00    +0.000 N 
ATOM     21  H   UNL     1       6.346   3.792  16.455  0.00  0.00    +0.000 HD
BRANCH  18  22
ATOM     22  C   UNL     1       4.072   4.521  18.808  0.00  0.00    +0.000 C 
BRANCH  22  23
ATOM     23  O   UNL     1       3.114   5.319  18.136  0.00  0.00    +0.000 OA
BRANCH  23  31
ATOM     24  C   UNL     1       1.773   5.323  21.018  0.00  0.00    +0.000 C 
ATOM     25  C   UNL     1       1.921   6.454  20.040  0.00  0.00    +0.000 A 
ATOM     26  C   UNL     1       1.401   7.699  20.470  0.00  0.00    +0.000 A 
ATOM     27  C   UNL     1       1.472   8.835  19.670  0.00  0.00    +0.000 A 
ATOM     28 BR   UNL     1       0.750  10.467  20.292  0.00  0.00    +0.000 Br
ATOM     29  C   UNL     1       2.070   8.768  18.422  0.00  0.00    +0.000 A 
ATOM     30  C   UNL     1       2.593   7.549  17.983  0.00  0.00    +0.000 A 
ATOM     31  C   UNL     1       2.530   6.383  18.773  0.00  0.00    +0.000 A 
ENDBRANCH  23  31
ENDBRANCH  22  23
ENDBRANCH  18  22
ENDBRANCH   1  20
TORSDOF 6
ENDMDL
MODEL 7
REMARK VINA RESULT:      -7.6      6.230     10.067
REMARK  Name = 
REMARK  7 active torsions:
REMARK  status: ('A' for Active; 'I' for Inactive)
REMARK    1  A    between atoms: C_1  and  C_2
REMARK    2  A    between atoms: C_8  and  O_9
REMARK    3  A    between atoms: O_9  and  C_10
REMARK    4  A    between atoms: C_10  and  C_11
REMARK    5  A    between atoms: N_13  and  C_14
REMARK    6  A    between atoms: C_17  and  C_18
REMARK    7  A    between atoms: C_22  and  C_23
REMARK                            x       y       z     vdW  Elec       q    Type
REMARK                         _______ _______ _______ _____ _____    ______ ____
ROOT
ATOM      1  C   UNL     1      -1.214  12.304  22.091  0.00  0.00    +0.000 A 
ATOM      2  C   UNL     1      -0.450  12.409  20.928  0.00  0.00    +0.000 A 
ATOM      3  C   UNL     1       0.308  11.320  20.488  0.00  0.00    +0.000 A 
ATOM      4  C   UNL     1       0.330  10.116  21.209  0.00  0.00    +0.000 A 
ATOM      5  C   UNL     1      -0.390  10.049  22.410  0.00  0.00    +0.000 A 
ATOM      6  C   UNL     1      -1.141  11.143  22.860  0.00  0.00    +0.000 A 
ENDROOT
BRANCH   4   7
ATOM      7  C   UNL     1       1.057   8.970  20.666  0.00  0.00    +0.000 A 
ATOM      8  N   UNL     1       1.735   8.898  19.534  0.00  0.00    +0.000 NA
ATOM      9  C   UNL     1       2.081   7.578  19.440  0.00  0.00    +0.000 A 
ATOM     10  C   UNL     1       2.758   6.885  18.431  0.00  0.00    +0.000 A 
ATOM     11  C   UNL     1       2.942   5.502  18.581  0.00  0.00    +0.000 A 
ATOM     12  C   UNL     1       2.473   4.836  19.729  0.00  0.00    +0.000 A 
ATOM     13  C   UNL     1       1.802   5.523  20.755  0.00  0.00    +0.000 A 
ATOM     14  C   UNL     1       1.626   6.889  20.552  0.00  0.00    +0.000 A 
ATOM     15  O   UNL     1       0.975   7.781  21.356  0.00  0.00    +0.000 OA
BRANCH  11  16
ATOM     16  C   UNL     1       3.602   4.772  17.539  0.00  0.00    +0.000 C 
ATOM     17  N   UNL     1       4.156   4.190  16.695  0.00  0.00    +0.000 NA
ENDBRANCH  11  16
ENDBRANCH   4   7
BRANCH   1  20
ATOM     18  C   UNL     1      -3.393  13.466  22.346  0.00  0.00    +0.000 C 
ATOM     19  O   UNL     1      -3.988  14.393  22.901  0.00  0.00    +0.000 OA
ATOM     20  N   UNL     1      -2.034  13.350  22.535  0.00  0.00    +0.000 N 
ATOM     21  H   UNL     1      -1.739  13.869  23.355  0.00  0.00    +0.000 HD
BRANCH  18  22
ATOM     22  C   UNL     1      -4.146  12.422  21.521  0.00  0.00    +0.000 C 
BRANCH  22  23
ATOM     23  O   UNL     1      -4.665  12.988  20.331  0.00  0.00    +0.000 OA
BRANCH  23  31
ATOM     24  C   UNL     1      -6.880  12.392  18.130  0.00  0.00    +0.000 C 
ATOM     25  C   UNL     1      -5.414  12.063  18.113  0.00  0.00    +0.000 A 
ATOM     26  C   UNL     1      -4.953  11.407  16.947  0.00  0.00    +0.000 A 
ATOM     27  C   UNL     1      -3.619  11.045  16.791  0.00  0.00    +0.000 A 
ATOM     28 BR   UNL     1      -3.064  10.160  15.215  0.00  0.00    +0.000 Br
ATOM     29  C   UNL     1      -2.702  11.334  17.788  0.00  0.00    +0.000 A 
ATOM     30  C   UNL     1      -3.137  11.986  18.944  0.00  0.00    +0.000 A 
ATOM     31  C   UNL     1      -4.484  12.358  19.128  0.00  0.00    +0.000 A 
ENDBRANCH  23  31
ENDBRANCH  22  23
ENDBRANCH  18  22
ENDBRANCH   1  20
TORSDOF 6
ENDMDL
MODEL 8
REMARK VINA RESULT:      -7.5      5.958      9.514
REMARK  Name = 
REMARK  7 active torsions:
REMARK  status: ('A' for Active; 'I' for Inactive)
REMARK    1  A    between atoms: C_1  and  C_2
REMARK    2  A    between atoms: C_8  and  O_9
REMARK    3  A    between atoms: O_9  and  C_10
REMARK    4  A    between atoms: C_10  and  C_11
REMARK    5  A    between atoms: N_13  and  C_14
REMARK    6  A    between atoms: C_17  and  C_18
REMARK    7  A    between atoms: C_22  and  C_23
REMARK                            x       y       z     vdW  Elec       q    Type
REMARK                         _______ _______ _______ _____ _____    ______ ____
ROOT
ATOM      1  C   UNL     1      -0.687  11.442  22.065  0.00  0.00    +0.000 A 
ATOM      2  C   UNL     1      -0.945  10.104  22.364  0.00  0.00    +0.000 A 
ATOM      3  C   UNL     1      -0.220   9.092  21.727  0.00  0.00    +0.000 A 
ATOM      4  C   UNL     1       0.761   9.398  20.771  0.00  0.00    +0.000 A 
ATOM      5  C   UNL     1       0.962  10.743  20.435  0.00  0.00    +0.000 A 
ATOM      6  C   UNL     1       0.228  11.759  21.062  0.00  0.00    +0.000 A 
ENDROOT
BRANCH   4   7
ATOM      7  C   UNL     1       1.564   8.318  20.200  0.00  0.00    +0.000 A 
ATOM      8  N   UNL     1       2.300   8.343  19.103  0.00  0.00    +0.000 NA
ATOM      9  C   UNL     1       2.708   7.047  18.949  0.00  0.00    +0.000 A 
ATOM     10  C   UNL     1       3.464   6.445  17.939  0.00  0.00    +0.000 A 
ATOM     11  C   UNL     1       3.701   5.063  18.016  0.00  0.00    +0.000 A 
ATOM     12  C   UNL     1       3.204   4.311  19.097  0.00  0.00    +0.000 A 
ATOM     13  C   UNL     1       2.453   4.906  20.125  0.00  0.00    +0.000 A 
ATOM     14  C   UNL     1       2.229   6.273  19.994  0.00  0.00    +0.000 A 
ATOM     15  O   UNL     1       1.500   7.087  20.814  0.00  0.00    +0.000 OA
BRANCH  11  16
ATOM     16  C   UNL     1       4.443   4.426  16.969  0.00  0.00    +0.000 C 
ATOM     17  N   UNL     1       5.060   3.900  16.132  0.00  0.00    +0.000 NA
ENDBRANCH  11  16
ENDBRANCH   4   7
BRANCH   1  20
ATOM     18  C   UNL     1      -2.220  13.393  22.158  0.00  0.00    +0.000 C 
ATOM     19  O   UNL     1      -2.809  14.183  22.899  0.00  0.00    +0.000 OA
ATOM     20  N   UNL     1      -1.348  12.488  22.722  0.00  0.00    +0.000 N 
ATOM     21  H   UNL     1      -1.528  12.387  23.715  0.00  0.00    +0.000 HD
BRANCH  18  22
ATOM     22  C   UNL     1      -2.496  13.359  20.655  0.00  0.00    +0.000 C 
BRANCH  22  23
ATOM     23  O   UNL     1      -3.438  12.352  20.331  0.00  0.00    +0.000 OA
BRANCH  23  31
ATOM     24  C   UNL     1      -5.969  12.693  18.439  0.00  0.00    +0.000 C 
ATOM     25  C   UNL     1      -4.651  12.030  18.150  0.00  0.00    +0.000 A 
ATOM     26  C   UNL     1      -4.516  11.494  16.847  0.00  0.00    +0.000 A 
ATOM     27  C   UNL     1      -3.349  10.856  16.437  0.00  0.00    +0.000 A 
ATOM     28 BR   UNL     1      -3.230  10.150  14.688  0.00  0.00    +0.000 Br
ATOM     29  C   UNL     1      -2.280  10.740  17.311  0.00  0.00    +0.000 A 
ATOM     30  C   UNL     1      -2.394  11.267  18.599  0.00  0.00    +0.000 A 
ATOM     31  C   UNL     1      -3.567  11.914  19.039  0.00  0.00    +0.000 A 
ENDBRANCH  23  31
ENDBRANCH  22  23
ENDBRANCH  18  22
ENDBRANCH   1  20
TORSDOF 6
ENDMDL
MODEL 9
REMARK VINA RESULT:      -7.4      4.514      7.532
REMARK  Name = 
REMARK  7 active torsions:
REMARK  status: ('A' for Active; 'I' for Inactive)
REMARK    1  A    between atoms: C_1  and  C_2
REMARK    2  A    between atoms: C_8  and  O_9
REMARK    3  A    between atoms: O_9  and  C_10
REMARK    4  A    between atoms: C_10  and  C_11
REMARK    5  A    between atoms: N_13  and  C_14
REMARK    6  A    between atoms: C_17  and  C_18
REMARK    7  A    between atoms: C_22  and  C_23
REMARK                            x       y       z     vdW  Elec       q    Type
REMARK                         _______ _______ _______ _____ _____    ______ ____
ROOT
ATOM      1  C   UNL     1       2.347   4.421  19.198  0.00  0.00    +0.000 A 
ATOM      2  C   UNL     1       2.533   5.512  18.348  0.00  0.00    +0.000 A 
ATOM      3  C   UNL     1       2.142   6.791  18.756  0.00  0.00    +0.000 A 
ATOM      4  C   UNL     1       1.545   7.000  20.009  0.00  0.00    +0.000 A 
ATOM      5  C   UNL     1       1.306   5.884  20.823  0.00  0.00    +0.000 A 
ATOM      6  C   UNL     1       1.684   4.599  20.412  0.00  0.00    +0.000 A 
ENDROOT
BRANCH   4   7
ATOM      7  C   UNL     1       1.241   8.363  20.438  0.00  0.00    +0.000 A 
ATOM      8  N   UNL     1       0.769   8.764  21.605  0.00  0.00    +0.000 NA
ATOM      9  C   UNL     1       0.527  10.098  21.423  0.00  0.00    +0.000 A 
ATOM     10  C   UNL     1      -0.029  11.047  22.286  0.00  0.00    +0.000 A 
ATOM     11  C   UNL     1      -0.201  12.358  21.814  0.00  0.00    +0.000 A 
ATOM     12  C   UNL     1       0.197  12.708  20.510  0.00  0.00    +0.000 A 
ATOM     13  C   UNL     1       0.769  11.766  19.637  0.00  0.00    +0.000 A 
ATOM     14  C   UNL     1       0.900  10.477  20.143  0.00  0.00    +0.000 A 
ATOM     15  O   UNL     1       1.374   9.367  19.504  0.00  0.00    +0.000 OA
BRANCH  11  16
ATOM     16  C   UNL     1      -0.803  13.333  22.674  0.00  0.00    +0.000 C 
ATOM     17  N   UNL     1      -1.299  14.110  23.387  0.00  0.00    +0.000 NA
ENDBRANCH  11  16
ENDBRANCH   4   7
BRANCH   1  20
ATOM     18  C   UNL     1       4.079   2.686  18.806  0.00  0.00    +0.000 C 
ATOM     19  O   UNL     1       4.282   1.487  18.596  0.00  0.00    +0.000 OA
ATOM     20  N   UNL     1       2.777   3.132  18.854  0.00  0.00    +0.000 N 
ATOM     21  H   UNL     1       2.137   2.361  19.009  0.00  0.00    +0.000 HD
BRANCH  18  22
ATOM     22  C   UNL     1       5.232   3.650  19.080  0.00  0.00    +0.000 C 
BRANCH  22  23
ATOM     23  O   UNL     1       5.790   4.135  17.872  0.00  0.00    +0.000 OA
BRANCH  23  31
ATOM     24  C   UNL     1       4.997   6.517  15.922  0.00  0.00    +0.000 C 
ATOM     25  C   UNL     1       6.054   6.477  16.989  0.00  0.00    +0.000 A 
ATOM     26  C   UNL     1       6.791   7.674  17.156  0.00  0.00    +0.000 A 
ATOM     27  C   UNL     1       7.798   7.785  18.110  0.00  0.00    +0.000 A 
ATOM     28 BR   UNL     1       8.756   9.405  18.280  0.00  0.00    +0.000 Br
ATOM     29  C   UNL     1       8.096   6.709  18.930  0.00  0.00    +0.000 A 
ATOM     30  C   UNL     1       7.376   5.521  18.783  0.00  0.00    +0.000 A 
ATOM     31  C   UNL     1       6.355   5.383  17.821  0.00  0.00    +0.000 A 
ENDBRANCH  23  31
ENDBRANCH  22  23
ENDBRANCH  18  22
ENDBRANCH   1  20
TORSDOF 6
ENDMDL
