MODEL 1
REMARK VINA RESULT:      -8.5      0.000      0.000
REMARK  Name = 
REMARK  7 active torsions:
REMARK  status: ('A' for Active; 'I' for Inactive)
REMARK    1  A    between atoms: C_1  and  N_2
REMARK    2  A    between atoms: N_2  and  C_3
REMARK    3  A    between atoms: N_2  and  S_4
REMARK    4  A    between atoms: S_4  and  N_7
REMARK    5  A    between atoms: N_7  and  C_8
REMARK    6  A    between atoms: C_13  and  C_14
REMARK    7  A    between atoms: N_16  and  C_17
REMARK                            x       y       z     vdW  Elec       q    Type
REMARK                         _______ _______ _______ _____ _____    ______ ____
ROOT
ATOM      1  C   UNL     1       4.863   4.174  18.166  0.00  0.00    +0.000 A 
ATOM      2  C   UNL     1       4.172   3.273  17.359  0.00  0.00    +0.000 A 
ATOM      3  C   UNL     1       2.777   3.239  17.398  0.00  0.00    +0.000 A 
ATOM      4  C   UNL     1       2.076   4.116  18.230  0.00  0.00    +0.000 A 
ATOM      5  F   UNL     1       0.737   4.024  18.244  0.00  0.00    +0.000 F 
ATOM      6  C   UNL     1       2.741   5.049  19.028  0.00  0.00    +0.000 A 
ATOM      7  C   UNL     1       4.148   5.065  18.981  0.00  0.00    +0.000 A 
ATOM      8  F   UNL     1       4.863   5.906  19.742  0.00  0.00    +0.000 F 
ENDROOT
BRANCH   6   9
ATOM      9  C   UNL     1       2.018   6.005  19.917  0.00  0.00    +0.000 C 
ATOM     10  O   UNL     1       1.352   5.549  20.836  0.00  0.00    +0.000 OA
ATOM     11  N   UNL     1       2.101   7.366  19.626  0.00  0.00    +0.000 N 
ATOM     12  H   UNL     1       2.555   7.652  18.765  0.00  0.00    +0.000 HD
BRANCH  11  13
ATOM     13  C   UNL     1       1.473   8.399  20.377  0.00  0.00    +0.000 A 
ATOM     14  C   UNL     1       1.580   8.527  21.767  0.00  0.00    +0.000 A 
ATOM     15  N   UNL     1       0.974   9.465  22.542  0.00  0.00    +0.000 NA
ATOM     16  C   UNL     1       0.196  10.296  21.835  0.00  0.00    +0.000 A 
ATOM     17  N   UNL     1      -0.560  11.292  22.388  0.00  0.00    +0.000 N 
ATOM     18  C   UNL     1      -1.265  11.938  21.404  0.00  0.00    +0.000 A 
ATOM     19  C   UNL     1      -0.929  11.358  20.197  0.00  0.00    +0.000 A 
ATOM     20  C   UNL     1      -0.000  10.310  20.460  0.00  0.00    +0.000 A 
ATOM     21  C   UNL     1       0.692   9.345  19.697  0.00  0.00    +0.000 A 
ATOM     22  H   UNL     1      -0.590  11.481  23.379  0.00  0.00    +0.000 HD
ENDBRANCH  11  13
ENDBRANCH   6   9
BRANCH   1  23
ATOM     23  N   UNL     1       6.305   4.193  18.113  0.00  0.00    +0.000 N 
ATOM     24  H   UNL     1       6.704   4.555  18.987  0.00  0.00    +0.000 HD
BRANCH  23  25
ATOM     25  S   UNL     1       6.971   5.176  16.903  0.00  0.00    +0.000 S 
ATOM     26  O   UNL     1       5.891   5.959  16.358  0.00  0.00    +0.000 OA
ATOM     27  O   UNL     1       7.855   4.395  16.066  0.00  0.00    +0.000 OA
BRANCH  25  29
ATOM     28  C   UNL     1       7.637   7.643  17.712  0.00  0.00    +0.000 C 
ATOM     29  N   UNL     1       7.932   6.200  17.865  0.00  0.00    +0.000 NA
ATOM     30  C   UNL     1       7.937   5.820  19.303  0.00  0.00    +0.000 C 
ENDBRANCH  25  29
ENDBRANCH  23  25
ENDBRANCH   1  23
TORSDOF 5
ENDMDL
MODEL 2
REMARK VINA RESULT:      -8.5      1.832      2.213
REMARK  Name = 
REMARK  7 active torsions:
REMARK  status: ('A' for Active; 'I' for Inactive)
REMARK    1  A    between atoms: C_1  and  N_2
REMARK    2  A    between atoms: N_2  and  C_3
REMARK    3  A    between atoms: N_2  and  S_4
REMARK    4  A    between atoms: S_4  and  N_7
REMARK    5  A    between atoms: N_7  and  C_8
REMARK    6  A    between atoms: C_13  and  C_14
REMARK    7  A    between atoms: N_16  and  C_17
REMARK                            x       y       z     vdW  Elec       q    Type
REMARK                         _______ _______ _______ _____ _____    ______ ____
ROOT
ATOM      1  C   UNL     1       4.669   3.723  18.992  0.00  0.00    +0.000 A 
ATOM      2  C   UNL     1       4.638   2.570  19.772  0.00  0.00    +0.000 A 
ATOM      3  C   UNL     1       3.685   2.445  20.785  0.00  0.00    +0.000 A 
ATOM      4  C   UNL     1       2.754   3.465  21.003  0.00  0.00    +0.000 A 
ATOM      5  F   UNL     1       1.876   3.302  22.004  0.00  0.00    +0.000 F 
ATOM      6  C   UNL     1       2.743   4.619  20.217  0.00  0.00    +0.000 A 
ATOM      7  C   UNL     1       3.715   4.731  19.205  0.00  0.00    +0.000 A 
ATOM      8  F   UNL     1       3.794   5.822  18.429  0.00  0.00    +0.000 F 
ENDROOT
BRANCH   6   9
ATOM      9  C   UNL     1       1.754   5.718  20.419  0.00  0.00    +0.000 C 
ATOM     10  O   UNL     1       0.568   5.425  20.479  0.00  0.00    +0.000 OA
ATOM     11  N   UNL     1       2.227   7.028  20.485  0.00  0.00    +0.000 N 
ATOM     12  H   UNL     1       3.207   7.200  20.285  0.00  0.00    +0.000 HD
BRANCH  11  13
ATOM     13  C   UNL     1       1.414   8.179  20.677  0.00  0.00    +0.000 A 
ATOM     14  C   UNL     1       1.206   9.159  19.700  0.00  0.00    +0.000 A 
ATOM     15  N   UNL     1       0.475  10.296  19.837  0.00  0.00    +0.000 NA
ATOM     16  C   UNL     1      -0.046  10.432  21.065  0.00  0.00    +0.000 A 
ATOM     17  N   UNL     1      -0.777  11.513  21.470  0.00  0.00    +0.000 N 
ATOM     18  C   UNL     1      -1.134  11.363  22.786  0.00  0.00    +0.000 A 
ATOM     19  C   UNL     1      -0.641  10.148  23.218  0.00  0.00    +0.000 A 
ATOM     20  C   UNL     1       0.054   9.547  22.130  0.00  0.00    +0.000 A 
ATOM     21  C   UNL     1       0.784   8.357  21.919  0.00  0.00    +0.000 A 
ATOM     22  H   UNL     1      -0.985  12.300  20.871  0.00  0.00    +0.000 HD
ENDBRANCH  11  13
ENDBRANCH   6   9
BRANCH   1  23
ATOM     23  N   UNL     1       5.663   3.835  17.951  0.00  0.00    +0.000 N 
ATOM     24  H   UNL     1       6.073   2.920  17.729  0.00  0.00    +0.000 HD
BRANCH  23  25
ATOM     25  S   UNL     1       6.993   4.817  18.325  0.00  0.00    +0.000 S 
ATOM     26  O   UNL     1       8.149   4.203  17.724  0.00  0.00    +0.000 OA
ATOM     27  O   UNL     1       6.954   5.184  19.724  0.00  0.00    +0.000 OA
BRANCH  25  29
ATOM     28  C   UNL     1       7.571   7.304  17.511  0.00  0.00    +0.000 C 
ATOM     29  N   UNL     1       6.592   6.197  17.412  0.00  0.00    +0.000 NA
ATOM     30  C   UNL     1       6.295   5.893  15.988  0.00  0.00    +0.000 C 
ENDBRANCH  25  29
ENDBRANCH  23  25
ENDBRANCH   1  23
TORSDOF 5
ENDMDL
MODEL 3
REMARK VINA RESULT:      -8.3      1.690      1.915
REMARK  Name = 
REMARK  7 active torsions:
REMARK  status: ('A' for Active; 'I' for Inactive)
REMARK    1  A    between atoms: C_1  and  N_2
REMARK    2  A    between atoms: N_2  and  C_3
REMARK    3  A    between atoms: N_2  and  S_4
REMARK    4  A    between atoms: S_4  and  N_7
REMARK    5  A    between atoms: N_7  and  C_8
REMARK    6  A    between atoms: C_13  and  C_14
REMARK    7  A    between atoms: N_16  and  C_17
REMARK                            x       y       z     vdW  Elec       q    Type
REMARK                         _______ _______ _______ _____ _____    ______ ____
ROOT
ATOM      1  C   UNL     1       4.552   3.876  19.016  0.00  0.00    +0.000 A 
ATOM      2  C   UNL     1       4.473   2.686  19.735  0.00  0.00    +0.000 A 
ATOM      3  C   UNL     1       3.514   2.547  20.740  0.00  0.00    +0.000 A 
ATOM      4  C   UNL     1       2.626   3.592  21.012  0.00  0.00    +0.000 A 
ATOM      5  F   UNL     1       1.740   3.412  22.004  0.00  0.00    +0.000 F 
ATOM      6  C   UNL     1       2.664   4.785  20.288  0.00  0.00    +0.000 A 
ATOM      7  C   UNL     1       3.641   4.910  19.283  0.00  0.00    +0.000 A 
ATOM      8  F   UNL     1       3.766   6.037  18.566  0.00  0.00    +0.000 F 
ENDROOT
BRANCH   6   9
ATOM      9  C   UNL     1       1.720   5.912  20.550  0.00  0.00    +0.000 C 
ATOM     10  O   UNL     1       0.525   5.660  20.621  0.00  0.00    +0.000 OA
ATOM     11  N   UNL     1       2.244   7.200  20.654  0.00  0.00    +0.000 N 
ATOM     12  H   UNL     1       3.225   7.342  20.441  0.00  0.00    +0.000 HD
BRANCH  11  13
ATOM     13  C   UNL     1       1.478   8.372  20.903  0.00  0.00    +0.000 A 
ATOM     14  C   UNL     1       1.240   8.891  22.181  0.00  0.00    +0.000 A 
ATOM     15  N   UNL     1       0.487   9.981  22.485  0.00  0.00    +0.000 NA
ATOM     16  C   UNL     1      -0.069  10.544  21.402  0.00  0.00    +0.000 A 
ATOM     17  N   UNL     1      -0.911  11.619  21.447  0.00  0.00    +0.000 N 
ATOM     18  C   UNL     1      -1.332  11.930  20.179  0.00  0.00    +0.000 A 
ATOM     19  C   UNL     1      -0.724  11.049  19.307  0.00  0.00    +0.000 A 
ATOM     20  C   UNL     1       0.082  10.160  20.076  0.00  0.00    +0.000 A 
ATOM     21  C   UNL     1       0.916   9.052  19.812  0.00  0.00    +0.000 A 
ATOM     22  H   UNL     1      -1.181  12.079  22.305  0.00  0.00    +0.000 HD
ENDBRANCH  11  13
ENDBRANCH   6   9
BRANCH   1  23
ATOM     23  N   UNL     1       5.552   4.002  17.982  0.00  0.00    +0.000 N 
ATOM     24  H   UNL     1       5.947   3.087  17.734  0.00  0.00    +0.000 HD
BRANCH  23  25
ATOM     25  S   UNL     1       6.897   4.949  18.389  0.00  0.00    +0.000 S 
ATOM     26  O   UNL     1       8.044   4.339  17.766  0.00  0.00    +0.000 OA
ATOM     27  O   UNL     1       6.865   5.267  19.800  0.00  0.00    +0.000 OA
BRANCH  25  29
ATOM     28  C   UNL     1       7.582   7.397  17.539  0.00  0.00    +0.000 C 
ATOM     29  N   UNL     1       6.518   6.367  17.527  0.00  0.00    +0.000 NA
ATOM     30  C   UNL     1       6.067   6.104  16.135  0.00  0.00    +0.000 C 
ENDBRANCH  25  29
ENDBRANCH  23  25
ENDBRANCH   1  23
TORSDOF 5
ENDMDL
MODEL 4
REMARK VINA RESULT:      -8.3      1.181      1.493
REMARK  Name = 
REMARK  7 active torsions:
REMARK  status: ('A' for Active; 'I' for Inactive)
REMARK    1  A    between atoms: C_1  and  N_2
REMARK    2  A    between atoms: N_2  and  C_3
REMARK    3  A    between atoms: N_2  and  S_4
REMARK    4  A    between atoms: S_4  and  N_7
REMARK    5  A    between atoms: N_7  and  C_8
REMARK    6  A    between atoms: C_13  and  C_14
REMARK    7  A    between atoms: N_16  and  C_17
REMARK                            x       y       z     vdW  Elec       q    Type
REMARK                         _______ _______ _______ _____ _____    ______ ____
ROOT
ATOM      1  C   UNL     1       4.805   3.980  18.340  0.00  0.00    +0.000 A 
ATOM      2  C   UNL     1       4.111   3.081  17.535  0.00  0.00    +0.000 A 
ATOM      3  C   UNL     1       2.714   3.088  17.535  0.00  0.00    +0.000 A 
ATOM      4  C   UNL     1       2.017   4.004  18.327  0.00  0.00    +0.000 A 
ATOM      5  F   UNL     1       0.677   3.951  18.306  0.00  0.00    +0.000 F 
ATOM      6  C   UNL     1       2.688   4.935  19.123  0.00  0.00    +0.000 A 
ATOM      7  C   UNL     1       4.095   4.910  19.115  0.00  0.00    +0.000 A 
ATOM      8  F   UNL     1       4.814   5.748  19.877  0.00  0.00    +0.000 F 
ENDROOT
BRANCH   6   9
ATOM      9  C   UNL     1       1.969   5.933  19.969  0.00  0.00    +0.000 C 
ATOM     10  O   UNL     1       1.240   5.517  20.860  0.00  0.00    +0.000 OA
ATOM     11  N   UNL     1       2.128   7.286  19.672  0.00  0.00    +0.000 N 
ATOM     12  H   UNL     1       2.634   7.541  18.831  0.00  0.00    +0.000 HD
BRANCH  11  13
ATOM     13  C   UNL     1       1.514   8.353  20.385  0.00  0.00    +0.000 A 
ATOM     14  C   UNL     1       1.606   8.519  21.772  0.00  0.00    +0.000 A 
ATOM     15  N   UNL     1       1.012   9.492  22.511  0.00  0.00    +0.000 NA
ATOM     16  C   UNL     1       0.262  10.320  21.770  0.00  0.00    +0.000 A 
ATOM     17  N   UNL     1      -0.478  11.348  22.284  0.00  0.00    +0.000 N 
ATOM     18  C   UNL     1      -1.155  11.981  21.273  0.00  0.00    +0.000 A 
ATOM     19  C   UNL     1      -0.817  11.359  20.088  0.00  0.00    +0.000 A 
ATOM     20  C   UNL     1       0.084  10.299  20.393  0.00  0.00    +0.000 A 
ATOM     21  C   UNL     1       0.764   9.297  19.667  0.00  0.00    +0.000 A 
ATOM     22  H   UNL     1      -0.516  11.567  23.270  0.00  0.00    +0.000 HD
ENDBRANCH  11  13
ENDBRANCH   6   9
BRANCH   1  23
ATOM     23  N   UNL     1       6.249   3.956  18.328  0.00  0.00    +0.000 N 
ATOM     24  H   UNL     1       6.632   4.195  19.249  0.00  0.00    +0.000 HD
BRANCH  23  25
ATOM     25  S   UNL     1       6.980   5.058  17.267  0.00  0.00    +0.000 S 
ATOM     26  O   UNL     1       8.091   4.376  16.654  0.00  0.00    +0.000 OA
ATOM     27  O   UNL     1       7.127   6.342  17.916  0.00  0.00    +0.000 OA
BRANCH  25  29
ATOM     28  C   UNL     1       5.192   6.566  15.958  0.00  0.00    +0.000 C 
ATOM     29  N   UNL     1       5.741   5.199  16.107  0.00  0.00    +0.000 NA
ATOM     30  C   UNL     1       6.113   4.642  14.780  0.00  0.00    +0.000 C 
ENDBRANCH  25  29
ENDBRANCH  23  25
ENDBRANCH   1  23
TORSDOF 5
ENDMDL
MODEL 5
REMARK VINA RESULT:      -8.2      1.438      1.935
REMARK  Name = 
REMARK  7 active torsions:
REMARK  status: ('A' for Active; 'I' for Inactive)
REMARK    1  A    between atoms: C_1  and  N_2
REMARK    2  A    between atoms: N_2  and  C_3
REMARK    3  A    between atoms: N_2  and  S_4
REMARK    4  A    between atoms: S_4  and  N_7
REMARK    5  A    between atoms: N_7  and  C_8
REMARK    6  A    between atoms: C_13  and  C_14
REMARK    7  A    between atoms: N_16  and  C_17
REMARK                            x       y       z     vdW  Elec       q    Type
REMARK                         _______ _______ _______ _____ _____    ______ ____
ROOT
ATOM      1  C   UNL     1       4.859   3.913  18.447  0.00  0.00    +0.000 A 
ATOM      2  C   UNL     1       4.194   2.942  17.700  0.00  0.00    +0.000 A 
ATOM      3  C   UNL     1       2.799   2.935  17.661  0.00  0.00    +0.000 A 
ATOM      4  C   UNL     1       2.072   3.908  18.354  0.00  0.00    +0.000 A 
ATOM      5  F   UNL     1       0.733   3.839  18.300  0.00  0.00    +0.000 F 
ATOM      6  C   UNL     1       2.712   4.909  19.087  0.00  0.00    +0.000 A 
ATOM      7  C   UNL     1       4.119   4.897  19.121  0.00  0.00    +0.000 A 
ATOM      8  F   UNL     1       4.809   5.803  19.829  0.00  0.00    +0.000 F 
ENDROOT
BRANCH   6   9
ATOM      9  C   UNL     1       1.961   5.966  19.826  0.00  0.00    +0.000 C 
ATOM     10  O   UNL     1       1.312   5.635  20.809  0.00  0.00    +0.000 OA
ATOM     11  N   UNL     1       2.000   7.270  19.333  0.00  0.00    +0.000 N 
ATOM     12  H   UNL     1       2.443   7.435  18.435  0.00  0.00    +0.000 HD
BRANCH  11  13
ATOM     13  C   UNL     1       1.343   8.384  19.924  0.00  0.00    +0.000 A 
ATOM     14  C   UNL     1       1.269   9.650  19.332  0.00  0.00    +0.000 A 
ATOM     15  N   UNL     1       0.692  10.760  19.863  0.00  0.00    +0.000 NA
ATOM     16  C   UNL     1       0.186  10.545  21.086  0.00  0.00    +0.000 A 
ATOM     17  N   UNL     1      -0.400  11.513  21.852  0.00  0.00    +0.000 N 
ATOM     18  C   UNL     1      -0.780  10.982  23.058  0.00  0.00    +0.000 A 
ATOM     19  C   UNL     1      -0.452   9.641  23.047  0.00  0.00    +0.000 A 
ATOM     20  C   UNL     1       0.165   9.352  21.796  0.00  0.00    +0.000 A 
ATOM     21  C   UNL     1       0.735   8.218  21.178  0.00  0.00    +0.000 A 
ATOM     22  H   UNL     1      -0.501  12.473  21.553  0.00  0.00    +0.000 HD
ENDBRANCH  11  13
ENDBRANCH   6   9
BRANCH   1  23
ATOM     23  N   UNL     1       6.302   3.903  18.477  0.00  0.00    +0.000 N 
ATOM     24  H   UNL     1       6.657   4.227  19.384  0.00  0.00    +0.000 HD
BRANCH  23  25
ATOM     25  S   UNL     1       7.054   4.912  17.341  0.00  0.00    +0.000 S 
ATOM     26  O   UNL     1       8.214   4.207  16.857  0.00  0.00    +0.000 OA
ATOM     27  O   UNL     1       7.133   6.261  17.858  0.00  0.00    +0.000 OA
BRANCH  25  29
ATOM     28  C   UNL     1       5.344   6.224  15.749  0.00  0.00    +0.000 C 
ATOM     29  N   UNL     1       5.872   4.891  16.116  0.00  0.00    +0.000 NA
ATOM     30  C   UNL     1       6.301   4.150  14.900  0.00  0.00    +0.000 C 
ENDBRANCH  25  29
ENDBRANCH  23  25
ENDBRANCH   1  23
TORSDOF 5
ENDMDL
MODEL 6
REMARK VINA RESULT:      -8.0      0.832      1.245
REMARK  Name = 
REMARK  7 active torsions:
REMARK  status: ('A' for Active; 'I' for Inactive)
REMARK    1  A    between atoms: C_1  and  N_2
REMARK    2  A    between atoms: N_2  and  C_3
REMARK    3  A    between atoms: N_2  and  S_4
REMARK    4  A    between atoms: S_4  and  N_7
REMARK    5  A    between atoms: N_7  and  C_8
REMARK    6  A    between atoms: C_13  and  C_14
REMARK    7  A    between atoms: N_16  and  C_17
REMARK                            x       y       z     vdW  Elec       q    Type
REMARK                         _______ _______ _______ _____ _____    ______ ____
ROOT
ATOM      1  C   UNL     1       4.905   4.254  17.899  0.00  0.00    +0.000 A 
ATOM      2  C   UNL     1       4.223   3.275  17.180  0.00  0.00    +0.000 A 
ATOM      3  C   UNL     1       2.832   3.199  17.262  0.00  0.00    +0.000 A 
ATOM      4  C   UNL     1       2.124   4.112  18.049  0.00  0.00    +0.000 A 
ATOM      5  F   UNL     1       0.790   3.979  18.109  0.00  0.00    +0.000 F 
ATOM      6  C   UNL     1       2.779   5.122  18.757  0.00  0.00    +0.000 A 
ATOM      7  C   UNL     1       4.182   5.179  18.668  0.00  0.00    +0.000 A 
ATOM      8  F   UNL     1       4.890   6.097  19.344  0.00  0.00    +0.000 F 
ENDROOT
BRANCH   6   9
ATOM      9  C   UNL     1       2.048   6.118  19.595  0.00  0.00    +0.000 C 
ATOM     10  O   UNL     1       1.513   5.726  20.624  0.00  0.00    +0.000 OA
ATOM     11  N   UNL     1       1.973   7.433  19.140  0.00  0.00    +0.000 N 
ATOM     12  H   UNL     1       2.319   7.645  18.210  0.00  0.00    +0.000 HD
BRANCH  11  13
ATOM     13  C   UNL     1       1.317   8.495  19.824  0.00  0.00    +0.000 A 
ATOM     14  C   UNL     1       1.219   9.799  19.327  0.00  0.00    +0.000 A 
ATOM     15  N   UNL     1       0.642  10.861  19.948  0.00  0.00    +0.000 NA
ATOM     16  C   UNL     1       0.165  10.553  21.163  0.00  0.00    +0.000 A 
ATOM     17  N   UNL     1      -0.414  11.457  22.009  0.00  0.00    +0.000 N 
ATOM     18  C   UNL     1      -0.764  10.836  23.180  0.00  0.00    +0.000 A 
ATOM     19  C   UNL     1      -0.424   9.502  23.066  0.00  0.00    +0.000 A 
ATOM     20  C   UNL     1       0.170   9.311  21.785  0.00  0.00    +0.000 A 
ATOM     21  C   UNL     1       0.737   8.232  21.074  0.00  0.00    +0.000 A 
ATOM     22  H   UNL     1      -0.531  12.434  21.782  0.00  0.00    +0.000 HD
ENDBRANCH  11  13
ENDBRANCH   6   9
BRANCH   1  23
ATOM     23  N   UNL     1       6.344   4.315  17.802  0.00  0.00    +0.000 N 
ATOM     24  H   UNL     1       6.761   4.648  18.679  0.00  0.00    +0.000 HD
BRANCH  23  25
ATOM     25  S   UNL     1       6.944   5.371  16.619  0.00  0.00    +0.000 S 
ATOM     26  O   UNL     1       5.826   6.141  16.138  0.00  0.00    +0.000 OA
ATOM     27  O   UNL     1       7.828   4.656  15.725  0.00  0.00    +0.000 OA
BRANCH  25  29
ATOM     28  C   UNL     1       7.547   7.818  17.529  0.00  0.00    +0.000 C 
ATOM     29  N   UNL     1       7.900   6.382  17.600  0.00  0.00    +0.000 NA
ATOM     30  C   UNL     1       7.969   5.933  19.015  0.00  0.00    +0.000 C 
ENDBRANCH  25  29
ENDBRANCH  23  25
ENDBRANCH   1  23
TORSDOF 5
ENDMDL
MODEL 7
REMARK VINA RESULT:      -8.0      0.941      1.094
REMARK  Name = 
REMARK  7 active torsions:
REMARK  status: ('A' for Active; 'I' for Inactive)
REMARK    1  A    between atoms: C_1  and  N_2
REMARK    2  A    between atoms: N_2  and  C_3
REMARK    3  A    between atoms: N_2  and  S_4
REMARK    4  A    between atoms: S_4  and  N_7
REMARK    5  A    between atoms: N_7  and  C_8
REMARK    6  A    between atoms: C_13  and  C_14
REMARK    7  A    between atoms: N_16  and  C_17
REMARK                            x       y       z     vdW  Elec       q    Type
REMARK                         _______ _______ _______ _____ _____    ______ ____
ROOT
ATOM      1  C   UNL     1       4.671   3.786  18.600  0.00  0.00    +0.000 A 
ATOM      2  C   UNL     1       3.965   2.744  18.004  0.00  0.00    +0.000 A 
ATOM      3  C   UNL     1       2.576   2.689  18.130  0.00  0.00    +0.000 A 
ATOM      4  C   UNL     1       1.895   3.684  18.837  0.00  0.00    +0.000 A 
ATOM      5  F   UNL     1       0.562   3.568  18.946  0.00  0.00    +0.000 F 
ATOM      6  C   UNL     1       2.574   4.755  19.420  0.00  0.00    +0.000 A 
ATOM      7  C   UNL     1       3.975   4.792  19.289  0.00  0.00    +0.000 A 
ATOM      8  F   UNL     1       4.705   5.768  19.848  0.00  0.00    +0.000 F 
ENDROOT
BRANCH   6   9
ATOM      9  C   UNL     1       1.871   5.838  20.170  0.00  0.00    +0.000 C 
ATOM     10  O   UNL     1       1.054   5.515  21.022  0.00  0.00    +0.000 OA
ATOM     11  N   UNL     1       2.147   7.162  19.830  0.00  0.00    +0.000 N 
ATOM     12  H   UNL     1       2.728   7.342  19.018  0.00  0.00    +0.000 HD
BRANCH  11  13
ATOM     13  C   UNL     1       1.563   8.300  20.452  0.00  0.00    +0.000 A 
ATOM     14  C   UNL     1       1.609   8.546  21.828  0.00  0.00    +0.000 A 
ATOM     15  N   UNL     1       1.039   9.592  22.483  0.00  0.00    +0.000 NA
ATOM     16  C   UNL     1       0.364  10.409  21.663  0.00  0.00    +0.000 A 
ATOM     17  N   UNL     1      -0.341  11.503  22.083  0.00  0.00    +0.000 N 
ATOM     18  C   UNL     1      -0.943  12.106  21.009  0.00  0.00    +0.000 A 
ATOM     19  C   UNL     1      -0.593  11.395  19.878  0.00  0.00    +0.000 A 
ATOM     20  C   UNL     1       0.239  10.312  20.283  0.00  0.00    +0.000 A 
ATOM     21  C   UNL     1       0.892   9.234  19.648  0.00  0.00    +0.000 A 
ATOM     22  H   UNL     1      -0.406  11.783  23.052  0.00  0.00    +0.000 HD
ENDBRANCH  11  13
ENDBRANCH   6   9
BRANCH   1  23
ATOM     23  N   UNL     1       6.107   3.825  18.460  0.00  0.00    +0.000 N 
ATOM     24  H   UNL     1       6.536   4.410  19.187  0.00  0.00    +0.000 HD
BRANCH  23  25
ATOM     25  S   UNL     1       6.673   4.478  17.002  0.00  0.00    +0.000 S 
ATOM     26  O   UNL     1       5.852   3.933  15.951  0.00  0.00    +0.000 OA
ATOM     27  O   UNL     1       8.118   4.415  16.962  0.00  0.00    +0.000 OA
BRANCH  25  29
ATOM     28  C   UNL     1       7.370   7.040  17.369  0.00  0.00    +0.000 C 
ATOM     29  N   UNL     1       6.229   6.106  17.228  0.00  0.00    +0.000 NA
ATOM     30  C   UNL     1       5.275   6.603  16.202  0.00  0.00    +0.000 C 
ENDBRANCH  25  29
ENDBRANCH  23  25
ENDBRANCH   1  23
TORSDOF 5
ENDMDL
MODEL 8
REMARK VINA RESULT:      -8.0      1.638      1.865
REMARK  Name = 
REMARK  7 active torsions:
REMARK  status: ('A' for Active; 'I' for Inactive)
REMARK    1  A    between atoms: C_1  and  N_2
REMARK    2  A    between atoms: N_2  and  C_3
REMARK    3  A    between atoms: N_2  and  S_4
REMARK    4  A    between atoms: S_4  and  N_7
REMARK    5  A    between atoms: N_7  and  C_8
REMARK    6  A    between atoms: C_13  and  C_14
REMARK    7  A    between atoms: N_16  and  C_17
REMARK                            x       y       z     vdW  Elec       q    Type
REMARK                         _______ _______ _______ _____ _____    ______ ____
ROOT
ATOM      1  C   UNL     1       4.827   4.430  18.487  0.00  0.00    +0.000 A 
ATOM      2  C   UNL     1       4.478   3.311  19.241  0.00  0.00    +0.000 A 
ATOM      3  C   UNL     1       3.433   3.397  20.162  0.00  0.00    +0.000 A 
ATOM      4  C   UNL     1       2.729   4.595  20.316  0.00  0.00    +0.000 A 
ATOM      5  F   UNL     1       1.749   4.627  21.232  0.00  0.00    +0.000 F 
ATOM      6  C   UNL     1       3.038   5.723  19.553  0.00  0.00    +0.000 A 
ATOM      7  C   UNL     1       4.099   5.621  18.634  0.00  0.00    +0.000 A 
ATOM      8  F   UNL     1       4.481   6.668  17.888  0.00  0.00    +0.000 F 
ENDROOT
BRANCH   6   9
ATOM      9  C   UNL     1       2.295   7.011  19.688  0.00  0.00    +0.000 C 
ATOM     10  O   UNL     1       2.110   7.679  18.680  0.00  0.00    +0.000 OA
ATOM     11  N   UNL     1       1.890   7.408  20.962  0.00  0.00    +0.000 N 
ATOM     12  H   UNL     1       2.206   6.869  21.761  0.00  0.00    +0.000 HD
BRANCH  11  13
ATOM     13  C   UNL     1       1.173   8.602  21.252  0.00  0.00    +0.000 A 
ATOM     14  C   UNL     1       1.064   9.153  22.534  0.00  0.00    +0.000 A 
ATOM     15  N   UNL     1       0.363  10.265  22.879  0.00  0.00    +0.000 NA
ATOM     16  C   UNL     1      -0.279  10.816  21.839  0.00  0.00    +0.000 A 
ATOM     17  N   UNL     1      -1.092  11.910  21.935  0.00  0.00    +0.000 N 
ATOM     18  C   UNL     1      -1.622  12.203  20.704  0.00  0.00    +0.000 A 
ATOM     19  C   UNL     1      -1.113  11.290  19.802  0.00  0.00    +0.000 A 
ATOM     20  C   UNL     1      -0.257  10.401  20.514  0.00  0.00    +0.000 A 
ATOM     21  C   UNL     1       0.526   9.270  20.201  0.00  0.00    +0.000 A 
ATOM     22  H   UNL     1      -1.273  12.394  22.804  0.00  0.00    +0.000 HD
ENDBRANCH  11  13
ENDBRANCH   6   9
BRANCH   1  23
ATOM     23  N   UNL     1       5.912   4.322  17.540  0.00  0.00    +0.000 N 
ATOM     24  H   UNL     1       6.145   3.340  17.353  0.00  0.00    +0.000 HD
BRANCH  23  25
ATOM     25  S   UNL     1       7.375   5.019  18.037  0.00  0.00    +0.000 S 
ATOM     26  O   UNL     1       8.403   4.032  17.824  0.00  0.00    +0.000 OA
ATOM     27  O   UNL     1       7.197   5.684  19.309  0.00  0.00    +0.000 OA
BRANCH  25  29
ATOM     28  C   UNL     1       6.614   6.072  15.692  0.00  0.00    +0.000 C 
ATOM     29  N   UNL     1       7.539   6.219  16.840  0.00  0.00    +0.000 NA
ATOM     30  C   UNL     1       7.478   7.601  17.383  0.00  0.00    +0.000 C 
ENDBRANCH  25  29
ENDBRANCH  23  25
ENDBRANCH   1  23
TORSDOF 5
ENDMDL
MODEL 9
REMARK VINA RESULT:      -7.9      1.716      2.110
REMARK  Name = 
REMARK  7 active torsions:
REMARK  status: ('A' for Active; 'I' for Inactive)
REMARK    1  A    between atoms: C_1  and  N_2
REMARK    2  A    between atoms: N_2  and  C_3
REMARK    3  A    between atoms: N_2  and  S_4
REMARK    4  A    between atoms: S_4  and  N_7
REMARK    5  A    between atoms: N_7  and  C_8
REMARK    6  A    between atoms: C_13  and  C_14
REMARK    7  A    between atoms: N_16  and  C_17
REMARK                            x       y       z     vdW  Elec       q    Type
REMARK                         _______ _______ _______ _____ _____    ______ ____
ROOT
ATOM      1  C   UNL     1       4.885   4.851  17.547  0.00  0.00    +0.000 A 
ATOM      2  C   UNL     1       4.854   3.833  18.497  0.00  0.00    +0.000 A 
ATOM      3  C   UNL     1       4.040   3.963  19.624  0.00  0.00    +0.000 A 
ATOM      4  C   UNL     1       3.246   5.101  19.789  0.00  0.00    +0.000 A 
ATOM      5  F   UNL     1       2.501   5.184  20.902  0.00  0.00    +0.000 F 
ATOM      6  C   UNL     1       3.235   6.124  18.839  0.00  0.00    +0.000 A 
ATOM      7  C   UNL     1       4.067   5.980  17.712  0.00  0.00    +0.000 A 
ATOM      8  F   UNL     1       4.141   6.931  16.770  0.00  0.00    +0.000 F 
ENDROOT
BRANCH   6   9
ATOM      9  C   UNL     1       2.389   7.345  18.983  0.00  0.00    +0.000 C 
ATOM     10  O   UNL     1       2.171   8.019  17.986  0.00  0.00    +0.000 OA
ATOM     11  N   UNL     1       1.927   7.680  20.256  0.00  0.00    +0.000 N 
ATOM     12  H   UNL     1       2.269   7.150  21.050  0.00  0.00    +0.000 HD
BRANCH  11  13
ATOM     13  C   UNL     1       1.111   8.806  20.555  0.00  0.00    +0.000 A 
ATOM     14  C   UNL     1       0.933   9.892  19.691  0.00  0.00    +0.000 A 
ATOM     15  N   UNL     1       0.200  11.010  19.936  0.00  0.00    +0.000 NA
ATOM     16  C   UNL     1      -0.355  11.008  21.156  0.00  0.00    +0.000 A 
ATOM     17  N   UNL     1      -1.094  12.040  21.662  0.00  0.00    +0.000 N 
ATOM     18  C   UNL     1      -1.489  11.743  22.941  0.00  0.00    +0.000 A 
ATOM     19  C   UNL     1      -1.011  10.484  23.246  0.00  0.00    +0.000 A 
ATOM     20  C   UNL     1      -0.286  10.006  22.116  0.00  0.00    +0.000 A 
ATOM     21  C   UNL     1       0.447   8.845  21.791  0.00  0.00    +0.000 A 
ATOM     22  H   UNL     1      -1.284  12.890  21.150  0.00  0.00    +0.000 HD
ENDBRANCH  11  13
ENDBRANCH   6   9
BRANCH   1  23
ATOM     23  N   UNL     1       5.734   4.699  16.389  0.00  0.00    +0.000 N 
ATOM     24  H   UNL     1       5.801   3.715  16.105  0.00  0.00    +0.000 HD
BRANCH  23  25
ATOM     25  S   UNL     1       7.343   5.189  16.605  0.00  0.00    +0.000 S 
ATOM     26  O   UNL     1       7.723   5.913  15.420  0.00  0.00    +0.000 OA
ATOM     27  O   UNL     1       8.127   4.088  17.120  0.00  0.00    +0.000 OA
BRANCH  25  29
ATOM     28  C   UNL     1       7.821   5.957  19.128  0.00  0.00    +0.000 C 
ATOM     29  N   UNL     1       7.130   6.313  17.867  0.00  0.00    +0.000 NA
ATOM     30  C   UNL     1       7.457   7.708  17.471  0.00  0.00    +0.000 C 
ENDBRANCH  25  29
ENDBRANCH  23  25
ENDBRANCH   1  23
TORSDOF 5
ENDMDL
