MODEL 1
REMARK VINA RESULT:      -8.6      0.000      0.000
REMARK  Name = 
REMARK  3 active torsions:
REMARK  status: ('A' for Active; 'I' for Inactive)
REMARK    1  A    between atoms: C_2  and  C_3
REMARK    2  A    between atoms: C_15  and  S_16
REMARK    3  A    between atoms: S_16  and  N_19
REMARK                            x       y       z     vdW  Elec       q    Type
REMARK                         _______ _______ _______ _____ _____    ______ ____
ROOT
ATOM      1  O   UNL     1       3.144   3.076  17.214  0.00  0.00    +0.000 OA
ATOM      2  C   UNL     1       3.584   4.236  17.358  0.00  0.00    +0.000 C 
ATOM      3  N   UNL     1       2.982   5.024  18.409  0.00  0.00    +0.000 N 
ATOM      4  C   UNL     1       2.258   4.057  19.299  0.00  0.00    +0.000 C 
ATOM      5  C   UNL     1       1.209   4.610  20.229  0.00  0.00    +0.000 C 
ATOM      6  C   UNL     1       1.932   5.620  21.056  0.00  0.00    +0.000 C 
ATOM      7  C   UNL     1       2.177   6.712  20.060  0.00  0.00    +0.000 A 
ATOM      8  C   UNL     1       1.544   7.913  20.404  0.00  0.00    +0.000 A 
ATOM      9  C   UNL     1       1.473   8.937  19.505  0.00  0.00    +0.000 A 
ATOM     10  C   UNL     1       2.231   8.835  18.328  0.00  0.00    +0.000 A 
ATOM     11  C   UNL     1       2.894   7.593  17.976  0.00  0.00    +0.000 A 
ATOM     12  C   UNL     1       2.784   6.450  18.786  0.00  0.00    +0.000 A 
ENDROOT
BRANCH   2  13
ATOM     13  C   UNL     1       4.785   4.400  16.475  0.00  0.00    +0.000 A 
ATOM     14  C   UNL     1       6.040   4.559  17.159  0.00  0.00    +0.000 A 
ATOM     15  C   UNL     1       7.265   4.745  16.507  0.00  0.00    +0.000 A 
ATOM     16  C   UNL     1       7.278   4.765  15.128  0.00  0.00    +0.000 A 
ATOM     17  C   UNL     1       6.076   4.580  14.431  0.00  0.00    +0.000 A 
ATOM     18  C   UNL     1       4.839   4.405  15.091  0.00  0.00    +0.000 A 
ENDBRANCH   2  13
BRANCH   9  19
ATOM     19  S   UNL     1       0.277  10.200  19.909  0.00  0.00    +0.000 S 
ATOM     20  O   UNL     1      -0.812   9.536  20.588  0.00  0.00    +0.000 OA
ATOM     21  O   UNL     1       0.970  11.306  20.515  0.00  0.00    +0.000 OA
BRANCH  19  22
ATOM     22  N   UNL     1      -0.310  10.711  18.373  0.00  0.00    +0.000 NA
ATOM     23  C   UNL     1      -0.985  12.031  18.331  0.00  0.00    +0.000 C 
ATOM     24  C   UNL     1      -2.468  11.708  18.411  0.00  0.00    +0.000 C 
ATOM     25  C   UNL     1      -2.616  10.377  17.693  0.00  0.00    +0.000 C 
ATOM     26  C   UNL     1      -1.209   9.784  17.623  0.00  0.00    +0.000 C 
ENDBRANCH  19  22
ENDBRANCH   9  19
TORSDOF 3
ENDMDL
MODEL 2
REMARK VINA RESULT:      -8.4      1.511      1.654
REMARK  Name = 
REMARK  3 active torsions:
REMARK  status: ('A' for Active; 'I' for Inactive)
REMARK    1  A    between atoms: C_2  and  C_3
REMARK    2  A    between atoms: C_15  and  S_16
REMARK    3  A    between atoms: S_16  and  N_19
REMARK                            x       y       z     vdW  Elec       q    Type
REMARK                         _______ _______ _______ _____ _____    ______ ____
ROOT
ATOM      1  O   UNL     1       3.254   2.989  17.144  0.00  0.00    +0.000 OA
ATOM      2  C   UNL     1       3.670   4.157  17.293  0.00  0.00    +0.000 C 
ATOM      3  N   UNL     1       3.040   4.933  18.336  0.00  0.00    +0.000 N 
ATOM      4  C   UNL     1       2.323   3.952  19.218  0.00  0.00    +0.000 C 
ATOM      5  C   UNL     1       1.253   4.485  20.134  0.00  0.00    +0.000 C 
ATOM      6  C   UNL     1       1.946   5.509  20.970  0.00  0.00    +0.000 C 
ATOM      7  C   UNL     1       2.183   6.605  19.977  0.00  0.00    +0.000 A 
ATOM      8  C   UNL     1       1.523   7.794  20.314  0.00  0.00    +0.000 A 
ATOM      9  C   UNL     1       1.444   8.817  19.414  0.00  0.00    +0.000 A 
ATOM     10  C   UNL     1       2.218   8.730  18.246  0.00  0.00    +0.000 A 
ATOM     11  C   UNL     1       2.909   7.501  17.902  0.00  0.00    +0.000 A 
ATOM     12  C   UNL     1       2.810   6.355  18.711  0.00  0.00    +0.000 A 
ENDROOT
BRANCH   2  13
ATOM     13  C   UNL     1       4.879   4.344  16.426  0.00  0.00    +0.000 A 
ATOM     14  C   UNL     1       6.115   4.568  17.125  0.00  0.00    +0.000 A 
ATOM     15  C   UNL     1       7.344   4.784  16.488  0.00  0.00    +0.000 A 
ATOM     16  C   UNL     1       7.378   4.769  15.109  0.00  0.00    +0.000 A 
ATOM     17  C   UNL     1       6.196   4.520  14.398  0.00  0.00    +0.000 A 
ATOM     18  C   UNL     1       4.957   4.315  15.043  0.00  0.00    +0.000 A 
ENDBRANCH   2  13
BRANCH   9  19
ATOM     19  S   UNL     1       0.219  10.057  19.802  0.00  0.00    +0.000 S 
ATOM     20  O   UNL     1      -0.609  10.202  18.626  0.00  0.00    +0.000 OA
ATOM     21  O   UNL     1      -0.355   9.743  21.084  0.00  0.00    +0.000 OA
BRANCH  19  22
ATOM     22  N   UNL     1       1.140  11.502  19.964  0.00  0.00    +0.000 NA
ATOM     23  C   UNL     1       0.612  12.518  20.907  0.00  0.00    +0.000 C 
ATOM     24  C   UNL     1      -0.143  13.502  20.031  0.00  0.00    +0.000 C 
ATOM     25  C   UNL     1       0.618  13.517  18.716  0.00  0.00    +0.000 C 
ATOM     26  C   UNL     1       1.484  12.258  18.723  0.00  0.00    +0.000 C 
ENDBRANCH  19  22
ENDBRANCH   9  19
TORSDOF 3
ENDMDL
MODEL 3
REMARK VINA RESULT:      -8.2      2.845      7.710
REMARK  Name = 
REMARK  3 active torsions:
REMARK  status: ('A' for Active; 'I' for Inactive)
REMARK    1  A    between atoms: C_2  and  C_3
REMARK    2  A    between atoms: C_15  and  S_16
REMARK    3  A    between atoms: S_16  and  N_19
REMARK                            x       y       z     vdW  Elec       q    Type
REMARK                         _______ _______ _______ _____ _____    ______ ____
ROOT
ATOM      1  O   UNL     1       1.569   7.717  21.580  0.00  0.00    +0.000 OA
ATOM      2  C   UNL     1       1.667   7.890  20.348  0.00  0.00    +0.000 C 
ATOM      3  N   UNL     1       2.189   6.779  19.584  0.00  0.00    +0.000 N 
ATOM      4  C   UNL     1       2.088   5.572  20.471  0.00  0.00    +0.000 C 
ATOM      5  C   UNL     1       2.919   4.368  20.113  0.00  0.00    +0.000 C 
ATOM      6  C   UNL     1       2.497   4.017  18.725  0.00  0.00    +0.000 C 
ATOM      7  C   UNL     1       3.089   5.141  17.932  0.00  0.00    +0.000 A 
ATOM      8  C   UNL     1       4.043   4.707  17.003  0.00  0.00    +0.000 A 
ATOM      9  C   UNL     1       4.839   5.609  16.359  0.00  0.00    +0.000 A 
ATOM     10  C   UNL     1       4.530   6.972  16.489  0.00  0.00    +0.000 A 
ATOM     11  C   UNL     1       3.535   7.421  17.445  0.00  0.00    +0.000 A 
ATOM     12  C   UNL     1       2.867   6.514  18.285  0.00  0.00    +0.000 A 
ENDROOT
BRANCH   2  13
ATOM     13  C   UNL     1       1.010   9.191  19.998  0.00  0.00    +0.000 A 
ATOM     14  C   UNL     1       0.508   9.952  21.111  0.00  0.00    +0.000 A 
ATOM     15  C   UNL     1      -0.152  11.180  20.982  0.00  0.00    +0.000 A 
ATOM     16  C   UNL     1      -0.323  11.702  19.717  0.00  0.00    +0.000 A 
ATOM     17  C   UNL     1       0.184  11.002  18.614  0.00  0.00    +0.000 A 
ATOM     18  C   UNL     1       0.839   9.758  18.745  0.00  0.00    +0.000 A 
ENDBRANCH   2  13
BRANCH   9  19
ATOM     19  S   UNL     1       6.274   4.902  15.565  0.00  0.00    +0.000 S 
ATOM     20  O   UNL     1       6.116   3.467  15.629  0.00  0.00    +0.000 OA
ATOM     21  O   UNL     1       6.477   5.575  14.310  0.00  0.00    +0.000 OA
BRANCH  19  22
ATOM     22  N   UNL     1       7.570   5.323  16.617  0.00  0.00    +0.000 NA
ATOM     23  C   UNL     1       7.765   4.457  17.804  0.00  0.00    +0.000 C 
ATOM     24  C   UNL     1       7.061   5.188  18.935  0.00  0.00    +0.000 C 
ATOM     25  C   UNL     1       7.235   6.663  18.614  0.00  0.00    +0.000 C 
ATOM     26  C   UNL     1       7.626   6.722  17.137  0.00  0.00    +0.000 C 
ENDBRANCH  19  22
ENDBRANCH   9  19
TORSDOF 3
ENDMDL
MODEL 4
REMARK VINA RESULT:      -8.1      1.707      2.129
REMARK  Name = 
REMARK  3 active torsions:
REMARK  status: ('A' for Active; 'I' for Inactive)
REMARK    1  A    between atoms: C_2  and  C_3
REMARK    2  A    between atoms: C_15  and  S_16
REMARK    3  A    between atoms: S_16  and  N_19
REMARK                            x       y       z     vdW  Elec       q    Type
REMARK                         _______ _______ _______ _____ _____    ______ ____
ROOT
ATOM      1  O   UNL     1       3.194   3.182  17.330  0.00  0.00    +0.000 OA
ATOM      2  C   UNL     1       3.617   4.355  17.394  0.00  0.00    +0.000 C 
ATOM      3  N   UNL     1       2.997   5.208  18.382  0.00  0.00    +0.000 N 
ATOM      4  C   UNL     1       2.278   4.297  19.334  0.00  0.00    +0.000 C 
ATOM      5  C   UNL     1       1.215   4.900  20.215  0.00  0.00    +0.000 C 
ATOM      6  C   UNL     1       1.919   5.976  20.972  0.00  0.00    +0.000 C 
ATOM      7  C   UNL     1       2.157   6.998  19.903  0.00  0.00    +0.000 A 
ATOM      8  C   UNL     1       1.506   8.212  20.157  0.00  0.00    +0.000 A 
ATOM      9  C   UNL     1       1.428   9.168  19.186  0.00  0.00    +0.000 A 
ATOM     10  C   UNL     1       2.197   8.993  18.024  0.00  0.00    +0.000 A 
ATOM     11  C   UNL     1       2.879   7.739  17.766  0.00  0.00    +0.000 A 
ATOM     12  C   UNL     1       2.777   6.655  18.655  0.00  0.00    +0.000 A 
ENDROOT
BRANCH   2  13
ATOM     13  C   UNL     1       4.823   4.473  16.510  0.00  0.00    +0.000 A 
ATOM     14  C   UNL     1       5.860   5.347  16.988  0.00  0.00    +0.000 A 
ATOM     15  C   UNL     1       7.049   5.599  16.293  0.00  0.00    +0.000 A 
ATOM     16  C   UNL     1       7.249   4.966  15.085  0.00  0.00    +0.000 A 
ATOM     17  C   UNL     1       6.272   4.081  14.607  0.00  0.00    +0.000 A 
ATOM     18  C   UNL     1       5.068   3.838  15.303  0.00  0.00    +0.000 A 
ENDBRANCH   2  13
BRANCH   9  19
ATOM     19  S   UNL     1       0.213  10.440  19.491  0.00  0.00    +0.000 S 
ATOM     20  O   UNL     1       0.463  11.489  18.528  0.00  0.00    +0.000 OA
ATOM     21  O   UNL     1      -1.080   9.818  19.596  0.00  0.00    +0.000 OA
BRANCH  19  22
ATOM     22  N   UNL     1       0.643  11.052  21.041  0.00  0.00    +0.000 NA
ATOM     23  C   UNL     1      -0.238  10.667  22.170  0.00  0.00    +0.000 C 
ATOM     24  C   UNL     1      -1.181  11.845  22.343  0.00  0.00    +0.000 C 
ATOM     25  C   UNL     1      -0.356  13.064  21.962  0.00  0.00    +0.000 C 
ATOM     26  C   UNL     1       0.844  12.525  21.183  0.00  0.00    +0.000 C 
ENDBRANCH  19  22
ENDBRANCH   9  19
TORSDOF 3
ENDMDL
MODEL 5
REMARK VINA RESULT:      -8.1      3.124      7.774
REMARK  Name = 
REMARK  3 active torsions:
REMARK  status: ('A' for Active; 'I' for Inactive)
REMARK    1  A    between atoms: C_2  and  C_3
REMARK    2  A    between atoms: C_15  and  S_16
REMARK    3  A    between atoms: S_16  and  N_19
REMARK                            x       y       z     vdW  Elec       q    Type
REMARK                         _______ _______ _______ _____ _____    ______ ____
ROOT
ATOM      1  O   UNL     1       0.626   9.777  17.992  0.00  0.00    +0.000 OA
ATOM      2  C   UNL     1       0.966   9.266  19.080  0.00  0.00    +0.000 C 
ATOM      3  N   UNL     1       1.959   8.219  19.015  0.00  0.00    +0.000 N 
ATOM      4  C   UNL     1       2.596   8.325  17.659  0.00  0.00    +0.000 C 
ATOM      5  C   UNL     1       3.363   7.133  17.149  0.00  0.00    +0.000 C 
ATOM      6  C   UNL     1       4.408   6.886  18.186  0.00  0.00    +0.000 C 
ATOM      7  C   UNL     1       3.591   6.358  19.325  0.00  0.00    +0.000 A 
ATOM      8  C   UNL     1       3.930   5.044  19.673  0.00  0.00    +0.000 A 
ATOM      9  C   UNL     1       3.141   4.333  20.531  0.00  0.00    +0.000 A 
ATOM     10  C   UNL     1       2.123   5.019  21.212  0.00  0.00    +0.000 A 
ATOM     11  C   UNL     1       1.779   6.383  20.857  0.00  0.00    +0.000 A 
ATOM     12  C   UNL     1       2.434   7.054  19.811  0.00  0.00    +0.000 A 
ENDROOT
BRANCH   2  13
ATOM     13  C   UNL     1       0.346  10.061  20.190  0.00  0.00    +0.000 A 
ATOM     14  C   UNL     1       0.102   9.338  21.409  0.00  0.00    +0.000 A 
ATOM     15  C   UNL     1      -0.488   9.904  22.547  0.00  0.00    +0.000 A 
ATOM     16  C   UNL     1      -0.846  11.235  22.506  0.00  0.00    +0.000 A 
ATOM     17  C   UNL     1      -0.591  11.976  21.344  0.00  0.00    +0.000 A 
ATOM     18  C   UNL     1      -0.008  11.401  20.194  0.00  0.00    +0.000 A 
ENDBRANCH   2  13
BRANCH   9  19
ATOM     19  S   UNL     1       3.438   2.573  20.529  0.00  0.00    +0.000 S 
ATOM     20  O   UNL     1       4.805   2.385  20.096  0.00  0.00    +0.000 OA
ATOM     21  O   UNL     1       2.971   2.032  21.778  0.00  0.00    +0.000 OA
BRANCH  19  22
ATOM     22  N   UNL     1       2.416   1.988  19.273  0.00  0.00    +0.000 NA
ATOM     23  C   UNL     1       3.010   1.924  17.916  0.00  0.00    +0.000 C 
ATOM     24  C   UNL     1       2.548   3.200  17.232  0.00  0.00    +0.000 C 
ATOM     25  C   UNL     1       1.173   3.479  17.815  0.00  0.00    +0.000 C 
ATOM     26  C   UNL     1       1.085   2.641  19.091  0.00  0.00    +0.000 C 
ENDBRANCH  19  22
ENDBRANCH   9  19
TORSDOF 3
ENDMDL
MODEL 6
REMARK VINA RESULT:      -7.9      1.702      2.409
REMARK  Name = 
REMARK  3 active torsions:
REMARK  status: ('A' for Active; 'I' for Inactive)
REMARK    1  A    between atoms: C_2  and  C_3
REMARK    2  A    between atoms: C_15  and  S_16
REMARK    3  A    between atoms: S_16  and  N_19
REMARK                            x       y       z     vdW  Elec       q    Type
REMARK                         _______ _______ _______ _____ _____    ______ ____
ROOT
ATOM      1  O   UNL     1       3.381   3.252  17.230  0.00  0.00    +0.000 OA
ATOM      2  C   UNL     1       3.770   4.430  17.371  0.00  0.00    +0.000 C 
ATOM      3  N   UNL     1       3.093   5.213  18.380  0.00  0.00    +0.000 N 
ATOM      4  C   UNL     1       2.366   4.233  19.256  0.00  0.00    +0.000 C 
ATOM      5  C   UNL     1       1.257   4.761  20.129  0.00  0.00    +0.000 C 
ATOM      6  C   UNL     1       1.905   5.812  20.967  0.00  0.00    +0.000 C 
ATOM      7  C   UNL     1       2.153   6.896  19.963  0.00  0.00    +0.000 A 
ATOM      8  C   UNL     1       1.460   8.078  20.257  0.00  0.00    +0.000 A 
ATOM      9  C   UNL     1       1.391   9.083  19.337  0.00  0.00    +0.000 A 
ATOM     10  C   UNL     1       2.204   8.990  18.196  0.00  0.00    +0.000 A 
ATOM     11  C   UNL     1       2.928   7.769  17.897  0.00  0.00    +0.000 A 
ATOM     12  C   UNL     1       2.825   6.636  18.722  0.00  0.00    +0.000 A 
ENDROOT
BRANCH   2  13
ATOM     13  C   UNL     1       5.002   4.626  16.539  0.00  0.00    +0.000 A 
ATOM     14  C   UNL     1       4.958   4.053  15.221  0.00  0.00    +0.000 A 
ATOM     15  C   UNL     1       6.018   4.114  14.308  0.00  0.00    +0.000 A 
ATOM     16  C   UNL     1       7.170   4.772  14.684  0.00  0.00    +0.000 A 
ATOM     17  C   UNL     1       7.232   5.371  15.950  0.00  0.00    +0.000 A 
ATOM     18  C   UNL     1       6.167   5.297  16.874  0.00  0.00    +0.000 A 
ENDBRANCH   2  13
BRANCH   9  19
ATOM     19  S   UNL     1       0.132  10.306  19.664  0.00  0.00    +0.000 S 
ATOM     20  O   UNL     1       0.338  11.376  18.714  0.00  0.00    +0.000 OA
ATOM     21  O   UNL     1      -1.137   9.635  19.767  0.00  0.00    +0.000 OA
BRANCH  19  22
ATOM     22  N   UNL     1       0.548  10.913  21.221  0.00  0.00    +0.000 NA
ATOM     23  C   UNL     1       0.579   9.925  22.327  0.00  0.00    +0.000 C 
ATOM     24  C   UNL     1      -0.771  10.066  23.008  0.00  0.00    +0.000 C 
ATOM     25  C   UNL     1      -1.132  11.534  22.859  0.00  0.00    +0.000 C 
ATOM     26  C   UNL     1      -0.227  12.074  21.751  0.00  0.00    +0.000 C 
ENDBRANCH  19  22
ENDBRANCH   9  19
TORSDOF 3
ENDMDL
MODEL 7
REMARK VINA RESULT:      -7.9      1.482      2.122
REMARK  Name = 
REMARK  3 active torsions:
REMARK  status: ('A' for Active; 'I' for Inactive)
REMARK    1  A    between atoms: C_2  and  C_3
REMARK    2  A    between atoms: C_15  and  S_16
REMARK    3  A    between atoms: S_16  and  N_19
REMARK                            x       y       z     vdW  Elec       q    Type
REMARK                         _______ _______ _______ _____ _____    ______ ____
ROOT
ATOM      1  O   UNL     1       3.416   3.587  18.052  0.00  0.00    +0.000 OA
ATOM      2  C   UNL     1       3.721   4.792  17.929  0.00  0.00    +0.000 C 
ATOM      3  N   UNL     1       2.997   5.726  18.760  0.00  0.00    +0.000 N 
ATOM      4  C   UNL     1       2.347   4.913  19.841  0.00  0.00    +0.000 C 
ATOM      5  C   UNL     1       1.208   5.540  20.602  0.00  0.00    +0.000 C 
ATOM      6  C   UNL     1       1.785   6.789  21.181  0.00  0.00    +0.000 C 
ATOM      7  C   UNL     1       1.950   7.644  19.962  0.00  0.00    +0.000 A 
ATOM      8  C   UNL     1       1.177   8.812  20.010  0.00  0.00    +0.000 A 
ATOM      9  C   UNL     1       1.032   9.588  18.896  0.00  0.00    +0.000 A 
ATOM     10  C   UNL     1       1.842   9.306  17.785  0.00  0.00    +0.000 A 
ATOM     11  C   UNL     1       2.649   8.100  17.741  0.00  0.00    +0.000 A 
ATOM     12  C   UNL     1       2.631   7.169  18.792  0.00  0.00    +0.000 A 
ENDROOT
BRANCH   2  13
ATOM     13  C   UNL     1       4.932   4.886  17.048  0.00  0.00    +0.000 A 
ATOM     14  C   UNL     1       4.902   4.071  15.864  0.00  0.00    +0.000 A 
ATOM     15  C   UNL     1       5.946   4.009  14.933  0.00  0.00    +0.000 A 
ATOM     16  C   UNL     1       7.066   4.783  15.153  0.00  0.00    +0.000 A 
ATOM     17  C   UNL     1       7.113   5.613  16.281  0.00  0.00    +0.000 A 
ATOM     18  C   UNL     1       6.064   5.664  17.225  0.00  0.00    +0.000 A 
ENDBRANCH   2  13
BRANCH   9  19
ATOM     19  S   UNL     1      -0.309  10.764  18.979  0.00  0.00    +0.000 S 
ATOM     20  O   UNL     1      -1.168  10.492  17.849  0.00  0.00    +0.000 OA
ATOM     21  O   UNL     1      -0.824  10.772  20.323  0.00  0.00    +0.000 OA
BRANCH  19  22
ATOM     22  N   UNL     1       0.459  12.277  18.688  0.00  0.00    +0.000 NA
ATOM     23  C   UNL     1       1.505  12.684  19.657  0.00  0.00    +0.000 C 
ATOM     24  C   UNL     1       0.795  13.616  20.624  0.00  0.00    +0.000 C 
ATOM     25  C   UNL     1      -0.255  14.323  19.783  0.00  0.00    +0.000 C 
ATOM     26  C   UNL     1      -0.407  13.482  18.516  0.00  0.00    +0.000 C 
ENDBRANCH  19  22
ENDBRANCH   9  19
TORSDOF 3
ENDMDL
MODEL 8
REMARK VINA RESULT:      -7.8      1.165      1.617
REMARK  Name = 
REMARK  3 active torsions:
REMARK  status: ('A' for Active; 'I' for Inactive)
REMARK    1  A    between atoms: C_2  and  C_3
REMARK    2  A    between atoms: C_15  and  S_16
REMARK    3  A    between atoms: S_16  and  N_19
REMARK                            x       y       z     vdW  Elec       q    Type
REMARK                         _______ _______ _______ _____ _____    ______ ____
ROOT
ATOM      1  O   UNL     1       3.259   3.742  17.977  0.00  0.00    +0.000 OA
ATOM      2  C   UNL     1       3.574   4.947  17.882  0.00  0.00    +0.000 C 
ATOM      3  N   UNL     1       2.857   5.866  18.737  0.00  0.00    +0.000 N 
ATOM      4  C   UNL     1       2.202   5.031  19.799  0.00  0.00    +0.000 C 
ATOM      5  C   UNL     1       1.069   5.648  20.577  0.00  0.00    +0.000 C 
ATOM      6  C   UNL     1       1.656   6.878  21.185  0.00  0.00    +0.000 C 
ATOM      7  C   UNL     1       1.826   7.761  19.988  0.00  0.00    +0.000 A 
ATOM      8  C   UNL     1       1.062   8.933  20.065  0.00  0.00    +0.000 A 
ATOM      9  C   UNL     1       0.921   9.737  18.971  0.00  0.00    +0.000 A 
ATOM     10  C   UNL     1       1.728   9.477  17.852  0.00  0.00    +0.000 A 
ATOM     11  C   UNL     1       2.526   8.267  17.777  0.00  0.00    +0.000 A 
ATOM     12  C   UNL     1       2.502   7.310  18.805  0.00  0.00    +0.000 A 
ENDROOT
BRANCH   2  13
ATOM     13  C   UNL     1       4.784   5.053  17.003  0.00  0.00    +0.000 A 
ATOM     14  C   UNL     1       4.824   4.143  15.890  0.00  0.00    +0.000 A 
ATOM     15  C   UNL     1       5.880   4.079  14.973  0.00  0.00    +0.000 A 
ATOM     16  C   UNL     1       6.941   4.946  15.133  0.00  0.00    +0.000 A 
ATOM     17  C   UNL     1       6.916   5.868  16.188  0.00  0.00    +0.000 A 
ATOM     18  C   UNL     1       5.856   5.923  17.119  0.00  0.00    +0.000 A 
ENDBRANCH   2  13
BRANCH   9  19
ATOM     19  S   UNL     1      -0.411  10.921  19.085  0.00  0.00    +0.000 S 
ATOM     20  O   UNL     1      -0.703  11.081  20.491  0.00  0.00    +0.000 OA
ATOM     21  O   UNL     1      -0.084  12.053  18.258  0.00  0.00    +0.000 OA
BRANCH  19  22
ATOM     22  N   UNL     1      -1.747  10.102  18.372  0.00  0.00    +0.000 NA
ATOM     23  C   UNL     1      -1.632   9.784  16.928  0.00  0.00    +0.000 C 
ATOM     24  C   UNL     1      -2.381  10.903  16.226  0.00  0.00    +0.000 C 
ATOM     25  C   UNL     1      -3.502  11.281  17.179  0.00  0.00    +0.000 C 
ATOM     26  C   UNL     1      -3.105  10.700  18.537  0.00  0.00    +0.000 C 
ENDBRANCH  19  22
ENDBRANCH   9  19
TORSDOF 3
ENDMDL
MODEL 9
REMARK VINA RESULT:      -7.8      3.055      4.649
REMARK  Name = 
REMARK  3 active torsions:
REMARK  status: ('A' for Active; 'I' for Inactive)
REMARK    1  A    between atoms: C_2  and  C_3
REMARK    2  A    between atoms: C_15  and  S_16
REMARK    3  A    between atoms: S_16  and  N_19
REMARK                            x       y       z     vdW  Elec       q    Type
REMARK                         _______ _______ _______ _____ _____    ______ ____
ROOT
ATOM      1  O   UNL     1       3.891   6.445  18.602  0.00  0.00    +0.000 OA
ATOM      2  C   UNL     1       2.895   6.488  19.354  0.00  0.00    +0.000 C 
ATOM      3  N   UNL     1       2.063   7.666  19.249  0.00  0.00    +0.000 N 
ATOM      4  C   UNL     1       2.432   8.328  17.953  0.00  0.00    +0.000 C 
ATOM      5  C   UNL     1       2.039   9.770  17.766  0.00  0.00    +0.000 C 
ATOM      6  C   UNL     1       0.557   9.783  17.942  0.00  0.00    +0.000 C 
ATOM      7  C   UNL     1       0.421   9.535  19.413  0.00  0.00    +0.000 A 
ATOM      8  C   UNL     1      -0.191  10.599  20.089  0.00  0.00    +0.000 A 
ATOM      9  C   UNL     1      -0.191  10.640  21.453  0.00  0.00    +0.000 A 
ATOM     10  C   UNL     1       0.237   9.498  22.148  0.00  0.00    +0.000 A 
ATOM     11  C   UNL     1       0.863   8.393  21.446  0.00  0.00    +0.000 A 
ATOM     12  C   UNL     1       1.080   8.436  20.058  0.00  0.00    +0.000 A 
ENDROOT
BRANCH   2  13
ATOM     13  C   UNL     1       2.758   5.160  20.037  0.00  0.00    +0.000 A 
ATOM     14  C   UNL     1       3.715   4.160  19.646  0.00  0.00    +0.000 A 
ATOM     15  C   UNL     1       3.734   2.857  20.157  0.00  0.00    +0.000 A 
ATOM     16  C   UNL     1       2.790   2.509  21.101  0.00  0.00    +0.000 A 
ATOM     17  C   UNL     1       1.864   3.472  21.529  0.00  0.00    +0.000 A 
ATOM     18  C   UNL     1       1.840   4.782  21.002  0.00  0.00    +0.000 A 
ENDBRANCH   2  13
BRANCH   9  19
ATOM     19  S   UNL     1      -0.597  12.234  22.149  0.00  0.00    +0.000 S 
ATOM     20  O   UNL     1      -1.154  11.982  23.459  0.00  0.00    +0.000 OA
ATOM     21  O   UNL     1       0.533  13.107  21.975  0.00  0.00    +0.000 OA
BRANCH  19  22
ATOM     22  N   UNL     1      -1.876  12.802  21.148  0.00  0.00    +0.000 NA
ATOM     23  C   UNL     1      -1.728  14.174  20.604  0.00  0.00    +0.000 C 
ATOM     24  C   UNL     1      -2.533  15.051  21.547  0.00  0.00    +0.000 C 
ATOM     25  C   UNL     1      -3.684  14.174  22.010  0.00  0.00    +0.000 C 
ATOM     26  C   UNL     1      -3.268  12.739  21.684  0.00  0.00    +0.000 C 
ENDBRANCH  19  22
ENDBRANCH   9  19
TORSDOF 3
ENDMDL
