MODEL 1
REMARK VINA RESULT:      -6.0      0.000      0.000
REMARK  Name = 
REMARK  7 active torsions:
REMARK  status: ('A' for Active; 'I' for Inactive)
REMARK    1  A    between atoms: C_1  and  O_2
REMARK    2  A    between atoms: O_2  and  C_3
REMARK    3  A    between atoms: C_5  and  C_6
REMARK    4  A    between atoms: C_6  and  O_7
REMARK    5  A    between atoms: C_6  and  C_8
REMARK    6  A    between atoms: C_8  and  O_10
REMARK    7  A    between atoms: C_13  and  O_14
REMARK                            x       y       z     vdW  Elec       q    Type
REMARK                         _______ _______ _______ _____ _____    ______ ____
ROOT
ATOM      1  C   UNL     1       6.914   5.712  16.403  0.00  0.00    +0.000 A 
ATOM      2  C   UNL     1       6.047   5.240  17.407  0.00  0.00    +0.000 A 
ATOM      3  C   UNL     1       5.224   4.120  17.206  0.00  0.00    +0.000 A 
ATOM      4  C   UNL     1       5.263   3.493  15.952  0.00  0.00    +0.000 A 
ATOM      5  C   UNL     1       6.116   3.951  14.946  0.00  0.00    +0.000 A 
ATOM      6  C   UNL     1       6.940   5.057  15.167  0.00  0.00    +0.000 A 
ENDROOT
BRANCH   1   8
ATOM      7  C   UNL     1       7.831   7.014  18.194  0.00  0.00    +0.000 C 
ATOM      8  O   UNL     1       7.643   6.801  16.801  0.00  0.00    +0.000 OA
ENDBRANCH   1   8
BRANCH   6   9
ATOM      9  O   UNL     1       7.749   5.475  14.149  0.00  0.00    +0.000 OA
ATOM     10  H   UNL     1       7.489   6.371  13.879  0.00  0.00    +0.000 HD
ENDBRANCH   6   9
BRANCH   3  11
ATOM     11  C   UNL     1       4.273   3.587  18.259  0.00  0.00    +0.000 C 
BRANCH  11  12
ATOM     12  O   UNL     1       5.000   2.796  19.219  0.00  0.00    +0.000 OA
ATOM     13  H   UNL     1       5.512   2.144  18.700  0.00  0.00    +0.000 HD
ENDBRANCH  11  12
BRANCH  11  14
ATOM     14  C   UNL     1       3.094   2.740  17.782  0.00  0.00    +0.000 C 
ATOM     15  O   UNL     1       2.099   3.128  17.189  0.00  0.00    +0.000 OA
BRANCH  14  16
ATOM     16  O   UNL     1       3.246   1.433  18.151  0.00  0.00    +0.000 OA
ATOM     17  H   UNL     1       2.914   1.334  19.076  0.00  0.00    +0.000 HD
ENDBRANCH  14  16
ENDBRANCH  11  14
ENDBRANCH   3  11
TORSDOF 6
ENDMDL
MODEL 2
REMARK VINA RESULT:      -6.0      1.191      2.488
REMARK  Name = 
REMARK  7 active torsions:
REMARK  status: ('A' for Active; 'I' for Inactive)
REMARK    1  A    between atoms: C_1  and  O_2
REMARK    2  A    between atoms: O_2  and  C_3
REMARK    3  A    between atoms: C_5  and  C_6
REMARK    4  A    between atoms: C_6  and  O_7
REMARK    5  A    between atoms: C_6  and  C_8
REMARK    6  A    between atoms: C_8  and  O_10
REMARK    7  A    between atoms: C_13  and  O_14
REMARK                            x       y       z     vdW  Elec       q    Type
REMARK                         _______ _______ _______ _____ _____    ______ ____
ROOT
ATOM      1  C   UNL     1       5.812   4.941  16.200  0.00  0.00    +0.000 A 
ATOM      2  C   UNL     1       5.001   4.035  16.909  0.00  0.00    +0.000 A 
ATOM      3  C   UNL     1       5.056   3.932  18.308  0.00  0.00    +0.000 A 
ATOM      4  C   UNL     1       5.976   4.743  18.990  0.00  0.00    +0.000 A 
ATOM      5  C   UNL     1       6.789   5.644  18.300  0.00  0.00    +0.000 A 
ATOM      6  C   UNL     1       6.710   5.745  16.910  0.00  0.00    +0.000 A 
ENDROOT
BRANCH   1   8
ATOM      7  C   UNL     1       6.387   4.020  14.064  0.00  0.00    +0.000 C 
ATOM      8  O   UNL     1       5.595   4.901  14.848  0.00  0.00    +0.000 OA
ENDBRANCH   1   8
BRANCH   6   9
ATOM      9  O   UNL     1       7.533   6.633  16.278  0.00  0.00    +0.000 OA
ATOM     10  H   UNL     1       8.419   6.243  16.187  0.00  0.00    +0.000 HD
ENDBRANCH   6   9
BRANCH   3  11
ATOM     11  C   UNL     1       4.205   2.965  19.106  0.00  0.00    +0.000 C 
BRANCH  11  12
ATOM     12  O   UNL     1       5.034   2.225  20.023  0.00  0.00    +0.000 OA
ATOM     13  H   UNL     1       5.098   2.771  20.831  0.00  0.00    +0.000 HD
ENDBRANCH  11  12
BRANCH  11  14
ATOM     14  C   UNL     1       3.377   1.944  18.328  0.00  0.00    +0.000 C 
ATOM     15  O   UNL     1       2.281   2.117  17.819  0.00  0.00    +0.000 OA
BRANCH  14  16
ATOM     16  O   UNL     1       3.999   0.726  18.297  0.00  0.00    +0.000 OA
ATOM     17  H   UNL     1       4.888   0.826  18.713  0.00  0.00    +0.000 HD
ENDBRANCH  14  16
ENDBRANCH  11  14
ENDBRANCH   3  11
TORSDOF 6
ENDMDL
MODEL 3
REMARK VINA RESULT:      -5.8      1.165      1.501
REMARK  Name = 
REMARK  7 active torsions:
REMARK  status: ('A' for Active; 'I' for Inactive)
REMARK    1  A    between atoms: C_1  and  O_2
REMARK    2  A    between atoms: O_2  and  C_3
REMARK    3  A    between atoms: C_5  and  C_6
REMARK    4  A    between atoms: C_6  and  O_7
REMARK    5  A    between atoms: C_6  and  C_8
REMARK    6  A    between atoms: C_8  and  O_10
REMARK    7  A    between atoms: C_13  and  O_14
REMARK                            x       y       z     vdW  Elec       q    Type
REMARK                         _______ _______ _______ _____ _____    ______ ____
ROOT
ATOM      1  C   UNL     1       6.835   5.960  16.567  0.00  0.00    +0.000 A 
ATOM      2  C   UNL     1       5.933   5.777  17.633  0.00  0.00    +0.000 A 
ATOM      3  C   UNL     1       4.971   4.755  17.620  0.00  0.00    +0.000 A 
ATOM      4  C   UNL     1       4.906   3.928  16.488  0.00  0.00    +0.000 A 
ATOM      5  C   UNL     1       5.791   4.100  15.421  0.00  0.00    +0.000 A 
ATOM      6  C   UNL     1       6.753   5.112  15.458  0.00  0.00    +0.000 A 
ENDROOT
BRANCH   1   8
ATOM      7  C   UNL     1       7.913   7.437  18.116  0.00  0.00    +0.000 C 
ATOM      8  O   UNL     1       7.704   6.997  16.781  0.00  0.00    +0.000 OA
ENDBRANCH   1   8
BRANCH   6   9
ATOM      9  O   UNL     1       7.590   5.247  14.387  0.00  0.00    +0.000 OA
ATOM     10  H   UNL     1       7.914   6.162  14.346  0.00  0.00    +0.000 HD
ENDBRANCH   6   9
BRANCH   3  11
ATOM     11  C   UNL     1       3.979   4.530  18.744  0.00  0.00    +0.000 C 
BRANCH  11  12
ATOM     12  O   UNL     1       4.184   5.510  19.780  0.00  0.00    +0.000 OA
ATOM     13  H   UNL     1       4.570   6.292  19.339  0.00  0.00    +0.000 HD
ENDBRANCH  11  12
BRANCH  11  14
ATOM     14  C   UNL     1       3.975   3.159  19.419  0.00  0.00    +0.000 C 
ATOM     15  O   UNL     1       3.001   2.491  19.727  0.00  0.00    +0.000 OA
BRANCH  14  16
ATOM     16  O   UNL     1       5.247   2.750  19.709  0.00  0.00    +0.000 OA
ATOM     17  H   UNL     1       5.335   1.805  19.435  0.00  0.00    +0.000 HD
ENDBRANCH  14  16
ENDBRANCH  11  14
ENDBRANCH   3  11
TORSDOF 6
ENDMDL
MODEL 4
REMARK VINA RESULT:      -5.8      2.048      5.418
REMARK  Name = 
REMARK  7 active torsions:
REMARK  status: ('A' for Active; 'I' for Inactive)
REMARK    1  A    between atoms: C_1  and  O_2
REMARK    2  A    between atoms: O_2  and  C_3
REMARK    3  A    between atoms: C_5  and  C_6
REMARK    4  A    between atoms: C_6  and  O_7
REMARK    5  A    between atoms: C_6  and  C_8
REMARK    6  A    between atoms: C_8  and  O_10
REMARK    7  A    between atoms: C_13  and  O_14
REMARK                            x       y       z     vdW  Elec       q    Type
REMARK                         _______ _______ _______ _____ _____    ______ ____
ROOT
ATOM      1  C   UNL     1       2.469   4.096  18.148  0.00  0.00    +0.000 A 
ATOM      2  C   UNL     1       3.438   3.934  17.139  0.00  0.00    +0.000 A 
ATOM      3  C   UNL     1       4.695   4.556  17.214  0.00  0.00    +0.000 A 
ATOM      4  C   UNL     1       4.954   5.381  18.319  0.00  0.00    +0.000 A 
ATOM      5  C   UNL     1       4.003   5.553  19.326  0.00  0.00    +0.000 A 
ATOM      6  C   UNL     1       2.763   4.915  19.244  0.00  0.00    +0.000 A 
ENDROOT
BRANCH   1   8
ATOM      7  C   UNL     1       1.050   2.241  18.683  0.00  0.00    +0.000 C 
ATOM      8  O   UNL     1       1.320   3.394  17.898  0.00  0.00    +0.000 OA
ENDBRANCH   1   8
BRANCH   6   9
ATOM      9  O   UNL     1       1.861   5.122  20.248  0.00  0.00    +0.000 OA
ATOM     10  H   UNL     1       0.990   5.316  19.863  0.00  0.00    +0.000 HD
ENDBRANCH   6   9
BRANCH   3  11
ATOM     11  C   UNL     1       5.760   4.412  16.146  0.00  0.00    +0.000 C 
BRANCH  11  12
ATOM     12  O   UNL     1       5.970   3.017  15.850  0.00  0.00    +0.000 OA
ATOM     13  H   UNL     1       5.653   2.524  16.632  0.00  0.00    +0.000 HD
ENDBRANCH  11  12
BRANCH  11  14
ATOM     14  C   UNL     1       7.132   5.021  16.428  0.00  0.00    +0.000 C 
ATOM     15  O   UNL     1       7.522   6.136  16.117  0.00  0.00    +0.000 OA
BRANCH  14  16
ATOM     16  O   UNL     1       7.948   4.124  17.059  0.00  0.00    +0.000 OA
ATOM     17  H   UNL     1       7.385   3.536  17.616  0.00  0.00    +0.000 HD
ENDBRANCH  14  16
ENDBRANCH  11  14
ENDBRANCH   3  11
TORSDOF 6
ENDMDL
MODEL 5
REMARK VINA RESULT:      -5.8      1.878      5.214
REMARK  Name = 
REMARK  7 active torsions:
REMARK  status: ('A' for Active; 'I' for Inactive)
REMARK    1  A    between atoms: C_1  and  O_2
REMARK    2  A    between atoms: O_2  and  C_3
REMARK    3  A    between atoms: C_5  and  C_6
REMARK    4  A    between atoms: C_6  and  O_7
REMARK    5  A    between atoms: C_6  and  C_8
REMARK    6  A    between atoms: C_8  and  O_10
REMARK    7  A    between atoms: C_13  and  O_14
REMARK                            x       y       z     vdW  Elec       q    Type
REMARK                         _______ _______ _______ _____ _____    ______ ____
ROOT
ATOM      1  C   UNL     1       3.460   2.921  19.484  0.00  0.00    +0.000 A 
ATOM      2  C   UNL     1       4.541   3.798  19.274  0.00  0.00    +0.000 A 
ATOM      3  C   UNL     1       4.830   4.325  18.005  0.00  0.00    +0.000 A 
ATOM      4  C   UNL     1       4.022   3.926  16.929  0.00  0.00    +0.000 A 
ATOM      5  C   UNL     1       2.948   3.055  17.121  0.00  0.00    +0.000 A 
ATOM      6  C   UNL     1       2.666   2.552  18.393  0.00  0.00    +0.000 A 
ENDROOT
BRANCH   1   8
ATOM      7  C   UNL     1       2.310   3.128  21.576  0.00  0.00    +0.000 C 
ATOM      8  O   UNL     1       3.337   2.535  20.792  0.00  0.00    +0.000 OA
ENDBRANCH   1   8
BRANCH   6   9
ATOM      9  O   UNL     1       1.612   1.694  18.529  0.00  0.00    +0.000 OA
ATOM     10  H   UNL     1       1.941   0.780  18.556  0.00  0.00    +0.000 HD
ENDBRANCH   6   9
BRANCH   3  11
ATOM     11  C   UNL     1       5.988   5.266  17.738  0.00  0.00    +0.000 C 
BRANCH  11  12
ATOM     12  O   UNL     1       5.537   6.385  16.950  0.00  0.00    +0.000 OA
ATOM     13  H   UNL     1       6.334   6.749  16.516  0.00  0.00    +0.000 HD
ENDBRANCH  11  12
BRANCH  11  14
ATOM     14  C   UNL     1       7.218   4.691  17.037  0.00  0.00    +0.000 C 
ATOM     15  O   UNL     1       7.474   4.733  15.844  0.00  0.00    +0.000 OA
BRANCH  14  16
ATOM     16  O   UNL     1       8.031   4.042  17.924  0.00  0.00    +0.000 OA
ATOM     17  H   UNL     1       8.048   4.563  18.762  0.00  0.00    +0.000 HD
ENDBRANCH  14  16
ENDBRANCH  11  14
ENDBRANCH   3  11
TORSDOF 6
ENDMDL
MODEL 6
REMARK VINA RESULT:      -5.7      1.387      1.498
REMARK  Name = 
REMARK  7 active torsions:
REMARK  status: ('A' for Active; 'I' for Inactive)
REMARK    1  A    between atoms: C_1  and  O_2
REMARK    2  A    between atoms: O_2  and  C_3
REMARK    3  A    between atoms: C_5  and  C_6
REMARK    4  A    between atoms: C_6  and  O_7
REMARK    5  A    between atoms: C_6  and  C_8
REMARK    6  A    between atoms: C_8  and  O_10
REMARK    7  A    between atoms: C_13  and  O_14
REMARK                            x       y       z     vdW  Elec       q    Type
REMARK                         _______ _______ _______ _____ _____    ______ ____
ROOT
ATOM      1  C   UNL     1       6.799   4.541  17.713  0.00  0.00    +0.000 A 
ATOM      2  C   UNL     1       5.685   4.243  18.521  0.00  0.00    +0.000 A 
ATOM      3  C   UNL     1       4.431   3.938  17.967  0.00  0.00    +0.000 A 
ATOM      4  C   UNL     1       4.306   3.968  16.570  0.00  0.00    +0.000 A 
ATOM      5  C   UNL     1       5.401   4.264  15.756  0.00  0.00    +0.000 A 
ATOM      6  C   UNL     1       6.645   4.550  16.323  0.00  0.00    +0.000 A 
ENDROOT
BRANCH   1   8
ATOM      7  C   UNL     1       7.919   5.888  19.348  0.00  0.00    +0.000 C 
ATOM      8  O   UNL     1       7.931   4.792  18.443  0.00  0.00    +0.000 OA
ENDBRANCH   1   8
BRANCH   6   9
ATOM      9  O   UNL     1       7.684   4.845  15.487  0.00  0.00    +0.000 OA
ATOM     10  H   UNL     1       7.348   5.329  14.714  0.00  0.00    +0.000 HD
ENDBRANCH   6   9
BRANCH   3  11
ATOM     11  C   UNL     1       3.207   3.619  18.803  0.00  0.00    +0.000 C 
BRANCH  11  12
ATOM     12  O   UNL     1       3.550   2.668  19.829  0.00  0.00    +0.000 OA
ATOM     13  H   UNL     1       4.136   3.141  20.452  0.00  0.00    +0.000 HD
ENDBRANCH  11  12
BRANCH  11  14
ATOM     14  C   UNL     1       1.979   3.072  18.077  0.00  0.00    +0.000 C 
ATOM     15  O   UNL     1       1.093   3.716  17.538  0.00  0.00    +0.000 OA
BRANCH  14  16
ATOM     16  O   UNL     1       1.940   1.706  18.137  0.00  0.00    +0.000 OA
ATOM     17  H   UNL     1       2.794   1.359  17.785  0.00  0.00    +0.000 HD
ENDBRANCH  14  16
ENDBRANCH  11  14
ENDBRANCH   3  11
TORSDOF 6
ENDMDL
MODEL 7
REMARK VINA RESULT:      -5.7      2.211      5.093
REMARK  Name = 
REMARK  7 active torsions:
REMARK  status: ('A' for Active; 'I' for Inactive)
REMARK    1  A    between atoms: C_1  and  O_2
REMARK    2  A    between atoms: O_2  and  C_3
REMARK    3  A    between atoms: C_5  and  C_6
REMARK    4  A    between atoms: C_6  and  O_7
REMARK    5  A    between atoms: C_6  and  C_8
REMARK    6  A    between atoms: C_8  and  O_10
REMARK    7  A    between atoms: C_13  and  O_14
REMARK                            x       y       z     vdW  Elec       q    Type
REMARK                         _______ _______ _______ _____ _____    ______ ____
ROOT
ATOM      1  C   UNL     1       3.624   4.372  19.189  0.00  0.00    +0.000 A 
ATOM      2  C   UNL     1       4.422   3.884  18.136  0.00  0.00    +0.000 A 
ATOM      3  C   UNL     1       4.868   4.719  17.099  0.00  0.00    +0.000 A 
ATOM      4  C   UNL     1       4.468   6.064  17.120  0.00  0.00    +0.000 A 
ATOM      5  C   UNL     1       3.675   6.561  18.156  0.00  0.00    +0.000 A 
ATOM      6  C   UNL     1       3.253   5.721  19.188  0.00  0.00    +0.000 A 
ENDROOT
BRANCH   1   8
ATOM      7  C   UNL     1       2.235   2.524  19.817  0.00  0.00    +0.000 C 
ATOM      8  O   UNL     1       3.310   3.406  20.108  0.00  0.00    +0.000 OA
ENDBRANCH   1   8
BRANCH   6   9
ATOM      9  O   UNL     1       2.470   6.251  20.174  0.00  0.00    +0.000 OA
ATOM     10  H   UNL     1       2.676   7.195  20.277  0.00  0.00    +0.000 HD
ENDBRANCH   6   9
BRANCH   3  11
ATOM     11  C   UNL     1       5.721   4.230  15.946  0.00  0.00    +0.000 C 
BRANCH  11  12
ATOM     12  O   UNL     1       5.770   2.790  15.950  0.00  0.00    +0.000 OA
ATOM     13  H   UNL     1       5.702   2.515  15.014  0.00  0.00    +0.000 HD
ENDBRANCH  11  12
BRANCH  11  14
ATOM     14  C   UNL     1       7.165   4.727  15.874  0.00  0.00    +0.000 C 
ATOM     15  O   UNL     1       7.644   5.482  15.044  0.00  0.00    +0.000 OA
BRANCH  14  16
ATOM     16  O   UNL     1       7.927   4.168  16.862  0.00  0.00    +0.000 OA
ATOM     17  H   UNL     1       7.859   4.742  17.663  0.00  0.00    +0.000 HD
ENDBRANCH  14  16
ENDBRANCH  11  14
ENDBRANCH   3  11
TORSDOF 6
ENDMDL
MODEL 8
REMARK VINA RESULT:      -5.7      1.827      5.006
REMARK  Name = 
REMARK  7 active torsions:
REMARK  status: ('A' for Active; 'I' for Inactive)
REMARK    1  A    between atoms: C_1  and  O_2
REMARK    2  A    between atoms: O_2  and  C_3
REMARK    3  A    between atoms: C_5  and  C_6
REMARK    4  A    between atoms: C_6  and  O_7
REMARK    5  A    between atoms: C_6  and  C_8
REMARK    6  A    between atoms: C_8  and  O_10
REMARK    7  A    between atoms: C_13  and  O_14
REMARK                            x       y       z     vdW  Elec       q    Type
REMARK                         _______ _______ _______ _____ _____    ______ ____
ROOT
ATOM      1  C   UNL     1       3.329   4.611  17.798  0.00  0.00    +0.000 A 
ATOM      2  C   UNL     1       4.410   4.007  17.128  0.00  0.00    +0.000 A 
ATOM      3  C   UNL     1       5.456   4.765  16.578  0.00  0.00    +0.000 A 
ATOM      4  C   UNL     1       5.382   6.162  16.687  0.00  0.00    +0.000 A 
ATOM      5  C   UNL     1       4.315   6.776  17.347  0.00  0.00    +0.000 A 
ATOM      6  C   UNL     1       3.291   6.006  17.901  0.00  0.00    +0.000 A 
ENDROOT
BRANCH   1   8
ATOM      7  C   UNL     1       2.442   2.386  17.733  0.00  0.00    +0.000 C 
ATOM      8  O   UNL     1       2.426   3.700  18.276  0.00  0.00    +0.000 OA
ENDBRANCH   1   8
BRANCH   6   9
ATOM      9  O   UNL     1       2.263   6.651  18.527  0.00  0.00    +0.000 OA
ATOM     10  H   UNL     1       1.505   6.049  18.607  0.00  0.00    +0.000 HD
ENDBRANCH   6   9
BRANCH   3  11
ATOM     11  C   UNL     1       6.632   4.153  15.844  0.00  0.00    +0.000 C 
BRANCH  11  12
ATOM     12  O   UNL     1       7.861   4.509  16.506  0.00  0.00    +0.000 OA
ATOM     13  H   UNL     1       8.375   3.682  16.585  0.00  0.00    +0.000 HD
ENDBRANCH  11  12
BRANCH  11  14
ATOM     14  C   UNL     1       6.802   4.501  14.366  0.00  0.00    +0.000 C 
ATOM     15  O   UNL     1       6.227   3.992  13.417  0.00  0.00    +0.000 OA
BRANCH  14  16
ATOM     16  O   UNL     1       7.756   5.465  14.194  0.00  0.00    +0.000 OA
ATOM     17  H   UNL     1       7.434   6.096  13.507  0.00  0.00    +0.000 HD
ENDBRANCH  14  16
ENDBRANCH  11  14
ENDBRANCH   3  11
TORSDOF 6
ENDMDL
MODEL 9
REMARK VINA RESULT:      -5.7      1.135      1.541
REMARK  Name = 
REMARK  7 active torsions:
REMARK  status: ('A' for Active; 'I' for Inactive)
REMARK    1  A    between atoms: C_1  and  O_2
REMARK    2  A    between atoms: O_2  and  C_3
REMARK    3  A    between atoms: C_5  and  C_6
REMARK    4  A    between atoms: C_6  and  O_7
REMARK    5  A    between atoms: C_6  and  C_8
REMARK    6  A    between atoms: C_8  and  O_10
REMARK    7  A    between atoms: C_13  and  O_14
REMARK                            x       y       z     vdW  Elec       q    Type
REMARK                         _______ _______ _______ _____ _____    ______ ____
ROOT
ATOM      1  C   UNL     1       6.919   5.473  17.003  0.00  0.00    +0.000 A 
ATOM      2  C   UNL     1       6.018   4.992  17.972  0.00  0.00    +0.000 A 
ATOM      3  C   UNL     1       4.960   4.131  17.637  0.00  0.00    +0.000 A 
ATOM      4  C   UNL     1       4.801   3.782  16.287  0.00  0.00    +0.000 A 
ATOM      5  C   UNL     1       5.685   4.252  15.314  0.00  0.00    +0.000 A 
ATOM      6  C   UNL     1       6.741   5.095  15.667  0.00  0.00    +0.000 A 
ENDROOT
BRANCH   1   8
ATOM      7  C   UNL     1       7.637   7.680  17.597  0.00  0.00    +0.000 C 
ATOM      8  O   UNL     1       7.887   6.282  17.534  0.00  0.00    +0.000 OA
ENDBRANCH   1   8
BRANCH   6   9
ATOM      9  O   UNL     1       7.572   5.539  14.679  0.00  0.00    +0.000 OA
ATOM     10  H   UNL     1       8.248   4.864  14.499  0.00  0.00    +0.000 HD
ENDBRANCH   6   9
BRANCH   3  11
ATOM     11  C   UNL     1       3.967   3.599  18.650  0.00  0.00    +0.000 C 
BRANCH  11  12
ATOM     12  O   UNL     1       3.755   4.576  19.687  0.00  0.00    +0.000 OA
ATOM     13  H   UNL     1       2.878   4.971  19.512  0.00  0.00    +0.000 HD
ENDBRANCH  11  12
BRANCH  11  14
ATOM     14  C   UNL     1       4.301   2.278  19.341  0.00  0.00    +0.000 C 
ATOM     15  O   UNL     1       4.891   2.127  20.399  0.00  0.00    +0.000 OA
BRANCH  14  16
ATOM     16  O   UNL     1       3.893   1.212  18.588  0.00  0.00    +0.000 OA
ATOM     17  H   UNL     1       3.210   0.717  19.101  0.00  0.00    +0.000 HD
ENDBRANCH  14  16
ENDBRANCH  11  14
ENDBRANCH   3  11
TORSDOF 6
ENDMDL
