MODEL 1
REMARK VINA RESULT:      -7.5      0.000      0.000
REMARK  Name = 
REMARK  9 active torsions:
REMARK  status: ('A' for Active; 'I' for Inactive)
REMARK    1  A    between atoms: C_1  and  C_2
REMARK    2  A    between atoms: C_9  and  O_10
REMARK    3  A    between atoms: C_11  and  N_12
REMARK    4  A    between atoms: N_12  and  S_13
REMARK    5  A    between atoms: S_13  and  C_16
REMARK    6  A    between atoms: C_19  and  C_20
REMARK    7  A    between atoms: C_20  and  C_21
REMARK    8  A    between atoms: C_20  and  C_22
REMARK    9  A    between atoms: C_20  and  C_23
REMARK                            x       y       z     vdW  Elec       q    Type
REMARK                         _______ _______ _______ _____ _____    ______ ____
ROOT
ATOM      1  N   UNL     1       0.749  10.365  20.067  0.00  0.00    +0.000 N 
ATOM      2  H   UNL     1       1.448  10.202  19.337  0.00  0.00    +0.000 HD
ENDROOT
BRANCH   1  12
ATOM      3  C   UNL     1      -1.121  12.261  21.562  0.00  0.00    +0.000 C 
ATOM      4  C   UNL     1      -1.504  11.646  20.239  0.00  0.00    +0.000 A 
ATOM      5  N   UNL     1      -2.636  12.026  19.708  0.00  0.00    +0.000 NA
ATOM      6  C   UNL     1      -2.925  11.558  18.457  0.00  0.00    +0.000 A 
ATOM      7  N   UNL     1      -3.972  11.772  17.692  0.00  0.00    +0.000 NA
ATOM      8  C   UNL     1      -3.687  11.088  16.549  0.00  0.00    +0.000 A 
ATOM      9  N   UNL     1      -2.514  10.457  16.526  0.00  0.00    +0.000 NA
ATOM     10  N   UNL     1      -2.023  10.759  17.754  0.00  0.00    +0.000 N 
ATOM     11  C   UNL     1      -0.805  10.366  18.301  0.00  0.00    +0.000 A 
ATOM     12  C   UNL     1      -0.535  10.698  19.572  0.00  0.00    +0.000 A 
BRANCH  11  13
ATOM     13  O   UNL     1       0.083   9.636  17.522  0.00  0.00    +0.000 OA
ATOM     14  H   UNL     1       0.227   8.790  18.004  0.00  0.00    +0.000 HD
ENDBRANCH  11  13
ENDBRANCH   1  12
BRANCH   1  15
ATOM     15  S   UNL     1       0.859   9.036  21.134  0.00  0.00    +0.000 S 
ATOM     16  O   UNL     1       1.748   9.462  22.189  0.00  0.00    +0.000 OA
ATOM     17  O   UNL     1      -0.494   8.600  21.413  0.00  0.00    +0.000 OA
BRANCH  15  18
ATOM     18  C   UNL     1       1.686   7.711  20.269  0.00  0.00    +0.000 A 
ATOM     19  C   UNL     1       1.629   6.409  20.766  0.00  0.00    +0.000 A 
ATOM     20  C   UNL     1       2.252   5.362  20.071  0.00  0.00    +0.000 A 
ATOM     21  C   UNL     1       2.892   5.575  18.838  0.00  0.00    +0.000 A 
ATOM     22  C   UNL     1       2.877   6.890  18.329  0.00  0.00    +0.000 A 
ATOM     23  C   UNL     1       2.287   7.949  19.034  0.00  0.00    +0.000 A 
BRANCH  21  24
ATOM     24  C   UNL     1       3.555   4.434  18.035  0.00  0.00    +0.000 C 
ATOM     25  C   UNL     1       4.489   4.931  16.907  0.00  0.00    +0.000 C 
ATOM     26  C   UNL     1       4.406   3.557  18.982  0.00  0.00    +0.000 C 
ATOM     27  C   UNL     1       2.481   3.545  17.369  0.00  0.00    +0.000 C 
ENDBRANCH  21  24
ENDBRANCH  15  18
ENDBRANCH   1  15
TORSDOF 5
ENDMDL
MODEL 2
REMARK VINA RESULT:      -7.3      0.352      1.347
REMARK  Name = 
REMARK  9 active torsions:
REMARK  status: ('A' for Active; 'I' for Inactive)
REMARK    1  A    between atoms: C_1  and  C_2
REMARK    2  A    between atoms: C_9  and  O_10
REMARK    3  A    between atoms: C_11  and  N_12
REMARK    4  A    between atoms: N_12  and  S_13
REMARK    5  A    between atoms: S_13  and  C_16
REMARK    6  A    between atoms: C_19  and  C_20
REMARK    7  A    between atoms: C_20  and  C_21
REMARK    8  A    between atoms: C_20  and  C_22
REMARK    9  A    between atoms: C_20  and  C_23
REMARK                            x       y       z     vdW  Elec       q    Type
REMARK                         _______ _______ _______ _____ _____    ______ ____
ROOT
ATOM      1  N   UNL     1       0.715  10.393  20.176  0.00  0.00    +0.000 N 
ATOM      2  H   UNL     1       1.342  10.233  19.383  0.00  0.00    +0.000 HD
ENDROOT
BRANCH   1  12
ATOM      3  C   UNL     1      -0.954  12.271  21.911  0.00  0.00    +0.000 C 
ATOM      4  C   UNL     1      -1.466  11.738  20.596  0.00  0.00    +0.000 A 
ATOM      5  N   UNL     1      -2.623  12.183  20.179  0.00  0.00    +0.000 NA
ATOM      6  C   UNL     1      -3.029  11.789  18.936  0.00  0.00    +0.000 A 
ATOM      7  N   UNL     1      -4.127  12.077  18.272  0.00  0.00    +0.000 NA
ATOM      8  C   UNL     1      -3.961  11.443  17.078  0.00  0.00    +0.000 A 
ATOM      9  N   UNL     1      -2.818  10.775  16.927  0.00  0.00    +0.000 NA
ATOM     10  N   UNL     1      -2.218  10.997  18.123  0.00  0.00    +0.000 N 
ATOM     11  C   UNL     1      -0.976  10.536  18.548  0.00  0.00    +0.000 A 
ATOM     12  C   UNL     1      -0.591  10.793  19.806  0.00  0.00    +0.000 A 
BRANCH  11  13
ATOM     13  O   UNL     1      -0.182   9.818  17.663  0.00  0.00    +0.000 OA
ATOM     14  H   UNL     1       0.354   9.208  18.221  0.00  0.00    +0.000 HD
ENDBRANCH  11  13
ENDBRANCH   1  12
BRANCH   1  15
ATOM     15  S   UNL     1       0.860   9.018  21.180  0.00  0.00    +0.000 S 
ATOM     16  O   UNL     1       1.801   9.392  22.210  0.00  0.00    +0.000 OA
ATOM     17  O   UNL     1      -0.483   8.582  21.502  0.00  0.00    +0.000 OA
BRANCH  15  18
ATOM     18  C   UNL     1       1.634   7.725  20.223  0.00  0.00    +0.000 A 
ATOM     19  C   UNL     1       2.241   8.025  19.004  0.00  0.00    +0.000 A 
ATOM     20  C   UNL     1       2.877   7.016  18.265  0.00  0.00    +0.000 A 
ATOM     21  C   UNL     1       2.976   5.701  18.751  0.00  0.00    +0.000 A 
ATOM     22  C   UNL     1       2.410   5.442  20.017  0.00  0.00    +0.000 A 
ATOM     23  C   UNL     1       1.742   6.437  20.745  0.00  0.00    +0.000 A 
BRANCH  21  24
ATOM     24  C   UNL     1       3.701   4.579  17.976  0.00  0.00    +0.000 C 
ATOM     25  C   UNL     1       2.742   3.559  17.320  0.00  0.00    +0.000 C 
ATOM     26  C   UNL     1       4.557   5.196  16.846  0.00  0.00    +0.000 C 
ATOM     27  C   UNL     1       4.629   3.780  18.919  0.00  0.00    +0.000 C 
ENDBRANCH  21  24
ENDBRANCH  15  18
ENDBRANCH   1  15
TORSDOF 5
ENDMDL
MODEL 3
REMARK VINA RESULT:      -7.3      6.019      8.150
REMARK  Name = 
REMARK  9 active torsions:
REMARK  status: ('A' for Active; 'I' for Inactive)
REMARK    1  A    between atoms: C_1  and  C_2
REMARK    2  A    between atoms: C_9  and  O_10
REMARK    3  A    between atoms: C_11  and  N_12
REMARK    4  A    between atoms: N_12  and  S_13
REMARK    5  A    between atoms: S_13  and  C_16
REMARK    6  A    between atoms: C_19  and  C_20
REMARK    7  A    between atoms: C_20  and  C_21
REMARK    8  A    between atoms: C_20  and  C_22
REMARK    9  A    between atoms: C_20  and  C_23
REMARK                            x       y       z     vdW  Elec       q    Type
REMARK                         _______ _______ _______ _____ _____    ______ ____
ROOT
ATOM      1  N   UNL     1       5.250   5.220  17.045  0.00  0.00    +0.000 N 
ATOM      2  H   UNL     1       5.201   4.583  16.246  0.00  0.00    +0.000 HD
ENDROOT
BRANCH   1  12
ATOM      3  C   UNL     1       3.450   7.558  17.831  0.00  0.00    +0.000 C 
ATOM      4  C   UNL     1       3.239   6.170  18.385  0.00  0.00    +0.000 A 
ATOM      5  N   UNL     1       2.195   5.984  19.150  0.00  0.00    +0.000 NA
ATOM      6  C   UNL     1       1.941   4.703  19.554  0.00  0.00    +0.000 A 
ATOM      7  N   UNL     1       0.978   4.230  20.313  0.00  0.00    +0.000 NA
ATOM      8  C   UNL     1       1.209   2.887  20.331  0.00  0.00    +0.000 A 
ATOM      9  N   UNL     1       2.254   2.466  19.620  0.00  0.00    +0.000 NA
ATOM     10  N   UNL     1       2.726   3.635  19.120  0.00  0.00    +0.000 N 
ATOM     11  C   UNL     1       3.826   3.820  18.288  0.00  0.00    +0.000 A 
ATOM     12  C   UNL     1       4.187   5.071  17.968  0.00  0.00    +0.000 A 
BRANCH  11  13
ATOM     13  O   UNL     1       4.520   2.709  17.826  0.00  0.00    +0.000 OA
ATOM     14  H   UNL     1       5.287   2.602  18.434  0.00  0.00    +0.000 HD
ENDBRANCH  11  13
ENDBRANCH   1  12
BRANCH   1  15
ATOM     15  S   UNL     1       6.841   5.094  17.654  0.00  0.00    +0.000 S 
ATOM     16  O   UNL     1       6.709   4.474  18.952  0.00  0.00    +0.000 OA
ATOM     17  O   UNL     1       7.652   4.502  16.610  0.00  0.00    +0.000 OA
BRANCH  15  18
ATOM     18  C   UNL     1       7.447   6.749  17.937  0.00  0.00    +0.000 A 
ATOM     19  C   UNL     1       8.375   6.991  18.950  0.00  0.00    +0.000 A 
ATOM     20  C   UNL     1       8.876   8.285  19.154  0.00  0.00    +0.000 A 
ATOM     21  C   UNL     1       8.513   9.355  18.317  0.00  0.00    +0.000 A 
ATOM     22  C   UNL     1       7.624   9.066  17.260  0.00  0.00    +0.000 A 
ATOM     23  C   UNL     1       7.091   7.783  17.072  0.00  0.00    +0.000 A 
BRANCH  21  24
ATOM     24  C   UNL     1       9.076  10.781  18.496  0.00  0.00    +0.000 C 
ATOM     25  C   UNL     1       8.183  11.882  17.881  0.00  0.00    +0.000 C 
ATOM     26  C   UNL     1       9.223  11.097  20.002  0.00  0.00    +0.000 C 
ATOM     27  C   UNL     1      10.464  10.903  17.828  0.00  0.00    +0.000 C 
ENDBRANCH  21  24
ENDBRANCH  15  18
ENDBRANCH   1  15
TORSDOF 5
ENDMDL
MODEL 4
REMARK VINA RESULT:      -7.3      0.669      1.073
REMARK  Name = 
REMARK  9 active torsions:
REMARK  status: ('A' for Active; 'I' for Inactive)
REMARK    1  A    between atoms: C_1  and  C_2
REMARK    2  A    between atoms: C_9  and  O_10
REMARK    3  A    between atoms: C_11  and  N_12
REMARK    4  A    between atoms: N_12  and  S_13
REMARK    5  A    between atoms: S_13  and  C_16
REMARK    6  A    between atoms: C_19  and  C_20
REMARK    7  A    between atoms: C_20  and  C_21
REMARK    8  A    between atoms: C_20  and  C_22
REMARK    9  A    between atoms: C_20  and  C_23
REMARK                            x       y       z     vdW  Elec       q    Type
REMARK                         _______ _______ _______ _____ _____    ______ ____
ROOT
ATOM      1  N   UNL     1       0.314  10.692  19.694  0.00  0.00    +0.000 N 
ATOM      2  H   UNL     1       0.864  10.433  18.871  0.00  0.00    +0.000 HD
ENDROOT
BRANCH   1  12
ATOM      3  C   UNL     1      -1.287  12.663  21.390  0.00  0.00    +0.000 C 
ATOM      4  C   UNL     1      -1.885  11.984  20.184  0.00  0.00    +0.000 A 
ATOM      5  N   UNL     1      -3.094  12.340  19.835  0.00  0.00    +0.000 NA
ATOM      6  C   UNL     1      -3.588  11.811  18.675  0.00  0.00    +0.000 A 
ATOM      7  N   UNL     1      -4.752  11.989  18.091  0.00  0.00    +0.000 NA
ATOM      8  C   UNL     1      -4.661  11.248  16.951  0.00  0.00    +0.000 A 
ATOM      9  N   UNL     1      -3.504  10.614  16.760  0.00  0.00    +0.000 NA
ATOM     10  N   UNL     1      -2.814  10.976  17.870  0.00  0.00    +0.000 N 
ATOM     11  C   UNL     1      -1.518  10.609  18.221  0.00  0.00    +0.000 A 
ATOM     12  C   UNL     1      -1.038  11.002  19.409  0.00  0.00    +0.000 A 
BRANCH  11  13
ATOM     13  O   UNL     1      -0.770   9.839  17.339  0.00  0.00    +0.000 OA
ATOM     14  H   UNL     1      -0.317  10.480  16.745  0.00  0.00    +0.000 HD
ENDBRANCH  11  13
ENDBRANCH   1  12
BRANCH   1  15
ATOM     15  S   UNL     1       0.612   9.484  20.863  0.00  0.00    +0.000 S 
ATOM     16  O   UNL     1       1.488  10.096  21.834  0.00  0.00    +0.000 OA
ATOM     17  O   UNL     1      -0.672   8.932  21.244  0.00  0.00    +0.000 OA
BRANCH  15  18
ATOM     18  C   UNL     1       1.548   8.184  20.076  0.00  0.00    +0.000 A 
ATOM     19  C   UNL     1       1.645   6.929  20.678  0.00  0.00    +0.000 A 
ATOM     20  C   UNL     1       2.354   5.897  20.046  0.00  0.00    +0.000 A 
ATOM     21  C   UNL     1       2.929   6.070  18.775  0.00  0.00    +0.000 A 
ATOM     22  C   UNL     1       2.759   7.329  18.163  0.00  0.00    +0.000 A 
ATOM     23  C   UNL     1       2.082   8.377  18.803  0.00  0.00    +0.000 A 
BRANCH  21  24
ATOM     24  C   UNL     1       3.684   4.941  18.041  0.00  0.00    +0.000 C 
ATOM     25  C   UNL     1       4.658   4.154  18.949  0.00  0.00    +0.000 C 
ATOM     26  C   UNL     1       2.670   3.925  17.467  0.00  0.00    +0.000 C 
ATOM     27  C   UNL     1       4.521   5.516  16.876  0.00  0.00    +0.000 C 
ENDBRANCH  21  24
ENDBRANCH  15  18
ENDBRANCH   1  15
TORSDOF 5
ENDMDL
MODEL 5
REMARK VINA RESULT:      -7.3      6.143      8.297
REMARK  Name = 
REMARK  9 active torsions:
REMARK  status: ('A' for Active; 'I' for Inactive)
REMARK    1  A    between atoms: C_1  and  C_2
REMARK    2  A    between atoms: C_9  and  O_10
REMARK    3  A    between atoms: C_11  and  N_12
REMARK    4  A    between atoms: N_12  and  S_13
REMARK    5  A    between atoms: S_13  and  C_16
REMARK    6  A    between atoms: C_19  and  C_20
REMARK    7  A    between atoms: C_20  and  C_21
REMARK    8  A    between atoms: C_20  and  C_22
REMARK    9  A    between atoms: C_20  and  C_23
REMARK                            x       y       z     vdW  Elec       q    Type
REMARK                         _______ _______ _______ _____ _____    ______ ____
ROOT
ATOM      1  N   UNL     1       5.437   5.250  16.988  0.00  0.00    +0.000 N 
ATOM      2  H   UNL     1       5.513   4.702  16.127  0.00  0.00    +0.000 HD
ENDROOT
BRANCH   1  12
ATOM      3  C   UNL     1       3.479   7.428  17.850  0.00  0.00    +0.000 C 
ATOM      4  C   UNL     1       3.257   5.977  18.197  0.00  0.00    +0.000 A 
ATOM      5  N   UNL     1       2.143   5.671  18.808  0.00  0.00    +0.000 NA
ATOM      6  C   UNL     1       1.891   4.344  19.016  0.00  0.00    +0.000 A 
ATOM      7  N   UNL     1       0.868   3.756  19.594  0.00  0.00    +0.000 NA
ATOM      8  C   UNL     1       1.142   2.428  19.469  0.00  0.00    +0.000 A 
ATOM      9  N   UNL     1       2.275   2.125  18.835  0.00  0.00    +0.000 NA
ATOM     10  N   UNL     1       2.757   3.358  18.543  0.00  0.00    +0.000 N 
ATOM     11  C   UNL     1       3.935   3.672  17.873  0.00  0.00    +0.000 A 
ATOM     12  C   UNL     1       4.284   4.961  17.756  0.00  0.00    +0.000 A 
BRANCH  11  13
ATOM     13  O   UNL     1       4.715   2.644  17.358  0.00  0.00    +0.000 OA
ATOM     14  H   UNL     1       5.369   2.428  18.061  0.00  0.00    +0.000 HD
ENDBRANCH  11  13
ENDBRANCH   1  12
BRANCH   1  15
ATOM     15  S   UNL     1       6.952   5.122  17.766  0.00  0.00    +0.000 S 
ATOM     16  O   UNL     1       6.661   4.645  19.098  0.00  0.00    +0.000 OA
ATOM     17  O   UNL     1       7.830   4.391  16.875  0.00  0.00    +0.000 OA
BRANCH  15  18
ATOM     18  C   UNL     1       7.613   6.770  17.945  0.00  0.00    +0.000 A 
ATOM     19  C   UNL     1       7.197   7.787  17.085  0.00  0.00    +0.000 A 
ATOM     20  C   UNL     1       7.692   9.091  17.243  0.00  0.00    +0.000 A 
ATOM     21  C   UNL     1       8.563   9.424  18.295  0.00  0.00    +0.000 A 
ATOM     22  C   UNL     1       8.915   8.389  19.187  0.00  0.00    +0.000 A 
ATOM     23  C   UNL     1       8.452   7.077  19.015  0.00  0.00    +0.000 A 
BRANCH  21  24
ATOM     24  C   UNL     1       9.095  10.857  18.514  0.00  0.00    +0.000 C 
ATOM     25  C   UNL     1      10.496  11.098  17.907  0.00  0.00    +0.000 C 
ATOM     26  C   UNL     1       8.131  11.875  17.861  0.00  0.00    +0.000 C 
ATOM     27  C   UNL     1       9.198  11.173  20.023  0.00  0.00    +0.000 C 
ENDBRANCH  21  24
ENDBRANCH  15  18
ENDBRANCH   1  15
TORSDOF 5
ENDMDL
MODEL 6
REMARK VINA RESULT:      -7.1      1.211      1.795
REMARK  Name = 
REMARK  9 active torsions:
REMARK  status: ('A' for Active; 'I' for Inactive)
REMARK    1  A    between atoms: C_1  and  C_2
REMARK    2  A    between atoms: C_9  and  O_10
REMARK    3  A    between atoms: C_11  and  N_12
REMARK    4  A    between atoms: N_12  and  S_13
REMARK    5  A    between atoms: S_13  and  C_16
REMARK    6  A    between atoms: C_19  and  C_20
REMARK    7  A    between atoms: C_20  and  C_21
REMARK    8  A    between atoms: C_20  and  C_22
REMARK    9  A    between atoms: C_20  and  C_23
REMARK                            x       y       z     vdW  Elec       q    Type
REMARK                         _______ _______ _______ _____ _____    ______ ____
ROOT
ATOM      1  N   UNL     1      -0.018  11.024  19.323  0.00  0.00    +0.000 N 
ATOM      2  H   UNL     1       0.411  10.712  18.447  0.00  0.00    +0.000 HD
ENDROOT
BRANCH   1  12
ATOM      3  C   UNL     1      -1.426  12.935  21.244  0.00  0.00    +0.000 C 
ATOM      4  C   UNL     1      -2.161  12.260  20.113  0.00  0.00    +0.000 A 
ATOM      5  N   UNL     1      -3.412  12.593  19.928  0.00  0.00    +0.000 NA
ATOM      6  C   UNL     1      -4.040  12.069  18.833  0.00  0.00    +0.000 A 
ATOM      7  N   UNL     1      -5.273  12.229  18.407  0.00  0.00    +0.000 NA
ATOM      8  C   UNL     1      -5.314  11.506  17.252  0.00  0.00    +0.000 A 
ATOM      9  N   UNL     1      -4.179  10.901  16.904  0.00  0.00    +0.000 NA
ATOM     10  N   UNL     1      -3.359  11.263  17.921  0.00  0.00    +0.000 N 
ATOM     11  C   UNL     1      -2.022  10.920  18.096  0.00  0.00    +0.000 A 
ATOM     12  C   UNL     1      -1.401  11.308  19.219  0.00  0.00    +0.000 A 
BRANCH  11  13
ATOM     13  O   UNL     1      -1.378  10.180  17.113  0.00  0.00    +0.000 OA
ATOM     14  H   UNL     1      -0.698   9.646  17.583  0.00  0.00    +0.000 HD
ENDBRANCH  11  13
ENDBRANCH   1  12
BRANCH   1  15
ATOM     15  S   UNL     1       0.466   9.900  20.514  0.00  0.00    +0.000 S 
ATOM     16  O   UNL     1       1.351  10.628  21.393  0.00  0.00    +0.000 OA
ATOM     17  O   UNL     1      -0.735   9.259  21.009  0.00  0.00    +0.000 OA
BRANCH  15  18
ATOM     18  C   UNL     1       1.455   8.650  19.713  0.00  0.00    +0.000 A 
ATOM     19  C   UNL     1       2.000   8.891  18.451  0.00  0.00    +0.000 A 
ATOM     20  C   UNL     1       2.803   7.921  17.832  0.00  0.00    +0.000 A 
ATOM     21  C   UNL     1       3.132   6.717  18.479  0.00  0.00    +0.000 A 
ATOM     22  C   UNL     1       2.620   6.529  19.780  0.00  0.00    +0.000 A 
ATOM     23  C   UNL     1       1.788   7.478  20.391  0.00  0.00    +0.000 A 
BRANCH  21  24
ATOM     24  C   UNL     1       4.042   5.648  17.836  0.00  0.00    +0.000 C 
ATOM     25  C   UNL     1       5.150   5.128  18.781  0.00  0.00    +0.000 C 
ATOM     26  C   UNL     1       3.193   4.429  17.410  0.00  0.00    +0.000 C 
ATOM     27  C   UNL     1       4.750   6.219  16.587  0.00  0.00    +0.000 C 
ENDBRANCH  21  24
ENDBRANCH  15  18
ENDBRANCH   1  15
TORSDOF 5
ENDMDL
MODEL 7
REMARK VINA RESULT:      -7.1      1.324      2.493
REMARK  Name = 
REMARK  9 active torsions:
REMARK  status: ('A' for Active; 'I' for Inactive)
REMARK    1  A    between atoms: C_1  and  C_2
REMARK    2  A    between atoms: C_9  and  O_10
REMARK    3  A    between atoms: C_11  and  N_12
REMARK    4  A    between atoms: N_12  and  S_13
REMARK    5  A    between atoms: S_13  and  C_16
REMARK    6  A    between atoms: C_19  and  C_20
REMARK    7  A    between atoms: C_20  and  C_21
REMARK    8  A    between atoms: C_20  and  C_22
REMARK    9  A    between atoms: C_20  and  C_23
REMARK                            x       y       z     vdW  Elec       q    Type
REMARK                         _______ _______ _______ _____ _____    ______ ____
ROOT
ATOM      1  N   UNL     1       0.806  10.465  20.085  0.00  0.00    +0.000 N 
ATOM      2  H   UNL     1       1.171  10.153  19.181  0.00  0.00    +0.000 HD
ENDROOT
BRANCH   1  12
ATOM      3  C   UNL     1      -1.184  10.030  17.809  0.00  0.00    +0.000 C 
ATOM      4  C   UNL     1      -1.449  11.016  18.920  0.00  0.00    +0.000 A 
ATOM      5  N   UNL     1      -2.610  11.617  18.923  0.00  0.00    +0.000 NA
ATOM      6  C   UNL     1      -2.893  12.418  19.992  0.00  0.00    +0.000 A 
ATOM      7  N   UNL     1      -3.965  13.133  20.256  0.00  0.00    +0.000 NA
ATOM      8  C   UNL     1      -3.699  13.682  21.474  0.00  0.00    +0.000 A 
ATOM      9  N   UNL     1      -2.526  13.355  22.016  0.00  0.00    +0.000 NA
ATOM     10  N   UNL     1      -2.008  12.542  21.063  0.00  0.00    +0.000 N 
ATOM     11  C   UNL     1      -0.779  11.889  21.081  0.00  0.00    +0.000 A 
ATOM     12  C   UNL     1      -0.405  11.192  19.998  0.00  0.00    +0.000 A 
BRANCH  11  13
ATOM     13  O   UNL     1       0.024  11.989  22.209  0.00  0.00    +0.000 OA
ATOM     14  H   UNL     1       0.947  12.062  21.875  0.00  0.00    +0.000 HD
ENDBRANCH  11  13
ENDBRANCH   1  12
BRANCH   1  15
ATOM     15  S   UNL     1       0.826   9.093  21.103  0.00  0.00    +0.000 S 
ATOM     16  O   UNL     1       1.667   9.456  22.220  0.00  0.00    +0.000 OA
ATOM     17  O   UNL     1      -0.550   8.682  21.293  0.00  0.00    +0.000 OA
BRANCH  15  18
ATOM     18  C   UNL     1       1.667   7.782  20.232  0.00  0.00    +0.000 A 
ATOM     19  C   UNL     1       1.708   6.497  20.773  0.00  0.00    +0.000 A 
ATOM     20  C   UNL     1       2.342   5.458  20.076  0.00  0.00    +0.000 A 
ATOM     21  C   UNL     1       2.894   5.659  18.799  0.00  0.00    +0.000 A 
ATOM     22  C   UNL     1       2.780   6.953  18.249  0.00  0.00    +0.000 A 
ATOM     23  C   UNL     1       2.180   8.005  18.955  0.00  0.00    +0.000 A 
BRANCH  21  24
ATOM     24  C   UNL     1       3.565   4.525  17.994  0.00  0.00    +0.000 C 
ATOM     25  C   UNL     1       4.471   5.030  16.848  0.00  0.00    +0.000 C 
ATOM     26  C   UNL     1       4.448   3.671  18.933  0.00  0.00    +0.000 C 
ATOM     27  C   UNL     1       2.498   3.610  17.353  0.00  0.00    +0.000 C 
ENDBRANCH  21  24
ENDBRANCH  15  18
ENDBRANCH   1  15
TORSDOF 5
ENDMDL
MODEL 8
REMARK VINA RESULT:      -7.1      3.693      4.514
REMARK  Name = 
REMARK  9 active torsions:
REMARK  status: ('A' for Active; 'I' for Inactive)
REMARK    1  A    between atoms: C_1  and  C_2
REMARK    2  A    between atoms: C_9  and  O_10
REMARK    3  A    between atoms: C_11  and  N_12
REMARK    4  A    between atoms: N_12  and  S_13
REMARK    5  A    between atoms: S_13  and  C_16
REMARK    6  A    between atoms: C_19  and  C_20
REMARK    7  A    between atoms: C_20  and  C_21
REMARK    8  A    between atoms: C_20  and  C_22
REMARK    9  A    between atoms: C_20  and  C_23
REMARK                            x       y       z     vdW  Elec       q    Type
REMARK                         _______ _______ _______ _____ _____    ______ ____
ROOT
ATOM      1  N   UNL     1       0.261  12.180  18.440  0.00  0.00    +0.000 N 
ATOM      2  H   UNL     1      -0.725  12.157  18.164  0.00  0.00    +0.000 HD
ENDROOT
BRANCH   1  12
ATOM      3  C   UNL     1      -1.081  14.482  19.932  0.00  0.00    +0.000 C 
ATOM      4  C   UNL     1       0.230  14.661  19.209  0.00  0.00    +0.000 A 
ATOM      5  N   UNL     1       0.821  15.822  19.320  0.00  0.00    +0.000 NA
ATOM      6  C   UNL     1       2.063  15.943  18.763  0.00  0.00    +0.000 A 
ATOM      7  N   UNL     1       2.877  16.975  18.723  0.00  0.00    +0.000 NA
ATOM      8  C   UNL     1       3.979  16.496  18.082  0.00  0.00    +0.000 A 
ATOM      9  N   UNL     1       3.930  15.214  17.718  0.00  0.00    +0.000 NA
ATOM     10  N   UNL     1       2.697  14.859  18.156  0.00  0.00    +0.000 N 
ATOM     11  C   UNL     1       2.086  13.613  18.052  0.00  0.00    +0.000 A 
ATOM     12  C   UNL     1       0.819  13.481  18.473  0.00  0.00    +0.000 A 
BRANCH  11  13
ATOM     13  O   UNL     1       2.799  12.553  17.507  0.00  0.00    +0.000 OA
ATOM     14  H   UNL     1       3.045  11.978  18.268  0.00  0.00    +0.000 HD
ENDBRANCH  11  13
ENDBRANCH   1  12
BRANCH   1  15
ATOM     15  S   UNL     1       0.379  11.239  19.860  0.00  0.00    +0.000 S 
ATOM     16  O   UNL     1       1.330  11.928  20.700  0.00  0.00    +0.000 OA
ATOM     17  O   UNL     1      -0.973  10.970  20.307  0.00  0.00    +0.000 OA
BRANCH  15  18
ATOM     18  C   UNL     1       1.122   9.678  19.417  0.00  0.00    +0.000 A 
ATOM     19  C   UNL     1       1.616   9.479  18.128  0.00  0.00    +0.000 A 
ATOM     20  C   UNL     1       2.229   8.264  17.787  0.00  0.00    +0.000 A 
ATOM     21  C   UNL     1       2.418   7.244  18.736  0.00  0.00    +0.000 A 
ATOM     22  C   UNL     1       1.967   7.499  20.048  0.00  0.00    +0.000 A 
ATOM     23  C   UNL     1       1.323   8.697  20.388  0.00  0.00    +0.000 A 
BRANCH  21  24
ATOM     24  C   UNL     1       3.121   5.911  18.397  0.00  0.00    +0.000 C 
ATOM     25  C   UNL     1       3.836   5.263  19.605  0.00  0.00    +0.000 C 
ATOM     26  C   UNL     1       2.082   4.892  17.877  0.00  0.00    +0.000 C 
ATOM     27  C   UNL     1       4.192   6.126  17.304  0.00  0.00    +0.000 C 
ENDBRANCH  21  24
ENDBRANCH  15  18
ENDBRANCH   1  15
TORSDOF 5
ENDMDL
MODEL 9
REMARK VINA RESULT:      -7.0      3.630      4.349
REMARK  Name = 
REMARK  9 active torsions:
REMARK  status: ('A' for Active; 'I' for Inactive)
REMARK    1  A    between atoms: C_1  and  C_2
REMARK    2  A    between atoms: C_9  and  O_10
REMARK    3  A    between atoms: C_11  and  N_12
REMARK    4  A    between atoms: N_12  and  S_13
REMARK    5  A    between atoms: S_13  and  C_16
REMARK    6  A    between atoms: C_19  and  C_20
REMARK    7  A    between atoms: C_20  and  C_21
REMARK    8  A    between atoms: C_20  and  C_22
REMARK    9  A    between atoms: C_20  and  C_23
REMARK                            x       y       z     vdW  Elec       q    Type
REMARK                         _______ _______ _______ _____ _____    ______ ____
ROOT
ATOM      1  N   UNL     1       0.355  12.041  18.488  0.00  0.00    +0.000 N 
ATOM      2  H   UNL     1      -0.629  11.993  18.207  0.00  0.00    +0.000 HD
ENDROOT
BRANCH   1  12
ATOM      3  C   UNL     1      -1.023  14.320  19.982  0.00  0.00    +0.000 C 
ATOM      4  C   UNL     1       0.277  14.524  19.245  0.00  0.00    +0.000 A 
ATOM      5  N   UNL     1       0.844  15.699  19.343  0.00  0.00    +0.000 NA
ATOM      6  C   UNL     1       2.077  15.844  18.772  0.00  0.00    +0.000 A 
ATOM      7  N   UNL     1       2.867  16.894  18.718  0.00  0.00    +0.000 NA
ATOM      8  C   UNL     1       3.973  16.435  18.068  0.00  0.00    +0.000 A 
ATOM      9  N   UNL     1       3.948  15.151  17.711  0.00  0.00    +0.000 NA
ATOM     10  N   UNL     1       2.728  14.771  18.164  0.00  0.00    +0.000 N 
ATOM     11  C   UNL     1       2.143  13.512  18.073  0.00  0.00    +0.000 A 
ATOM     12  C   UNL     1       0.885  13.354  18.508  0.00  0.00    +0.000 A 
BRANCH  11  13
ATOM     13  O   UNL     1       2.873  12.464  17.526  0.00  0.00    +0.000 OA
ATOM     14  H   UNL     1       2.454  11.641  17.866  0.00  0.00    +0.000 HD
ENDBRANCH  11  13
ENDBRANCH   1  12
BRANCH   1  15
ATOM     15  S   UNL     1       0.485  11.120  19.920  0.00  0.00    +0.000 S 
ATOM     16  O   UNL     1       1.407  11.845  20.762  0.00  0.00    +0.000 OA
ATOM     17  O   UNL     1      -0.863  10.817  20.357  0.00  0.00    +0.000 OA
BRANCH  15  18
ATOM     18  C   UNL     1       1.277   9.576  19.503  0.00  0.00    +0.000 A 
ATOM     19  C   UNL     1       1.396   8.569  20.461  0.00  0.00    +0.000 A 
ATOM     20  C   UNL     1       1.991   7.343  20.127  0.00  0.00    +0.000 A 
ATOM     21  C   UNL     1       2.425   7.069  18.818  0.00  0.00    +0.000 A 
ATOM     22  C   UNL     1       2.233   8.082  17.856  0.00  0.00    +0.000 A 
ATOM     23  C   UNL     1       1.672   9.323  18.190  0.00  0.00    +0.000 A 
BRANCH  21  24
ATOM     24  C   UNL     1       3.051   5.716  18.415  0.00  0.00    +0.000 C 
ATOM     25  C   UNL     1       2.031   4.713  17.826  0.00  0.00    +0.000 C 
ATOM     26  C   UNL     1       4.140   5.946  17.342  0.00  0.00    +0.000 C 
ATOM     27  C   UNL     1       3.699   5.032  19.639  0.00  0.00    +0.000 C 
ENDBRANCH  21  24
ENDBRANCH  15  18
ENDBRANCH   1  15
TORSDOF 5
ENDMDL
