MODEL 1
REMARK VINA RESULT:      -6.8      0.000      0.000
REMARK  Name = 
REMARK  9 active torsions:
REMARK  status: ('A' for Active; 'I' for Inactive)
REMARK    1  A    between atoms: C_1  and  C_2
REMARK    2  A    between atoms: C_2  and  O_3
REMARK    3  A    between atoms: O_3  and  C_4
REMARK    4  A    between atoms: C_4  and  C_6
REMARK    5  A    between atoms: C_6  and  S_7
REMARK    6  A    between atoms: S_7  and  C_8
REMARK    7  A    between atoms: C_11  and  C_12
REMARK    8  A    between atoms: C_17  and  O_18
REMARK    9  A    between atoms: O_18  and  C_19
REMARK                            x       y       z     vdW  Elec       q    Type
REMARK                         _______ _______ _______ _____ _____    ______ ____
ROOT
ATOM      1  C   UNL     1       6.424   4.931  17.152  0.00  0.00    +0.000 A 
ATOM      2  N   UNL     1       7.172   4.676  18.205  0.00  0.00    +0.000 NA
ATOM      3  N   UNL     1       6.310   4.466  19.254  0.00  0.00    +0.000 NA
ATOM      4  C   UNL     1       5.090   4.658  18.795  0.00  0.00    +0.000 A 
ATOM      5  O   UNL     1       5.094   4.974  17.456  0.00  0.00    +0.000 OA
ENDROOT
BRANCH   4   6
ATOM      6  C   UNL     1       3.777   4.499  19.420  0.00  0.00    +0.000 A 
ATOM      7  C   UNL     1       3.103   5.702  19.755  0.00  0.00    +0.000 A 
ATOM      8  C   UNL     1       1.837   5.716  20.345  0.00  0.00    +0.000 A 
ATOM      9  C   UNL     1       1.204   4.516  20.617  0.00  0.00    +0.000 A 
ATOM     10  C   UNL     1       1.843   3.322  20.290  0.00  0.00    +0.000 A 
ATOM     11  C   UNL     1       3.123   3.286  19.695  0.00  0.00    +0.000 A 
BRANCH  11  12
ATOM     12  O   UNL     1       3.491   1.983  19.511  0.00  0.00    +0.000 OA
ATOM     13  C   UNL     1       3.582   1.392  18.230  0.00  0.00    +0.000 C 
ENDBRANCH  11  12
ENDBRANCH   4   6
BRANCH   1  14
ATOM     14  S   UNL     1       7.043   5.047  15.531  0.00  0.00    +0.000 S 
BRANCH  14  15
ATOM     15  C   UNL     1       6.058   3.717  14.760  0.00  0.00    +0.000 C 
BRANCH  15  16
ATOM     16  C   UNL     1       6.074   3.826  13.246  0.00  0.00    +0.000 C 
ATOM     17  O   UNL     1       7.066   4.050  12.564  0.00  0.00    +0.000 OA
BRANCH  16  18
ATOM     18  O   UNL     1       4.809   3.672  12.760  0.00  0.00    +0.000 OA
BRANCH  18  20
ATOM     19  C   UNL     1       3.527   3.481  10.707  0.00  0.00    +0.000 C 
ATOM     20  C   UNL     1       4.695   2.959  11.519  0.00  0.00    +0.000 C 
ENDBRANCH  18  20
ENDBRANCH  16  18
ENDBRANCH  15  16
ENDBRANCH  14  15
ENDBRANCH   1  14
TORSDOF 7
ENDMDL
MODEL 2
REMARK VINA RESULT:      -6.8      1.169      1.349
REMARK  Name = 
REMARK  9 active torsions:
REMARK  status: ('A' for Active; 'I' for Inactive)
REMARK    1  A    between atoms: C_1  and  C_2
REMARK    2  A    between atoms: C_2  and  O_3
REMARK    3  A    between atoms: O_3  and  C_4
REMARK    4  A    between atoms: C_4  and  C_6
REMARK    5  A    between atoms: C_6  and  S_7
REMARK    6  A    between atoms: S_7  and  C_8
REMARK    7  A    between atoms: C_11  and  C_12
REMARK    8  A    between atoms: C_17  and  O_18
REMARK    9  A    between atoms: O_18  and  C_19
REMARK                            x       y       z     vdW  Elec       q    Type
REMARK                         _______ _______ _______ _____ _____    ______ ____
ROOT
ATOM      1  C   UNL     1       6.064   5.451  17.849  0.00  0.00    +0.000 A 
ATOM      2  N   UNL     1       6.712   4.692  18.706  0.00  0.00    +0.000 NA
ATOM      3  N   UNL     1       5.757   4.036  19.446  0.00  0.00    +0.000 NA
ATOM      4  C   UNL     1       4.584   4.473  19.036  0.00  0.00    +0.000 A 
ATOM      5  O   UNL     1       4.710   5.395  18.022  0.00  0.00    +0.000 OA
ENDROOT
BRANCH   4   6
ATOM      6  C   UNL     1       3.220   4.084  19.393  0.00  0.00    +0.000 A 
ATOM      7  C   UNL     1       2.547   4.950  20.293  0.00  0.00    +0.000 A 
ATOM      8  C   UNL     1       1.237   4.721  20.718  0.00  0.00    +0.000 A 
ATOM      9  C   UNL     1       0.556   3.611  20.248  0.00  0.00    +0.000 A 
ATOM     10  C   UNL     1       1.194   2.751  19.358  0.00  0.00    +0.000 A 
ATOM     11  C   UNL     1       2.518   2.963  18.917  0.00  0.00    +0.000 A 
BRANCH  11  12
ATOM     12  O   UNL     1       2.872   1.951  18.069  0.00  0.00    +0.000 OA
ATOM     13  C   UNL     1       3.915   1.044  18.362  0.00  0.00    +0.000 C 
ENDBRANCH  11  12
ENDBRANCH   4   6
BRANCH   1  14
ATOM     14  S   UNL     1       6.829   6.310  16.545  0.00  0.00    +0.000 S 
BRANCH  14  15
ATOM     15  C   UNL     1       5.956   5.529  15.145  0.00  0.00    +0.000 C 
BRANCH  15  16
ATOM     16  C   UNL     1       6.931   4.882  14.178  0.00  0.00    +0.000 C 
ATOM     17  O   UNL     1       7.992   5.371  13.813  0.00  0.00    +0.000 OA
BRANCH  16  18
ATOM     18  O   UNL     1       6.429   3.689  13.748  0.00  0.00    +0.000 OA
BRANCH  18  20
ATOM     19  C   UNL     1       4.908   3.382  11.881  0.00  0.00    +0.000 C 
ATOM     20  C   UNL     1       6.350   3.517  12.325  0.00  0.00    +0.000 C 
ENDBRANCH  18  20
ENDBRANCH  16  18
ENDBRANCH  15  16
ENDBRANCH  14  15
ENDBRANCH   1  14
TORSDOF 7
ENDMDL
MODEL 3
REMARK VINA RESULT:      -6.7      1.457      2.346
REMARK  Name = 
REMARK  9 active torsions:
REMARK  status: ('A' for Active; 'I' for Inactive)
REMARK    1  A    between atoms: C_1  and  C_2
REMARK    2  A    between atoms: C_2  and  O_3
REMARK    3  A    between atoms: O_3  and  C_4
REMARK    4  A    between atoms: C_4  and  C_6
REMARK    5  A    between atoms: C_6  and  S_7
REMARK    6  A    between atoms: S_7  and  C_8
REMARK    7  A    between atoms: C_11  and  C_12
REMARK    8  A    between atoms: C_17  and  O_18
REMARK    9  A    between atoms: O_18  and  C_19
REMARK                            x       y       z     vdW  Elec       q    Type
REMARK                         _______ _______ _______ _____ _____    ______ ____
ROOT
ATOM      1  C   UNL     1       6.070   5.148  17.689  0.00  0.00    +0.000 A 
ATOM      2  N   UNL     1       6.688   4.511  18.661  0.00  0.00    +0.000 NA
ATOM      3  N   UNL     1       5.710   3.919  19.423  0.00  0.00    +0.000 NA
ATOM      4  C   UNL     1       4.551   4.272  18.906  0.00  0.00    +0.000 A 
ATOM      5  O   UNL     1       4.711   5.074  17.799  0.00  0.00    +0.000 OA
ENDROOT
BRANCH   4   6
ATOM      6  C   UNL     1       3.179   3.889  19.237  0.00  0.00    +0.000 A 
ATOM      7  C   UNL     1       2.786   2.587  18.830  0.00  0.00    +0.000 A 
ATOM      8  C   UNL     1       1.514   2.072  19.085  0.00  0.00    +0.000 A 
ATOM      9  C   UNL     1       0.591   2.850  19.762  0.00  0.00    +0.000 A 
ATOM     10  C   UNL     1       0.956   4.128  20.179  0.00  0.00    +0.000 A 
ATOM     11  C   UNL     1       2.236   4.669  19.930  0.00  0.00    +0.000 A 
BRANCH  11  12
ATOM     12  O   UNL     1       2.290   5.936  20.439  0.00  0.00    +0.000 OA
ATOM     13  C   UNL     1       2.288   7.085  19.617  0.00  0.00    +0.000 C 
ENDBRANCH  11  12
ENDBRANCH   4   6
BRANCH   1  14
ATOM     14  S   UNL     1       6.884   5.872  16.334  0.00  0.00    +0.000 S 
BRANCH  14  15
ATOM     15  C   UNL     1       6.384   4.685  15.041  0.00  0.00    +0.000 C 
BRANCH  15  16
ATOM     16  C   UNL     1       7.213   4.859  13.781  0.00  0.00    +0.000 C 
ATOM     17  O   UNL     1       8.152   5.634  13.655  0.00  0.00    +0.000 OA
BRANCH  16  18
ATOM     18  O   UNL     1       6.731   4.046  12.797  0.00  0.00    +0.000 OA
BRANCH  18  20
ATOM     19  C   UNL     1       4.765   3.212  11.644  0.00  0.00    +0.000 C 
ATOM     20  C   UNL     1       5.388   3.571  12.977  0.00  0.00    +0.000 C 
ENDBRANCH  18  20
ENDBRANCH  16  18
ENDBRANCH  15  16
ENDBRANCH  14  15
ENDBRANCH   1  14
TORSDOF 7
ENDMDL
MODEL 4
REMARK VINA RESULT:      -6.7      1.564      1.570
REMARK  Name = 
REMARK  9 active torsions:
REMARK  status: ('A' for Active; 'I' for Inactive)
REMARK    1  A    between atoms: C_1  and  C_2
REMARK    2  A    between atoms: C_2  and  O_3
REMARK    3  A    between atoms: O_3  and  C_4
REMARK    4  A    between atoms: C_4  and  C_6
REMARK    5  A    between atoms: C_6  and  S_7
REMARK    6  A    between atoms: S_7  and  C_8
REMARK    7  A    between atoms: C_11  and  C_12
REMARK    8  A    between atoms: C_17  and  O_18
REMARK    9  A    between atoms: O_18  and  C_19
REMARK                            x       y       z     vdW  Elec       q    Type
REMARK                         _______ _______ _______ _____ _____    ______ ____
ROOT
ATOM      1  C   UNL     1       5.576   5.456  15.938  0.00  0.00    +0.000 A 
ATOM      2  N   UNL     1       5.380   6.749  16.087  0.00  0.00    +0.000 NA
ATOM      3  N   UNL     1       4.410   6.887  17.050  0.00  0.00    +0.000 NA
ATOM      4  C   UNL     1       4.031   5.673  17.395  0.00  0.00    +0.000 A 
ATOM      5  O   UNL     1       4.731   4.708  16.707  0.00  0.00    +0.000 OA
ENDROOT
BRANCH   4   6
ATOM      6  C   UNL     1       3.102   5.195  18.418  0.00  0.00    +0.000 A 
ATOM      7  C   UNL     1       2.761   6.133  19.428  0.00  0.00    +0.000 A 
ATOM      8  C   UNL     1       1.876   5.831  20.465  0.00  0.00    +0.000 A 
ATOM      9  C   UNL     1       1.300   4.574  20.521  0.00  0.00    +0.000 A 
ATOM     10  C   UNL     1       1.614   3.640  19.536  0.00  0.00    +0.000 A 
ATOM     11  C   UNL     1       2.507   3.923  18.480  0.00  0.00    +0.000 A 
BRANCH  11  12
ATOM     12  O   UNL     1       2.626   2.815  17.689  0.00  0.00    +0.000 OA
ATOM     13  C   UNL     1       3.423   1.706  18.051  0.00  0.00    +0.000 C 
ENDBRANCH  11  12
ENDBRANCH   4   6
BRANCH   1  14
ATOM     14  S   UNL     1       6.864   4.775  14.989  0.00  0.00    +0.000 S 
BRANCH  14  15
ATOM     15  C   UNL     1       5.865   3.749  13.856  0.00  0.00    +0.000 C 
BRANCH  15  16
ATOM     16  C   UNL     1       6.425   3.780  12.446  0.00  0.00    +0.000 C 
ATOM     17  O   UNL     1       7.428   4.390  12.096  0.00  0.00    +0.000 OA
BRANCH  16  18
ATOM     18  O   UNL     1       5.621   3.055  11.616  0.00  0.00    +0.000 OA
BRANCH  18  20
ATOM     19  C   UNL     1       3.541   3.485  10.440  0.00  0.00    +0.000 C 
ATOM     20  C   UNL     1       4.208   3.252  11.780  0.00  0.00    +0.000 C 
ENDBRANCH  18  20
ENDBRANCH  16  18
ENDBRANCH  15  16
ENDBRANCH  14  15
ENDBRANCH   1  14
TORSDOF 7
ENDMDL
MODEL 5
REMARK VINA RESULT:      -6.6      2.995      6.696
REMARK  Name = 
REMARK  9 active torsions:
REMARK  status: ('A' for Active; 'I' for Inactive)
REMARK    1  A    between atoms: C_1  and  C_2
REMARK    2  A    between atoms: C_2  and  O_3
REMARK    3  A    between atoms: O_3  and  C_4
REMARK    4  A    between atoms: C_4  and  C_6
REMARK    5  A    between atoms: C_6  and  S_7
REMARK    6  A    between atoms: S_7  and  C_8
REMARK    7  A    between atoms: C_11  and  C_12
REMARK    8  A    between atoms: C_17  and  O_18
REMARK    9  A    between atoms: O_18  and  C_19
REMARK                            x       y       z     vdW  Elec       q    Type
REMARK                         _______ _______ _______ _____ _____    ______ ____
ROOT
ATOM      1  C   UNL     1       2.685   3.030  18.163  0.00  0.00    +0.000 A 
ATOM      2  N   UNL     1       2.620   3.129  16.852  0.00  0.00    +0.000 NA
ATOM      3  N   UNL     1       3.680   3.914  16.468  0.00  0.00    +0.000 NA
ATOM      4  C   UNL     1       4.298   4.294  17.568  0.00  0.00    +0.000 A 
ATOM      5  O   UNL     1       3.700   3.773  18.693  0.00  0.00    +0.000 OA
ENDROOT
BRANCH   4   6
ATOM      6  C   UNL     1       5.523   5.063  17.781  0.00  0.00    +0.000 A 
ATOM      7  C   UNL     1       6.012   5.090  19.113  0.00  0.00    +0.000 A 
ATOM      8  C   UNL     1       7.177   5.770  19.473  0.00  0.00    +0.000 A 
ATOM      9  C   UNL     1       7.894   6.446  18.502  0.00  0.00    +0.000 A 
ATOM     10  C   UNL     1       7.439   6.427  17.186  0.00  0.00    +0.000 A 
ATOM     11  C   UNL     1       6.263   5.748  16.800  0.00  0.00    +0.000 A 
BRANCH  11  12
ATOM     12  O   UNL     1       6.067   5.923  15.460  0.00  0.00    +0.000 OA
ATOM     13  C   UNL     1       6.493   4.978  14.499  0.00  0.00    +0.000 C 
ENDBRANCH  11  12
ENDBRANCH   4   6
BRANCH   1  14
ATOM     14  S   UNL     1       1.690   1.958  19.103  0.00  0.00    +0.000 S 
BRANCH  14  15
ATOM     15  C   UNL     1       1.042   3.164  20.311  0.00  0.00    +0.000 C 
BRANCH  15  16
ATOM     16  C   UNL     1       2.054   3.445  21.407  0.00  0.00    +0.000 C 
ATOM     17  O   UNL     1       2.566   2.599  22.130  0.00  0.00    +0.000 OA
BRANCH  16  18
ATOM     18  O   UNL     1       2.280   4.788  21.492  0.00  0.00    +0.000 OA
BRANCH  18  20
ATOM     19  C   UNL     1       2.363   6.656  19.944  0.00  0.00    +0.000 C 
ATOM     20  C   UNL     1       1.496   5.613  20.617  0.00  0.00    +0.000 C 
ENDBRANCH  18  20
ENDBRANCH  16  18
ENDBRANCH  15  16
ENDBRANCH  14  15
ENDBRANCH   1  14
TORSDOF 7
ENDMDL
MODEL 6
REMARK VINA RESULT:      -6.6      1.448      2.292
REMARK  Name = 
REMARK  9 active torsions:
REMARK  status: ('A' for Active; 'I' for Inactive)
REMARK    1  A    between atoms: C_1  and  C_2
REMARK    2  A    between atoms: C_2  and  O_3
REMARK    3  A    between atoms: O_3  and  C_4
REMARK    4  A    between atoms: C_4  and  C_6
REMARK    5  A    between atoms: C_6  and  S_7
REMARK    6  A    between atoms: S_7  and  C_8
REMARK    7  A    between atoms: C_11  and  C_12
REMARK    8  A    between atoms: C_17  and  O_18
REMARK    9  A    between atoms: O_18  and  C_19
REMARK                            x       y       z     vdW  Elec       q    Type
REMARK                         _______ _______ _______ _____ _____    ______ ____
ROOT
ATOM      1  C   UNL     1       6.257   4.562  16.273  0.00  0.00    +0.000 A 
ATOM      2  N   UNL     1       6.923   4.540  17.408  0.00  0.00    +0.000 NA
ATOM      3  N   UNL     1       6.011   4.232  18.389  0.00  0.00    +0.000 NA
ATOM      4  C   UNL     1       4.833   4.138  17.806  0.00  0.00    +0.000 A 
ATOM      5  O   UNL     1       4.919   4.354  16.450  0.00  0.00    +0.000 OA
ENDROOT
BRANCH   4   6
ATOM      6  C   UNL     1       3.519   3.758  18.322  0.00  0.00    +0.000 A 
ATOM      7  C   UNL     1       3.329   2.373  18.568  0.00  0.00    +0.000 A 
ATOM      8  C   UNL     1       2.134   1.857  19.073  0.00  0.00    +0.000 A 
ATOM      9  C   UNL     1       1.087   2.719  19.351  0.00  0.00    +0.000 A 
ATOM     10  C   UNL     1       1.253   4.083  19.125  0.00  0.00    +0.000 A 
ATOM     11  C   UNL     1       2.452   4.626  18.613  0.00  0.00    +0.000 A 
BRANCH  11  12
ATOM     12  O   UNL     1       2.308   5.979  18.485  0.00  0.00    +0.000 OA
ATOM     13  C   UNL     1       2.463   6.866  19.574  0.00  0.00    +0.000 C 
ENDBRANCH  11  12
ENDBRANCH   4   6
BRANCH   1  14
ATOM     14  S   UNL     1       7.009   4.689  14.711  0.00  0.00    +0.000 S 
BRANCH  14  15
ATOM     15  C   UNL     1       5.728   3.854  13.714  0.00  0.00    +0.000 C 
BRANCH  15  16
ATOM     16  C   UNL     1       6.203   3.615  12.293  0.00  0.00    +0.000 C 
ATOM     17  O   UNL     1       7.198   4.117  11.786  0.00  0.00    +0.000 OA
BRANCH  16  18
ATOM     18  O   UNL     1       5.333   2.783  11.650  0.00  0.00    +0.000 OA
BRANCH  18  20
ATOM     19  C   UNL     1       3.556   3.620  10.224  0.00  0.00    +0.000 C 
ATOM     20  C   UNL     1       3.962   3.208  11.624  0.00  0.00    +0.000 C 
ENDBRANCH  18  20
ENDBRANCH  16  18
ENDBRANCH  15  16
ENDBRANCH  14  15
ENDBRANCH   1  14
TORSDOF 7
ENDMDL
MODEL 7
REMARK VINA RESULT:      -6.6      2.660      6.535
REMARK  Name = 
REMARK  9 active torsions:
REMARK  status: ('A' for Active; 'I' for Inactive)
REMARK    1  A    between atoms: C_1  and  C_2
REMARK    2  A    between atoms: C_2  and  O_3
REMARK    3  A    between atoms: O_3  and  C_4
REMARK    4  A    between atoms: C_4  and  C_6
REMARK    5  A    between atoms: C_6  and  S_7
REMARK    6  A    between atoms: S_7  and  C_8
REMARK    7  A    between atoms: C_11  and  C_12
REMARK    8  A    between atoms: C_17  and  O_18
REMARK    9  A    between atoms: O_18  and  C_19
REMARK                            x       y       z     vdW  Elec       q    Type
REMARK                         _______ _______ _______ _____ _____    ______ ____
ROOT
ATOM      1  C   UNL     1       3.768   5.212  19.354  0.00  0.00    +0.000 A 
ATOM      2  N   UNL     1       4.820   4.764  20.006  0.00  0.00    +0.000 NA
ATOM      3  N   UNL     1       5.778   4.492  19.060  0.00  0.00    +0.000 NA
ATOM      4  C   UNL     1       5.239   4.738  17.883  0.00  0.00    +0.000 A 
ATOM      5  O   UNL     1       3.944   5.189  18.000  0.00  0.00    +0.000 OA
ENDROOT
BRANCH   4   6
ATOM      6  C   UNL     1       5.796   4.709  16.531  0.00  0.00    +0.000 A 
ATOM      7  C   UNL     1       5.151   3.836  15.616  0.00  0.00    +0.000 A 
ATOM      8  C   UNL     1       5.557   3.708  14.286  0.00  0.00    +0.000 A 
ATOM      9  C   UNL     1       6.627   4.457  13.829  0.00  0.00    +0.000 A 
ATOM     10  C   UNL     1       7.270   5.327  14.707  0.00  0.00    +0.000 A 
ATOM     11  C   UNL     1       6.878   5.470  16.055  0.00  0.00    +0.000 A 
BRANCH  11  12
ATOM     12  O   UNL     1       7.701   6.375  16.664  0.00  0.00    +0.000 OA
ATOM     13  C   UNL     1       7.209   7.506  17.354  0.00  0.00    +0.000 C 
ENDBRANCH  11  12
ENDBRANCH   4   6
BRANCH   1  14
ATOM     14  S   UNL     1       2.371   5.900  20.128  0.00  0.00    +0.000 S 
BRANCH  14  15
ATOM     15  C   UNL     1       1.298   4.423  20.132  0.00  0.00    +0.000 C 
BRANCH  15  16
ATOM     16  C   UNL     1       1.905   3.303  20.958  0.00  0.00    +0.000 C 
ATOM     17  O   UNL     1       2.152   3.362  22.156  0.00  0.00    +0.000 OA
BRANCH  16  18
ATOM     18  O   UNL     1       2.168   2.230  20.156  0.00  0.00    +0.000 OA
BRANCH  18  20
ATOM     19  C   UNL     1       2.646   2.015  17.786  0.00  0.00    +0.000 C 
ATOM     20  C   UNL     1       1.591   2.272  18.842  0.00  0.00    +0.000 C 
ENDBRANCH  18  20
ENDBRANCH  16  18
ENDBRANCH  15  16
ENDBRANCH  14  15
ENDBRANCH   1  14
TORSDOF 7
ENDMDL
MODEL 8
REMARK VINA RESULT:      -6.6      3.512      6.642
REMARK  Name = 
REMARK  9 active torsions:
REMARK  status: ('A' for Active; 'I' for Inactive)
REMARK    1  A    between atoms: C_1  and  C_2
REMARK    2  A    between atoms: C_2  and  O_3
REMARK    3  A    between atoms: O_3  and  C_4
REMARK    4  A    between atoms: C_4  and  C_6
REMARK    5  A    between atoms: C_6  and  S_7
REMARK    6  A    between atoms: S_7  and  C_8
REMARK    7  A    between atoms: C_11  and  C_12
REMARK    8  A    between atoms: C_17  and  O_18
REMARK    9  A    between atoms: O_18  and  C_19
REMARK                            x       y       z     vdW  Elec       q    Type
REMARK                         _______ _______ _______ _____ _____    ______ ____
ROOT
ATOM      1  C   UNL     1       2.672   6.452  19.522  0.00  0.00    +0.000 A 
ATOM      2  N   UNL     1       2.494   7.552  18.822  0.00  0.00    +0.000 NA
ATOM      3  N   UNL     1       3.343   7.470  17.745  0.00  0.00    +0.000 NA
ATOM      4  C   UNL     1       4.028   6.352  17.877  0.00  0.00    +0.000 A 
ATOM      5  O   UNL     1       3.656   5.659  19.006  0.00  0.00    +0.000 OA
ENDROOT
BRANCH   4   6
ATOM      6  C   UNL     1       5.006   5.700  17.008  0.00  0.00    +0.000 A 
ATOM      7  C   UNL     1       4.670   4.392  16.571  0.00  0.00    +0.000 A 
ATOM      8  C   UNL     1       5.495   3.646  15.728  0.00  0.00    +0.000 A 
ATOM      9  C   UNL     1       6.689   4.192  15.291  0.00  0.00    +0.000 A 
ATOM     10  C   UNL     1       7.036   5.478  15.699  0.00  0.00    +0.000 A 
ATOM     11  C   UNL     1       6.218   6.249  16.553  0.00  0.00    +0.000 A 
BRANCH  11  12
ATOM     12  O   UNL     1       6.827   7.449  16.788  0.00  0.00    +0.000 OA
ATOM     13  C   UNL     1       7.740   7.643  17.848  0.00  0.00    +0.000 C 
ENDBRANCH  11  12
ENDBRANCH   4   6
BRANCH   1  14
ATOM     14  S   UNL     1       1.667   5.985  20.862  0.00  0.00    +0.000 S 
BRANCH  14  15
ATOM     15  C   UNL     1       1.113   4.359  20.243  0.00  0.00    +0.000 C 
BRANCH  15  16
ATOM     16  C   UNL     1       1.780   3.224  20.999  0.00  0.00    +0.000 C 
ATOM     17  O   UNL     1       2.163   3.277  22.160  0.00  0.00    +0.000 OA
BRANCH  16  18
ATOM     18  O   UNL     1       1.923   2.145  20.176  0.00  0.00    +0.000 OA
BRANCH  18  20
ATOM     19  C   UNL     1       2.451   2.008  17.811  0.00  0.00    +0.000 C 
ATOM     20  C   UNL     1       1.387   2.290  18.852  0.00  0.00    +0.000 C 
ENDBRANCH  18  20
ENDBRANCH  16  18
ENDBRANCH  15  16
ENDBRANCH  14  15
ENDBRANCH   1  14
TORSDOF 7
ENDMDL
MODEL 9
REMARK VINA RESULT:      -6.5      1.797      2.824
REMARK  Name = 
REMARK  9 active torsions:
REMARK  status: ('A' for Active; 'I' for Inactive)
REMARK    1  A    between atoms: C_1  and  C_2
REMARK    2  A    between atoms: C_2  and  O_3
REMARK    3  A    between atoms: O_3  and  C_4
REMARK    4  A    between atoms: C_4  and  C_6
REMARK    5  A    between atoms: C_6  and  S_7
REMARK    6  A    between atoms: S_7  and  C_8
REMARK    7  A    between atoms: C_11  and  C_12
REMARK    8  A    between atoms: C_17  and  O_18
REMARK    9  A    between atoms: O_18  and  C_19
REMARK                            x       y       z     vdW  Elec       q    Type
REMARK                         _______ _______ _______ _____ _____    ______ ____
ROOT
ATOM      1  C   UNL     1       6.005   5.572  18.506  0.00  0.00    +0.000 A 
ATOM      2  N   UNL     1       6.596   4.516  19.022  0.00  0.00    +0.000 NA
ATOM      3  N   UNL     1       5.594   3.682  19.456  0.00  0.00    +0.000 NA
ATOM      4  C   UNL     1       4.453   4.300  19.231  0.00  0.00    +0.000 A 
ATOM      5  O   UNL     1       4.647   5.526  18.636  0.00  0.00    +0.000 OA
ENDROOT
BRANCH   4   6
ATOM      6  C   UNL     1       3.064   3.877  19.407  0.00  0.00    +0.000 A 
ATOM      7  C   UNL     1       2.696   2.676  18.747  0.00  0.00    +0.000 A 
ATOM      8  C   UNL     1       1.411   2.136  18.830  0.00  0.00    +0.000 A 
ATOM      9  C   UNL     1       0.450   2.786  19.584  0.00  0.00    +0.000 A 
ATOM     10  C   UNL     1       0.791   3.962  20.248  0.00  0.00    +0.000 A 
ATOM     11  C   UNL     1       2.083   4.527  20.177  0.00  0.00    +0.000 A 
BRANCH  11  12
ATOM     12  O   UNL     1       2.106   5.678  20.911  0.00  0.00    +0.000 OA
ATOM     13  C   UNL     1       1.809   6.942  20.353  0.00  0.00    +0.000 C 
ENDBRANCH  11  12
ENDBRANCH   4   6
BRANCH   1  14
ATOM     14  S   UNL     1       6.842   6.815  17.623  0.00  0.00    +0.000 S 
BRANCH  14  15
ATOM     15  C   UNL     1       6.229   6.429  15.948  0.00  0.00    +0.000 C 
BRANCH  15  16
ATOM     16  C   UNL     1       6.987   5.264  15.337  0.00  0.00    +0.000 C 
ATOM     17  O   UNL     1       7.835   4.594  15.912  0.00  0.00    +0.000 OA
BRANCH  16  18
ATOM     18  O   UNL     1       6.606   5.098  14.038  0.00  0.00    +0.000 OA
BRANCH  18  20
ATOM     19  C   UNL     1       6.433   3.500  12.218  0.00  0.00    +0.000 C 
ATOM     20  C   UNL     1       6.153   3.784  13.680  0.00  0.00    +0.000 C 
ENDBRANCH  18  20
ENDBRANCH  16  18
ENDBRANCH  15  16
ENDBRANCH  14  15
ENDBRANCH   1  14
TORSDOF 7
ENDMDL
