MODEL 1
REMARK VINA RESULT:      -7.9      0.000      0.000
REMARK  Name = 
REMARK  13 active torsions:
REMARK  status: ('A' for Active; 'I' for Inactive)
REMARK    1  A    between atoms: C_4  and  C_5
REMARK    2  A    between atoms: C_8  and  O_9
REMARK    3  A    between atoms: C_10  and  O_11
REMARK    4  A    between atoms: C_16  and  O_17
REMARK    5  A    between atoms: O_17  and  C_18
REMARK    6  A    between atoms: C_18  and  C_19
REMARK    7  A    between atoms: C_19  and  C_20
REMARK    8  A    between atoms: C_20  and  C_21
REMARK    9  A    between atoms: C_21  and  C_22
REMARK   10  A    between atoms: C_22  and  C_23
REMARK   11  A    between atoms: C_23  and  O_24
REMARK   12  A    between atoms: O_24  and  N_25
REMARK   13  A    between atoms: C_29  and  O_30
REMARK                            x       y       z     vdW  Elec       q    Type
REMARK                         _______ _______ _______ _____ _____    ______ ____
ROOT
ATOM      1  O   UNL     1       2.161   9.632  17.299  0.00  0.00    +0.000 OA
ATOM      2  C   UNL     1       1.981   8.968  18.314  0.00  0.00    +0.000 A 
ATOM      3  C   UNL     1       2.613   7.654  18.410  0.00  0.00    +0.000 A 
ATOM      4  C   UNL     1       2.438   6.907  19.507  0.00  0.00    +0.000 A 
ATOM      5  O   UNL     1       1.674   7.297  20.599  0.00  0.00    +0.000 OA
ATOM      6  C   UNL     1       1.065   8.530  20.561  0.00  0.00    +0.000 A 
ATOM      7  C   UNL     1       0.316   8.899  21.685  0.00  0.00    +0.000 A 
ATOM      8  C   UNL     1      -0.362  10.122  21.710  0.00  0.00    +0.000 A 
ATOM      9  C   UNL     1      -0.269  10.980  20.611  0.00  0.00    +0.000 A 
ATOM     10  C   UNL     1       0.486  10.616  19.493  0.00  0.00    +0.000 A 
ATOM     11  C   UNL     1       1.161   9.394  19.464  0.00  0.00    +0.000 A 
ENDROOT
BRANCH   4  12
ATOM     12  C   UNL     1       3.067   5.576  19.617  0.00  0.00    +0.000 A 
ATOM     13  C   UNL     1       2.403   4.517  20.261  0.00  0.00    +0.000 A 
ATOM     14  C   UNL     1       3.003   3.260  20.385  0.00  0.00    +0.000 A 
ATOM     15  C   UNL     1       4.272   3.059  19.858  0.00  0.00    +0.000 A 
ATOM     16  C   UNL     1       4.939   4.096  19.216  0.00  0.00    +0.000 A 
ATOM     17  C   UNL     1       4.352   5.346  19.095  0.00  0.00    +0.000 A 
BRANCH  15  18
ATOM     18  O   UNL     1       4.915   1.857  19.955  0.00  0.00    +0.000 OA
ATOM     19  H   UNL     1       4.261   1.152  19.806  0.00  0.00    +0.000 HD
ENDBRANCH  15  18
BRANCH  16  20
ATOM     20  O   UNL     1       6.187   3.897  18.702  0.00  0.00    +0.000 OA
ATOM     21  H   UNL     1       6.053   3.875  17.733  0.00  0.00    +0.000 HD
ENDBRANCH  16  20
ENDBRANCH   4  12
BRANCH  10  22
ATOM     22  O   UNL     1       0.548  11.473  18.435  0.00  0.00    +0.000 OA
ATOM     23  H   UNL     1       1.301  11.269  17.863  0.00  0.00    +0.000 HD
ENDBRANCH  10  22
BRANCH   8  24
ATOM     24  O   UNL     1      -1.055  10.402  22.861  0.00  0.00    +0.000 OA
BRANCH  24  25
ATOM     25  C   UNL     1      -1.310  11.791  23.094  0.00  0.00    +0.000 C 
BRANCH  25  26
ATOM     26  C   UNL     1      -2.817  12.034  23.142  0.00  0.00    +0.000 C 
BRANCH  26  27
ATOM     27  C   UNL     1      -3.131  13.346  23.863  0.00  0.00    +0.000 C 
BRANCH  27  28
ATOM     28  C   UNL     1      -4.594  13.749  23.681  0.00  0.00    +0.000 C 
BRANCH  28  29
ATOM     29  C   UNL     1      -5.532  12.662  24.199  0.00  0.00    +0.000 C 
BRANCH  29  30
ATOM     30  C   UNL     1      -6.993  13.105  24.156  0.00  0.00    +0.000 C 
BRANCH  30  31
ATOM     31  O   UNL     1      -7.777  11.961  23.829  0.00  0.00    +0.000 OA
BRANCH  31  32
ATOM     32  N   UNL     1      -7.842  11.723  22.435  0.00  0.00    +0.000 N 
ATOM     33  O   UNL     1      -7.883  12.708  21.696  0.00  0.00    +0.000 OA
ATOM     34  O   UNL     1      -7.849  10.525  22.157  0.00  0.00    +0.000 OA
ENDBRANCH  31  32
ENDBRANCH  30  31
ENDBRANCH  29  30
ENDBRANCH  28  29
ENDBRANCH  27  28
ENDBRANCH  26  27
ENDBRANCH  25  26
ENDBRANCH  24  25
ENDBRANCH   8  24
TORSDOF 13
ENDMDL
MODEL 2
REMARK VINA RESULT:      -7.8      2.035      2.463
REMARK  Name = 
REMARK  13 active torsions:
REMARK  status: ('A' for Active; 'I' for Inactive)
REMARK    1  A    between atoms: C_4  and  C_5
REMARK    2  A    between atoms: C_8  and  O_9
REMARK    3  A    between atoms: C_10  and  O_11
REMARK    4  A    between atoms: C_16  and  O_17
REMARK    5  A    between atoms: O_17  and  C_18
REMARK    6  A    between atoms: C_18  and  C_19
REMARK    7  A    between atoms: C_19  and  C_20
REMARK    8  A    between atoms: C_20  and  C_21
REMARK    9  A    between atoms: C_21  and  C_22
REMARK   10  A    between atoms: C_22  and  C_23
REMARK   11  A    between atoms: C_23  and  O_24
REMARK   12  A    between atoms: O_24  and  N_25
REMARK   13  A    between atoms: C_29  and  O_30
REMARK                            x       y       z     vdW  Elec       q    Type
REMARK                         _______ _______ _______ _____ _____    ______ ____
ROOT
ATOM      1  O   UNL     1       1.916   9.400  17.234  0.00  0.00    +0.000 OA
ATOM      2  C   UNL     1       1.894   8.800  18.303  0.00  0.00    +0.000 A 
ATOM      3  C   UNL     1       2.513   7.478  18.374  0.00  0.00    +0.000 A 
ATOM      4  C   UNL     1       2.508   6.800  19.528  0.00  0.00    +0.000 A 
ATOM      5  O   UNL     1       1.939   7.271  20.704  0.00  0.00    +0.000 OA
ATOM      6  C   UNL     1       1.351   8.515  20.691  0.00  0.00    +0.000 A 
ATOM      7  C   UNL     1       0.802   8.966  21.898  0.00  0.00    +0.000 A 
ATOM      8  C   UNL     1       0.157  10.205  21.958  0.00  0.00    +0.000 A 
ATOM      9  C   UNL     1       0.083  10.996  20.810  0.00  0.00    +0.000 A 
ATOM     10  C   UNL     1       0.639  10.550  19.608  0.00  0.00    +0.000 A 
ATOM     11  C   UNL     1       1.280   9.311  19.543  0.00  0.00    +0.000 A 
ENDROOT
BRANCH   4  12
ATOM     12  C   UNL     1       3.125   5.461  19.615  0.00  0.00    +0.000 A 
ATOM     13  C   UNL     1       2.466   4.406  20.270  0.00  0.00    +0.000 A 
ATOM     14  C   UNL     1       3.056   3.142  20.372  0.00  0.00    +0.000 A 
ATOM     15  C   UNL     1       4.308   2.931  19.811  0.00  0.00    +0.000 A 
ATOM     16  C   UNL     1       4.969   3.964  19.158  0.00  0.00    +0.000 A 
ATOM     17  C   UNL     1       4.393   5.220  19.058  0.00  0.00    +0.000 A 
BRANCH  15  18
ATOM     18  O   UNL     1       4.941   1.721  19.885  0.00  0.00    +0.000 OA
ATOM     19  H   UNL     1       5.881   1.885  20.075  0.00  0.00    +0.000 HD
ENDBRANCH  15  18
BRANCH  16  20
ATOM     20  O   UNL     1       6.201   3.754  18.610  0.00  0.00    +0.000 OA
ATOM     21  H   UNL     1       6.344   4.523  18.022  0.00  0.00    +0.000 HD
ENDBRANCH  16  20
ENDBRANCH   4  12
BRANCH  10  22
ATOM     22  O   UNL     1       0.540  11.344  18.504  0.00  0.00    +0.000 OA
ATOM     23  H   UNL     1      -0.369  11.647  18.372  0.00  0.00    +0.000 HD
ENDBRANCH  10  22
BRANCH   8  24
ATOM     24  O   UNL     1      -0.334  10.568  23.188  0.00  0.00    +0.000 OA
BRANCH  24  25
ATOM     25  C   UNL     1      -1.581  11.270  23.162  0.00  0.00    +0.000 C 
BRANCH  25  26
ATOM     26  C   UNL     1      -1.322  12.774  23.184  0.00  0.00    +0.000 C 
BRANCH  26  27
ATOM     27  C   UNL     1      -2.618  13.550  22.941  0.00  0.00    +0.000 C 
BRANCH  27  28
ATOM     28  C   UNL     1      -3.842  12.641  23.039  0.00  0.00    +0.000 C 
BRANCH  28  29
ATOM     29  C   UNL     1      -4.845  12.947  21.929  0.00  0.00    +0.000 C 
BRANCH  29  30
ATOM     30  C   UNL     1      -4.155  13.434  20.658  0.00  0.00    +0.000 C 
BRANCH  30  31
ATOM     31  O   UNL     1      -4.106  12.336  19.751  0.00  0.00    +0.000 OA
BRANCH  31  32
ATOM     32  N   UNL     1      -2.815  12.131  19.209  0.00  0.00    +0.000 N 
ATOM     33  O   UNL     1      -2.637  11.110  18.544  0.00  0.00    +0.000 OA
ATOM     34  O   UNL     1      -2.032  13.036  19.494  0.00  0.00    +0.000 OA
ENDBRANCH  31  32
ENDBRANCH  30  31
ENDBRANCH  29  30
ENDBRANCH  28  29
ENDBRANCH  27  28
ENDBRANCH  26  27
ENDBRANCH  25  26
ENDBRANCH  24  25
ENDBRANCH   8  24
TORSDOF 13
ENDMDL
MODEL 3
REMARK VINA RESULT:      -7.7      1.041      1.600
REMARK  Name = 
REMARK  13 active torsions:
REMARK  status: ('A' for Active; 'I' for Inactive)
REMARK    1  A    between atoms: C_4  and  C_5
REMARK    2  A    between atoms: C_8  and  O_9
REMARK    3  A    between atoms: C_10  and  O_11
REMARK    4  A    between atoms: C_16  and  O_17
REMARK    5  A    between atoms: O_17  and  C_18
REMARK    6  A    between atoms: C_18  and  C_19
REMARK    7  A    between atoms: C_19  and  C_20
REMARK    8  A    between atoms: C_20  and  C_21
REMARK    9  A    between atoms: C_21  and  C_22
REMARK   10  A    between atoms: C_22  and  C_23
REMARK   11  A    between atoms: C_23  and  O_24
REMARK   12  A    between atoms: O_24  and  N_25
REMARK   13  A    between atoms: C_29  and  O_30
REMARK                            x       y       z     vdW  Elec       q    Type
REMARK                         _______ _______ _______ _____ _____    ______ ____
ROOT
ATOM      1  O   UNL     1       1.647   9.460  17.203  0.00  0.00    +0.000 OA
ATOM      2  C   UNL     1       1.684   8.891  18.288  0.00  0.00    +0.000 A 
ATOM      3  C   UNL     1       2.342   7.587  18.370  0.00  0.00    +0.000 A 
ATOM      4  C   UNL     1       2.402   6.943  19.542  0.00  0.00    +0.000 A 
ATOM      5  O   UNL     1       1.868   7.433  20.726  0.00  0.00    +0.000 OA
ATOM      6  C   UNL     1       1.246   8.659  20.703  0.00  0.00    +0.000 A 
ATOM      7  C   UNL     1       0.734   9.130  21.918  0.00  0.00    +0.000 A 
ATOM      8  C   UNL     1       0.057  10.353  21.971  0.00  0.00    +0.000 A 
ATOM      9  C   UNL     1      -0.085  11.109  20.805  0.00  0.00    +0.000 A 
ATOM     10  C   UNL     1       0.435  10.643  19.594  0.00  0.00    +0.000 A 
ATOM     11  C   UNL     1       1.107   9.421  19.537  0.00  0.00    +0.000 A 
ENDROOT
BRANCH   4  12
ATOM     12  C   UNL     1       3.059   5.625  19.639  0.00  0.00    +0.000 A 
ATOM     13  C   UNL     1       4.404   5.461  19.262  0.00  0.00    +0.000 A 
ATOM     14  C   UNL     1       5.025   4.209  19.334  0.00  0.00    +0.000 A 
ATOM     15  C   UNL     1       4.298   3.118  19.790  0.00  0.00    +0.000 A 
ATOM     16  C   UNL     1       2.969   3.266  20.169  0.00  0.00    +0.000 A 
ATOM     17  C   UNL     1       2.347   4.502  20.095  0.00  0.00    +0.000 A 
BRANCH  15  18
ATOM     18  O   UNL     1       4.844   1.867  19.874  0.00  0.00    +0.000 OA
ATOM     19  H   UNL     1       4.247   1.246  19.421  0.00  0.00    +0.000 HD
ENDBRANCH  15  18
BRANCH  16  20
ATOM     20  O   UNL     1       2.257   2.190  20.614  0.00  0.00    +0.000 OA
ATOM     21  H   UNL     1       1.733   1.904  19.839  0.00  0.00    +0.000 HD
ENDBRANCH  16  20
ENDBRANCH   4  12
BRANCH  10  22
ATOM     22  O   UNL     1       0.270  11.402  18.474  0.00  0.00    +0.000 OA
ATOM     23  H   UNL     1      -0.572  11.206  18.040  0.00  0.00    +0.000 HD
ENDBRANCH  10  22
BRANCH   8  24
ATOM     24  O   UNL     1      -0.394  10.738  23.209  0.00  0.00    +0.000 OA
BRANCH  24  25
ATOM     25  C   UNL     1      -1.672  11.381  23.217  0.00  0.00    +0.000 C 
BRANCH  25  26
ATOM     26  C   UNL     1      -1.484  12.890  23.362  0.00  0.00    +0.000 C 
BRANCH  26  27
ATOM     27  C   UNL     1      -2.824  13.617  23.236  0.00  0.00    +0.000 C 
BRANCH  27  28
ATOM     28  C   UNL     1      -3.850  12.774  22.479  0.00  0.00    +0.000 C 
BRANCH  28  29
ATOM     29  C   UNL     1      -4.859  13.657  21.750  0.00  0.00    +0.000 C 
BRANCH  29  30
ATOM     30  C   UNL     1      -6.272  13.480  22.300  0.00  0.00    +0.000 C 
BRANCH  30  31
ATOM     31  O   UNL     1      -6.341  12.183  22.889  0.00  0.00    +0.000 OA
BRANCH  31  32
ATOM     32  N   UNL     1      -7.489  12.010  23.697  0.00  0.00    +0.000 N 
ATOM     33  O   UNL     1      -7.910  13.000  24.298  0.00  0.00    +0.000 OA
ATOM     34  O   UNL     1      -7.912  10.856  23.681  0.00  0.00    +0.000 OA
ENDBRANCH  31  32
ENDBRANCH  30  31
ENDBRANCH  29  30
ENDBRANCH  28  29
ENDBRANCH  27  28
ENDBRANCH  26  27
ENDBRANCH  25  26
ENDBRANCH  24  25
ENDBRANCH   8  24
TORSDOF 13
ENDMDL
MODEL 4
REMARK VINA RESULT:      -7.6      2.579      2.930
REMARK  Name = 
REMARK  13 active torsions:
REMARK  status: ('A' for Active; 'I' for Inactive)
REMARK    1  A    between atoms: C_4  and  C_5
REMARK    2  A    between atoms: C_8  and  O_9
REMARK    3  A    between atoms: C_10  and  O_11
REMARK    4  A    between atoms: C_16  and  O_17
REMARK    5  A    between atoms: O_17  and  C_18
REMARK    6  A    between atoms: C_18  and  C_19
REMARK    7  A    between atoms: C_19  and  C_20
REMARK    8  A    between atoms: C_20  and  C_21
REMARK    9  A    between atoms: C_21  and  C_22
REMARK   10  A    between atoms: C_22  and  C_23
REMARK   11  A    between atoms: C_23  and  O_24
REMARK   12  A    between atoms: O_24  and  N_25
REMARK   13  A    between atoms: C_29  and  O_30
REMARK                            x       y       z     vdW  Elec       q    Type
REMARK                         _______ _______ _______ _____ _____    ______ ____
ROOT
ATOM      1  O   UNL     1       1.820   9.376  17.238  0.00  0.00    +0.000 OA
ATOM      2  C   UNL     1       1.820   8.795  18.317  0.00  0.00    +0.000 A 
ATOM      3  C   UNL     1       2.433   7.470  18.397  0.00  0.00    +0.000 A 
ATOM      4  C   UNL     1       2.453   6.813  19.562  0.00  0.00    +0.000 A 
ATOM      5  O   UNL     1       1.914   7.307  20.743  0.00  0.00    +0.000 OA
ATOM      6  C   UNL     1       1.333   8.554  20.722  0.00  0.00    +0.000 A 
ATOM      7  C   UNL     1       0.815   9.028  21.933  0.00  0.00    +0.000 A 
ATOM      8  C   UNL     1       0.177  10.272  21.988  0.00  0.00    +0.000 A 
ATOM      9  C   UNL     1       0.080  11.044  20.828  0.00  0.00    +0.000 A 
ATOM     10  C   UNL     1       0.606  10.574  19.621  0.00  0.00    +0.000 A 
ATOM     11  C   UNL     1       1.238   9.331  19.562  0.00  0.00    +0.000 A 
ENDROOT
BRANCH   4  12
ATOM     12  C   UNL     1       3.065   5.472  19.657  0.00  0.00    +0.000 A 
ATOM     13  C   UNL     1       2.395   4.420  20.306  0.00  0.00    +0.000 A 
ATOM     14  C   UNL     1       2.979   3.153  20.416  0.00  0.00    +0.000 A 
ATOM     15  C   UNL     1       4.238   2.938  19.870  0.00  0.00    +0.000 A 
ATOM     16  C   UNL     1       4.910   3.969  19.224  0.00  0.00    +0.000 A 
ATOM     17  C   UNL     1       4.338   5.227  19.116  0.00  0.00    +0.000 A 
BRANCH  15  18
ATOM     18  O   UNL     1       4.866   1.727  19.953  0.00  0.00    +0.000 OA
ATOM     19  H   UNL     1       4.374   1.094  19.402  0.00  0.00    +0.000 HD
ENDBRANCH  15  18
BRANCH  16  20
ATOM     20  O   UNL     1       6.148   3.755  18.691  0.00  0.00    +0.000 OA
ATOM     21  H   UNL     1       6.518   4.652  18.559  0.00  0.00    +0.000 HD
ENDBRANCH  16  20
ENDBRANCH   4  12
BRANCH  10  22
ATOM     22  O   UNL     1       0.484  11.349  18.506  0.00  0.00    +0.000 OA
ATOM     23  H   UNL     1       1.029  11.009  17.783  0.00  0.00    +0.000 HD
ENDBRANCH  10  22
BRANCH   8  24
ATOM     24  O   UNL     1      -0.282  10.659  23.222  0.00  0.00    +0.000 OA
BRANCH  24  25
ATOM     25  C   UNL     1      -1.661  11.040  23.266  0.00  0.00    +0.000 C 
BRANCH  25  26
ATOM     26  C   UNL     1      -1.816  12.461  22.730  0.00  0.00    +0.000 C 
BRANCH  26  27
ATOM     27  C   UNL     1      -3.246  12.703  22.242  0.00  0.00    +0.000 C 
BRANCH  27  28
ATOM     28  C   UNL     1      -3.299  12.873  20.725  0.00  0.00    +0.000 C 
BRANCH  28  29
ATOM     29  C   UNL     1      -4.675  12.503  20.177  0.00  0.00    +0.000 C 
BRANCH  29  30
ATOM     30  C   UNL     1      -4.597  12.003  18.737  0.00  0.00    +0.000 C 
BRANCH  30  31
ATOM     31  O   UNL     1      -3.228  11.727  18.454  0.00  0.00    +0.000 OA
BRANCH  31  32
ATOM     32  N   UNL     1      -3.060  10.614  17.597  0.00  0.00    +0.000 N 
ATOM     33  O   UNL     1      -3.701  10.611  16.544  0.00  0.00    +0.000 OA
ATOM     34  O   UNL     1      -2.271   9.784  18.044  0.00  0.00    +0.000 OA
ENDBRANCH  31  32
ENDBRANCH  30  31
ENDBRANCH  29  30
ENDBRANCH  28  29
ENDBRANCH  27  28
ENDBRANCH  26  27
ENDBRANCH  25  26
ENDBRANCH  24  25
ENDBRANCH   8  24
TORSDOF 13
ENDMDL
MODEL 5
REMARK VINA RESULT:      -7.6      0.871      1.119
REMARK  Name = 
REMARK  13 active torsions:
REMARK  status: ('A' for Active; 'I' for Inactive)
REMARK    1  A    between atoms: C_4  and  C_5
REMARK    2  A    between atoms: C_8  and  O_9
REMARK    3  A    between atoms: C_10  and  O_11
REMARK    4  A    between atoms: C_16  and  O_17
REMARK    5  A    between atoms: O_17  and  C_18
REMARK    6  A    between atoms: C_18  and  C_19
REMARK    7  A    between atoms: C_19  and  C_20
REMARK    8  A    between atoms: C_20  and  C_21
REMARK    9  A    between atoms: C_21  and  C_22
REMARK   10  A    between atoms: C_22  and  C_23
REMARK   11  A    between atoms: C_23  and  O_24
REMARK   12  A    between atoms: O_24  and  N_25
REMARK   13  A    between atoms: C_29  and  O_30
REMARK                            x       y       z     vdW  Elec       q    Type
REMARK                         _______ _______ _______ _____ _____    ______ ____
ROOT
ATOM      1  O   UNL     1       1.911   9.397  17.169  0.00  0.00    +0.000 OA
ATOM      2  C   UNL     1       1.895   8.816  18.249  0.00  0.00    +0.000 A 
ATOM      3  C   UNL     1       2.503   7.490  18.337  0.00  0.00    +0.000 A 
ATOM      4  C   UNL     1       2.505   6.834  19.504  0.00  0.00    +0.000 A 
ATOM      5  O   UNL     1       1.954   7.331  20.677  0.00  0.00    +0.000 OA
ATOM      6  C   UNL     1       1.378   8.580  20.648  0.00  0.00    +0.000 A 
ATOM      7  C   UNL     1       0.846   9.058  21.852  0.00  0.00    +0.000 A 
ATOM      8  C   UNL     1       0.213  10.304  21.897  0.00  0.00    +0.000 A 
ATOM      9  C   UNL     1       0.133  11.075  20.735  0.00  0.00    +0.000 A 
ATOM     10  C   UNL     1       0.671  10.602  19.535  0.00  0.00    +0.000 A 
ATOM     11  C   UNL     1       1.300   9.356  19.486  0.00  0.00    +0.000 A 
ENDROOT
BRANCH   4  12
ATOM     12  C   UNL     1       3.111   5.491  19.608  0.00  0.00    +0.000 A 
ATOM     13  C   UNL     1       2.435   4.445  20.261  0.00  0.00    +0.000 A 
ATOM     14  C   UNL     1       3.014   3.177  20.380  0.00  0.00    +0.000 A 
ATOM     15  C   UNL     1       4.273   2.953  19.838  0.00  0.00    +0.000 A 
ATOM     16  C   UNL     1       4.950   3.977  19.187  0.00  0.00    +0.000 A 
ATOM     17  C   UNL     1       4.385   5.237  19.070  0.00  0.00    +0.000 A 
BRANCH  15  18
ATOM     18  O   UNL     1       4.896   1.740  19.929  0.00  0.00    +0.000 OA
ATOM     19  H   UNL     1       4.210   1.053  19.996  0.00  0.00    +0.000 HD
ENDBRANCH  15  18
BRANCH  16  20
ATOM     20  O   UNL     1       6.188   3.755  18.658  0.00  0.00    +0.000 OA
ATOM     21  H   UNL     1       6.455   4.619  18.284  0.00  0.00    +0.000 HD
ENDBRANCH  16  20
ENDBRANCH   4  12
BRANCH  10  22
ATOM     22  O   UNL     1       0.567  11.376  18.418  0.00  0.00    +0.000 OA
ATOM     23  H   UNL     1       1.125  11.037  17.704  0.00  0.00    +0.000 HD
ENDBRANCH  10  22
BRANCH   8  24
ATOM     24  O   UNL     1      -0.261  10.694  23.125  0.00  0.00    +0.000 OA
BRANCH  24  25
ATOM     25  C   UNL     1      -1.641  11.069  23.153  0.00  0.00    +0.000 C 
BRANCH  25  26
ATOM     26  C   UNL     1      -1.757  12.577  23.363  0.00  0.00    +0.000 C 
BRANCH  26  27
ATOM     27  C   UNL     1      -2.440  13.239  22.165  0.00  0.00    +0.000 C 
BRANCH  27  28
ATOM     28  C   UNL     1      -3.397  14.346  22.606  0.00  0.00    +0.000 C 
BRANCH  28  29
ATOM     29  C   UNL     1      -4.101  13.978  23.910  0.00  0.00    +0.000 C 
BRANCH  29  30
ATOM     30  C   UNL     1      -5.576  13.651  23.686  0.00  0.00    +0.000 C 
BRANCH  30  31
ATOM     31  O   UNL     1      -5.636  12.416  22.977  0.00  0.00    +0.000 OA
BRANCH  31  32
ATOM     32  N   UNL     1      -6.494  12.473  21.853  0.00  0.00    +0.000 N 
ATOM     33  O   UNL     1      -6.552  11.472  21.136  0.00  0.00    +0.000 OA
ATOM     34  O   UNL     1      -7.077  13.551  21.754  0.00  0.00    +0.000 OA
ENDBRANCH  31  32
ENDBRANCH  30  31
ENDBRANCH  29  30
ENDBRANCH  28  29
ENDBRANCH  27  28
ENDBRANCH  26  27
ENDBRANCH  25  26
ENDBRANCH  24  25
ENDBRANCH   8  24
TORSDOF 13
ENDMDL
MODEL 6
REMARK VINA RESULT:      -7.4      1.207      1.438
REMARK  Name = 
REMARK  13 active torsions:
REMARK  status: ('A' for Active; 'I' for Inactive)
REMARK    1  A    between atoms: C_4  and  C_5
REMARK    2  A    between atoms: C_8  and  O_9
REMARK    3  A    between atoms: C_10  and  O_11
REMARK    4  A    between atoms: C_16  and  O_17
REMARK    5  A    between atoms: O_17  and  C_18
REMARK    6  A    between atoms: C_18  and  C_19
REMARK    7  A    between atoms: C_19  and  C_20
REMARK    8  A    between atoms: C_20  and  C_21
REMARK    9  A    between atoms: C_21  and  C_22
REMARK   10  A    between atoms: C_22  and  C_23
REMARK   11  A    between atoms: C_23  and  O_24
REMARK   12  A    between atoms: O_24  and  N_25
REMARK   13  A    between atoms: C_29  and  O_30
REMARK                            x       y       z     vdW  Elec       q    Type
REMARK                         _______ _______ _______ _____ _____    ______ ____
ROOT
ATOM      1  O   UNL     1       1.891   9.381  17.181  0.00  0.00    +0.000 OA
ATOM      2  C   UNL     1       1.873   8.801  18.261  0.00  0.00    +0.000 A 
ATOM      3  C   UNL     1       2.491   7.479  18.354  0.00  0.00    +0.000 A 
ATOM      4  C   UNL     1       2.491   6.823  19.520  0.00  0.00    +0.000 A 
ATOM      5  O   UNL     1       1.928   7.316  20.690  0.00  0.00    +0.000 OA
ATOM      6  C   UNL     1       1.343   8.561  20.656  0.00  0.00    +0.000 A 
ATOM      7  C   UNL     1       0.800   9.035  21.857  0.00  0.00    +0.000 A 
ATOM      8  C   UNL     1       0.157  10.276  21.898  0.00  0.00    +0.000 A 
ATOM      9  C   UNL     1       0.078  11.046  20.735  0.00  0.00    +0.000 A 
ATOM     10  C   UNL     1       0.628  10.577  19.539  0.00  0.00    +0.000 A 
ATOM     11  C   UNL     1       1.266   9.336  19.494  0.00  0.00    +0.000 A 
ENDROOT
BRANCH   4  12
ATOM     12  C   UNL     1       3.106   5.485  19.628  0.00  0.00    +0.000 A 
ATOM     13  C   UNL     1       2.437   4.436  20.283  0.00  0.00    +0.000 A 
ATOM     14  C   UNL     1       3.025   3.172  20.406  0.00  0.00    +0.000 A 
ATOM     15  C   UNL     1       4.286   2.956  19.866  0.00  0.00    +0.000 A 
ATOM     16  C   UNL     1       4.957   3.984  19.214  0.00  0.00    +0.000 A 
ATOM     17  C   UNL     1       4.383   5.239  19.094  0.00  0.00    +0.000 A 
BRANCH  15  18
ATOM     18  O   UNL     1       4.918   1.748  19.962  0.00  0.00    +0.000 OA
ATOM     19  H   UNL     1       4.240   1.064  20.099  0.00  0.00    +0.000 HD
ENDBRANCH  15  18
BRANCH  16  20
ATOM     20  O   UNL     1       6.198   3.769  18.687  0.00  0.00    +0.000 OA
ATOM     21  H   UNL     1       6.680   4.606  18.843  0.00  0.00    +0.000 HD
ENDBRANCH  16  20
ENDBRANCH   4  12
BRANCH  10  22
ATOM     22  O   UNL     1       0.525  11.350  18.421  0.00  0.00    +0.000 OA
ATOM     23  H   UNL     1      -0.400  11.553  18.221  0.00  0.00    +0.000 HD
ENDBRANCH  10  22
BRANCH   8  24
ATOM     24  O   UNL     1      -0.327  10.663  23.123  0.00  0.00    +0.000 OA
BRANCH  24  25
ATOM     25  C   UNL     1      -1.619  11.280  23.099  0.00  0.00    +0.000 C 
BRANCH  25  26
ATOM     26  C   UNL     1      -1.468  12.788  23.282  0.00  0.00    +0.000 C 
BRANCH  26  27
ATOM     27  C   UNL     1      -2.835  13.475  23.262  0.00  0.00    +0.000 C 
BRANCH  27  28
ATOM     28  C   UNL     1      -3.530  13.379  24.619  0.00  0.00    +0.000 C 
BRANCH  28  29
ATOM     29  C   UNL     1      -4.828  12.582  24.518  0.00  0.00    +0.000 C 
BRANCH  29  30
ATOM     30  C   UNL     1      -5.647  12.983  23.293  0.00  0.00    +0.000 C 
BRANCH  30  31
ATOM     31  O   UNL     1      -6.805  13.669  23.759  0.00  0.00    +0.000 OA
BRANCH  31  32
ATOM     32  N   UNL     1      -6.906  14.983  23.244  0.00  0.00    +0.000 N 
ATOM     33  O   UNL     1      -6.496  15.901  23.955  0.00  0.00    +0.000 OA
ATOM     34  O   UNL     1      -7.407  15.016  22.121  0.00  0.00    +0.000 OA
ENDBRANCH  31  32
ENDBRANCH  30  31
ENDBRANCH  29  30
ENDBRANCH  28  29
ENDBRANCH  27  28
ENDBRANCH  26  27
ENDBRANCH  25  26
ENDBRANCH  24  25
ENDBRANCH   8  24
TORSDOF 13
ENDMDL
MODEL 7
REMARK VINA RESULT:      -7.4      4.905     10.899
REMARK  Name = 
REMARK  13 active torsions:
REMARK  status: ('A' for Active; 'I' for Inactive)
REMARK    1  A    between atoms: C_4  and  C_5
REMARK    2  A    between atoms: C_8  and  O_9
REMARK    3  A    between atoms: C_10  and  O_11
REMARK    4  A    between atoms: C_16  and  O_17
REMARK    5  A    between atoms: O_17  and  C_18
REMARK    6  A    between atoms: C_18  and  C_19
REMARK    7  A    between atoms: C_19  and  C_20
REMARK    8  A    between atoms: C_20  and  C_21
REMARK    9  A    between atoms: C_21  and  C_22
REMARK   10  A    between atoms: C_22  and  C_23
REMARK   11  A    between atoms: C_23  and  O_24
REMARK   12  A    between atoms: O_24  and  N_25
REMARK   13  A    between atoms: C_29  and  O_30
REMARK                            x       y       z     vdW  Elec       q    Type
REMARK                         _______ _______ _______ _____ _____    ______ ____
ROOT
ATOM      1  O   UNL     1       2.069   3.642  21.473  0.00  0.00    +0.000 OA
ATOM      2  C   UNL     1       2.233   4.556  20.672  0.00  0.00    +0.000 A 
ATOM      3  C   UNL     1       1.716   5.881  21.009  0.00  0.00    +0.000 A 
ATOM      4  C   UNL     1       1.883   6.899  20.157  0.00  0.00    +0.000 A 
ATOM      5  O   UNL     1       2.530   6.790  18.934  0.00  0.00    +0.000 OA
ATOM      6  C   UNL     1       3.043   5.565  18.574  0.00  0.00    +0.000 A 
ATOM      7  C   UNL     1       3.703   5.495  17.341  0.00  0.00    +0.000 A 
ATOM      8  C   UNL     1       4.222   4.278  16.889  0.00  0.00    +0.000 A 
ATOM      9  C   UNL     1       4.093   3.138  17.686  0.00  0.00    +0.000 A 
ATOM     10  C   UNL     1       3.441   3.211  18.920  0.00  0.00    +0.000 A 
ATOM     11  C   UNL     1       2.918   4.423  19.373  0.00  0.00    +0.000 A 
ENDROOT
BRANCH   4  12
ATOM     12  C   UNL     1       1.362   8.242  20.482  0.00  0.00    +0.000 A 
ATOM     13  C   UNL     1       0.975   8.566  21.794  0.00  0.00    +0.000 A 
ATOM     14  C   UNL     1       0.462   9.830  22.102  0.00  0.00    +0.000 A 
ATOM     15  C   UNL     1       0.341  10.777  21.093  0.00  0.00    +0.000 A 
ATOM     16  C   UNL     1       0.723  10.472  19.792  0.00  0.00    +0.000 A 
ATOM     17  C   UNL     1       1.227   9.219  19.480  0.00  0.00    +0.000 A 
BRANCH  15  18
ATOM     18  O   UNL     1      -0.162  12.026  21.328  0.00  0.00    +0.000 OA
ATOM     19  H   UNL     1       0.585  12.649  21.365  0.00  0.00    +0.000 HD
ENDBRANCH  15  18
BRANCH  16  20
ATOM     20  O   UNL     1       0.601  11.403  18.803  0.00  0.00    +0.000 OA
ATOM     21  H   UNL     1       0.187  12.175  19.241  0.00  0.00    +0.000 HD
ENDBRANCH  16  20
ENDBRANCH   4  12
BRANCH  10  22
ATOM     22  O   UNL     1       3.324   2.077  19.668  0.00  0.00    +0.000 OA
ATOM     23  H   UNL     1       2.968   2.273  20.546  0.00  0.00    +0.000 HD
ENDBRANCH  10  22
BRANCH   8  24
ATOM     24  O   UNL     1       4.868   4.312  15.678  0.00  0.00    +0.000 OA
BRANCH  24  25
ATOM     25  C   UNL     1       6.207   3.808  15.688  0.00  0.00    +0.000 C 
BRANCH  25  26
ATOM     26  C   UNL     1       7.181   4.950  15.967  0.00  0.00    +0.000 C 
BRANCH  26  27
ATOM     27  C   UNL     1       7.535   5.008  17.455  0.00  0.00    +0.000 C 
BRANCH  27  28
ATOM     28  C   UNL     1       6.992   6.276  18.111  0.00  0.00    +0.000 C 
BRANCH  28  29
ATOM     29  C   UNL     1       8.124   7.227  18.493  0.00  0.00    +0.000 C 
BRANCH  29  30
ATOM     30  C   UNL     1       8.231   8.401  17.524  0.00  0.00    +0.000 C 
BRANCH  30  31
ATOM     31  O   UNL     1       7.921   9.586  18.253  0.00  0.00    +0.000 OA
BRANCH  31  32
ATOM     32  N   UNL     1       9.075  10.293  18.664  0.00  0.00    +0.000 N 
ATOM     33  O   UNL     1       9.393  10.213  19.852  0.00  0.00    +0.000 OA
ATOM     34  O   UNL     1       9.611  10.906  17.742  0.00  0.00    +0.000 OA
ENDBRANCH  31  32
ENDBRANCH  30  31
ENDBRANCH  29  30
ENDBRANCH  28  29
ENDBRANCH  27  28
ENDBRANCH  26  27
ENDBRANCH  25  26
ENDBRANCH  24  25
ENDBRANCH   8  24
TORSDOF 13
ENDMDL
MODEL 8
REMARK VINA RESULT:      -7.3      3.789     10.307
REMARK  Name = 
REMARK  13 active torsions:
REMARK  status: ('A' for Active; 'I' for Inactive)
REMARK    1  A    between atoms: C_4  and  C_5
REMARK    2  A    between atoms: C_8  and  O_9
REMARK    3  A    between atoms: C_10  and  O_11
REMARK    4  A    between atoms: C_16  and  O_17
REMARK    5  A    between atoms: O_17  and  C_18
REMARK    6  A    between atoms: C_18  and  C_19
REMARK    7  A    between atoms: C_19  and  C_20
REMARK    8  A    between atoms: C_20  and  C_21
REMARK    9  A    between atoms: C_21  and  C_22
REMARK   10  A    between atoms: C_22  and  C_23
REMARK   11  A    between atoms: C_23  and  O_24
REMARK   12  A    between atoms: O_24  and  N_25
REMARK   13  A    between atoms: C_29  and  O_30
REMARK                            x       y       z     vdW  Elec       q    Type
REMARK                         _______ _______ _______ _____ _____    ______ ____
ROOT
ATOM      1  O   UNL     1       2.162  10.097  17.434  0.00  0.00    +0.000 OA
ATOM      2  C   UNL     1       1.642   9.704  18.473  0.00  0.00    +0.000 A 
ATOM      3  C   UNL     1       0.713  10.594  19.168  0.00  0.00    +0.000 A 
ATOM      4  C   UNL     1       0.127  10.192  20.302  0.00  0.00    +0.000 A 
ATOM      5  O   UNL     1       0.341   8.953  20.891  0.00  0.00    +0.000 OA
ATOM      6  C   UNL     1       1.200   8.076  20.270  0.00  0.00    +0.000 A 
ATOM      7  C   UNL     1       1.380   6.830  20.883  0.00  0.00    +0.000 A 
ATOM      8  C   UNL     1       2.264   5.895  20.332  0.00  0.00    +0.000 A 
ATOM      9  C   UNL     1       2.948   6.210  19.156  0.00  0.00    +0.000 A 
ATOM     10  C   UNL     1       2.762   7.450  18.540  0.00  0.00    +0.000 A 
ATOM     11  C   UNL     1       1.884   8.387  19.090  0.00  0.00    +0.000 A 
ENDROOT
BRANCH   4  12
ATOM     12  C   UNL     1      -0.810  11.081  21.018  0.00  0.00    +0.000 A 
ATOM     13  C   UNL     1      -0.940  11.013  22.416  0.00  0.00    +0.000 A 
ATOM     14  C   UNL     1      -1.841  11.839  23.097  0.00  0.00    +0.000 A 
ATOM     15  C   UNL     1      -2.611  12.741  22.375  0.00  0.00    +0.000 A 
ATOM     16  C   UNL     1      -2.491  12.820  20.993  0.00  0.00    +0.000 A 
ATOM     17  C   UNL     1      -1.604  12.001  20.312  0.00  0.00    +0.000 A 
BRANCH  15  18
ATOM     18  O   UNL     1      -3.516  13.568  22.980  0.00  0.00    +0.000 OA
ATOM     19  H   UNL     1      -4.384  13.421  22.565  0.00  0.00    +0.000 HD
ENDBRANCH  15  18
BRANCH  16  20
ATOM     20  O   UNL     1      -3.252  13.705  20.286  0.00  0.00    +0.000 OA
ATOM     21  H   UNL     1      -3.229  13.371  19.366  0.00  0.00    +0.000 HD
ENDBRANCH  16  20
ENDBRANCH   4  12
BRANCH  10  22
ATOM     22  O   UNL     1       3.454   7.727  17.399  0.00  0.00    +0.000 OA
ATOM     23  H   UNL     1       3.444   6.974  16.793  0.00  0.00    +0.000 HD
ENDBRANCH  10  22
BRANCH   8  24
ATOM     24  O   UNL     1       2.360   4.696  20.993  0.00  0.00    +0.000 OA
BRANCH  24  25
ATOM     25  C   UNL     1       1.255   3.807  20.804  0.00  0.00    +0.000 C 
BRANCH  25  26
ATOM     26  C   UNL     1       1.232   3.323  19.356  0.00  0.00    +0.000 C 
BRANCH  26  27
ATOM     27  C   UNL     1       2.135   2.101  19.178  0.00  0.00    +0.000 C 
BRANCH  27  28
ATOM     28  C   UNL     1       3.484   2.484  18.572  0.00  0.00    +0.000 C 
BRANCH  28  29
ATOM     29  C   UNL     1       3.302   3.273  17.278  0.00  0.00    +0.000 C 
BRANCH  29  30
ATOM     30  C   UNL     1       4.642   3.660  16.655  0.00  0.00    +0.000 C 
BRANCH  30  31
ATOM     31  O   UNL     1       4.706   5.083  16.630  0.00  0.00    +0.000 OA
BRANCH  31  32
ATOM     32  N   UNL     1       5.390   5.579  15.495  0.00  0.00    +0.000 N 
ATOM     33  O   UNL     1       6.094   4.785  14.869  0.00  0.00    +0.000 OA
ATOM     34  O   UNL     1       5.175   6.773  15.294  0.00  0.00    +0.000 OA
ENDBRANCH  31  32
ENDBRANCH  30  31
ENDBRANCH  29  30
ENDBRANCH  28  29
ENDBRANCH  27  28
ENDBRANCH  26  27
ENDBRANCH  25  26
ENDBRANCH  24  25
ENDBRANCH   8  24
TORSDOF 13
ENDMDL
MODEL 9
REMARK VINA RESULT:      -7.3      1.902      2.151
REMARK  Name = 
REMARK  13 active torsions:
REMARK  status: ('A' for Active; 'I' for Inactive)
REMARK    1  A    between atoms: C_4  and  C_5
REMARK    2  A    between atoms: C_8  and  O_9
REMARK    3  A    between atoms: C_10  and  O_11
REMARK    4  A    between atoms: C_16  and  O_17
REMARK    5  A    between atoms: O_17  and  C_18
REMARK    6  A    between atoms: C_18  and  C_19
REMARK    7  A    between atoms: C_19  and  C_20
REMARK    8  A    between atoms: C_20  and  C_21
REMARK    9  A    between atoms: C_21  and  C_22
REMARK   10  A    between atoms: C_22  and  C_23
REMARK   11  A    between atoms: C_23  and  O_24
REMARK   12  A    between atoms: O_24  and  N_25
REMARK   13  A    between atoms: C_29  and  O_30
REMARK                            x       y       z     vdW  Elec       q    Type
REMARK                         _______ _______ _______ _____ _____    ______ ____
ROOT
ATOM      1  O   UNL     1       2.096   9.505  17.224  0.00  0.00    +0.000 OA
ATOM      2  C   UNL     1       1.947   8.873  18.264  0.00  0.00    +0.000 A 
ATOM      3  C   UNL     1       2.579   7.559  18.379  0.00  0.00    +0.000 A 
ATOM      4  C   UNL     1       2.437   6.847  19.504  0.00  0.00    +0.000 A 
ATOM      5  O   UNL     1       1.710   7.273  20.607  0.00  0.00    +0.000 OA
ATOM      6  C   UNL     1       1.103   8.507  20.551  0.00  0.00    +0.000 A 
ATOM      7  C   UNL     1       0.392   8.911  21.688  0.00  0.00    +0.000 A 
ATOM      8  C   UNL     1      -0.281  10.137  21.697  0.00  0.00    +0.000 A 
ATOM      9  C   UNL     1      -0.221  10.962  20.571  0.00  0.00    +0.000 A 
ATOM     10  C   UNL     1       0.497  10.561  19.441  0.00  0.00    +0.000 A 
ATOM     11  C   UNL     1       1.166   9.336  19.426  0.00  0.00    +0.000 A 
ENDROOT
BRANCH   4  12
ATOM     12  C   UNL     1       3.065   5.517  19.633  0.00  0.00    +0.000 A 
ATOM     13  C   UNL     1       2.413   4.477  20.318  0.00  0.00    +0.000 A 
ATOM     14  C   UNL     1       3.013   3.221  20.461  0.00  0.00    +0.000 A 
ATOM     15  C   UNL     1       4.269   3.004  19.911  0.00  0.00    +0.000 A 
ATOM     16  C   UNL     1       4.924   4.023  19.229  0.00  0.00    +0.000 A 
ATOM     17  C   UNL     1       4.337   5.270  19.088  0.00  0.00    +0.000 A 
BRANCH  15  18
ATOM     18  O   UNL     1       4.912   1.803  20.025  0.00  0.00    +0.000 OA
ATOM     19  H   UNL     1       5.682   1.816  19.429  0.00  0.00    +0.000 HD
ENDBRANCH  15  18
BRANCH  16  20
ATOM     20  O   UNL     1       6.160   3.807  18.692  0.00  0.00    +0.000 OA
ATOM     21  H   UNL     1       6.281   2.837  18.735  0.00  0.00    +0.000 HD
ENDBRANCH  16  20
ENDBRANCH   4  12
BRANCH  10  22
ATOM     22  O   UNL     1       0.526  11.386  18.356  0.00  0.00    +0.000 OA
ATOM     23  H   UNL     1       1.241  12.035  18.429  0.00  0.00    +0.000 HD
ENDBRANCH  10  22
BRANCH   8  24
ATOM     24  O   UNL     1      -0.936  10.455  22.861  0.00  0.00    +0.000 OA
BRANCH  24  25
ATOM     25  C   UNL     1      -1.202  11.848  23.048  0.00  0.00    +0.000 C 
BRANCH  25  26
ATOM     26  C   UNL     1      -2.711  12.081  23.078  0.00  0.00    +0.000 C 
BRANCH  26  27
ATOM     27  C   UNL     1      -3.204  12.610  21.729  0.00  0.00    +0.000 C 
BRANCH  27  28
ATOM     28  C   UNL     1      -4.661  13.065  21.805  0.00  0.00    +0.000 C 
BRANCH  28  29
ATOM     29  C   UNL     1      -5.060  13.842  20.553  0.00  0.00    +0.000 C 
BRANCH  29  30
ATOM     30  C   UNL     1      -6.528  13.623  20.193  0.00  0.00    +0.000 C 
BRANCH  30  31
ATOM     31  O   UNL     1      -6.572  12.643  19.159  0.00  0.00    +0.000 OA
BRANCH  31  32
ATOM     32  N   UNL     1      -6.259  13.177  17.886  0.00  0.00    +0.000 N 
ATOM     33  O   UNL     1      -6.768  14.259  17.588  0.00  0.00    +0.000 OA
ATOM     34  O   UNL     1      -5.499  12.457  17.242  0.00  0.00    +0.000 OA
ENDBRANCH  31  32
ENDBRANCH  30  31
ENDBRANCH  29  30
ENDBRANCH  28  29
ENDBRANCH  27  28
ENDBRANCH  26  27
ENDBRANCH  25  26
ENDBRANCH  24  25
ENDBRANCH   8  24
TORSDOF 13
ENDMDL
