MODEL 1
REMARK VINA RESULT:      -8.6      0.000      0.000
REMARK  Name = 
REMARK  11 active torsions:
REMARK  status: ('A' for Active; 'I' for Inactive)
REMARK    1  A    between atoms: C_1  and  C_2
REMARK    2  A    between atoms: C_5  and  C_6
REMARK    3  A    between atoms: C_14  and  C_15
REMARK    4  A    between atoms: C_15  and  O_16
REMARK    5  A    between atoms: O_16  and  C_17
REMARK    6  A    between atoms: C_20  and  C_21
REMARK    7  A    between atoms: N_23  and  C_24
REMARK    8  A    between atoms: C_24  and  C_25
REMARK    9  A    between atoms: C_24  and  C_26
REMARK   10  A    between atoms: C_24  and  C_27
REMARK   11  A    between atoms: C_27  and  O_28
REMARK                            x       y       z     vdW  Elec       q    Type
REMARK                         _______ _______ _______ _____ _____    ______ ____
ROOT
ATOM      1  O   UNL     1       2.925   6.643  17.740  0.00  0.00    +0.000 OA
ENDROOT
BRANCH   1   2
ATOM      2  C   UNL     1       2.371   7.678  18.462  0.00  0.00    +0.000 A 
ATOM      3  C   UNL     1       2.068   8.845  17.784  0.00  0.00    +0.000 A 
ATOM      4  C   UNL     1       1.485   9.901  18.494  0.00  0.00    +0.000 A 
ATOM      5  C   UNL     1       1.203   9.737  19.854  0.00  0.00    +0.000 A 
ATOM      6  C   UNL     1       1.526   8.515  20.436  0.00  0.00    +0.000 A 
ATOM      7  N   UNL     1       2.096   7.489  19.767  0.00  0.00    +0.000 NA
BRANCH   5   8
ATOM      8  C   UNL     1       0.594  10.762  20.732  0.00  0.00    +0.000 C 
ATOM      9  O   UNL     1       1.247  11.172  21.691  0.00  0.00    +0.000 OA
ATOM     10  N   UNL     1      -0.675  11.217  20.439  0.00  0.00    +0.000 N 
ATOM     11  H   UNL     1      -1.155  10.890  19.616  0.00  0.00    +0.000 HD
BRANCH  10  12
ATOM     12  C   UNL     1      -1.379  12.224  21.266  0.00  0.00    +0.000 C 
ATOM     13  C   UNL     1      -2.729  12.551  20.591  0.00  0.00    +0.000 C 
ATOM     14  C   UNL     1      -1.658  11.674  22.677  0.00  0.00    +0.000 C 
BRANCH  12  15
ATOM     15  C   UNL     1      -0.542  13.525  21.377  0.00  0.00    +0.000 C 
BRANCH  15  16
ATOM     16  O   UNL     1       0.009  13.673  22.688  0.00  0.00    +0.000 OA
ATOM     17  H   UNL     1       0.369  14.575  22.724  0.00  0.00    +0.000 HD
ENDBRANCH  15  16
ENDBRANCH  12  15
ENDBRANCH  10  12
ENDBRANCH   5   8
ENDBRANCH   1   2
BRANCH   1  18
ATOM     18  C   UNL     1       4.275   6.919  17.344  0.00  0.00    +0.000 C 
BRANCH  18  24
ATOM     19  C   UNL     1       7.547   7.338  17.776  0.00  0.00    +0.000 C 
ATOM     20  C   UNL     1       6.636   6.241  18.147  0.00  0.00    +0.000 A 
ATOM     21  O   UNL     1       7.182   5.189  18.805  0.00  0.00    +0.000 OA
ATOM     22  N   UNL     1       6.208   4.254  19.072  0.00  0.00    +0.000 NA
ATOM     23  C   UNL     1       5.065   4.731  18.554  0.00  0.00    +0.000 A 
ATOM     24  C   UNL     1       5.286   6.028  17.979  0.00  0.00    +0.000 A 
BRANCH  23  25
ATOM     25  C   UNL     1       3.825   3.951  18.633  0.00  0.00    +0.000 A 
ATOM     26  C   UNL     1       3.437   3.123  17.565  0.00  0.00    +0.000 A 
ATOM     27  C   UNL     1       2.247   2.389  17.625  0.00  0.00    +0.000 A 
ATOM     28  C   UNL     1       1.444   2.470  18.756  0.00  0.00    +0.000 A 
ATOM     29  F   UNL     1       0.303   1.771  18.814  0.00  0.00    +0.000 F 
ATOM     30  C   UNL     1       1.814   3.283  19.814  0.00  0.00    +0.000 A 
ATOM     31  F   UNL     1       1.049   3.363  20.911  0.00  0.00    +0.000 F 
ATOM     32  C   UNL     1       2.987   4.027  19.754  0.00  0.00    +0.000 A 
ENDBRANCH  23  25
ENDBRANCH  18  24
ENDBRANCH   1  18
TORSDOF 8
ENDMDL
MODEL 2
REMARK VINA RESULT:      -8.5      1.034      1.262
REMARK  Name = 
REMARK  11 active torsions:
REMARK  status: ('A' for Active; 'I' for Inactive)
REMARK    1  A    between atoms: C_1  and  C_2
REMARK    2  A    between atoms: C_5  and  C_6
REMARK    3  A    between atoms: C_14  and  C_15
REMARK    4  A    between atoms: C_15  and  O_16
REMARK    5  A    between atoms: O_16  and  C_17
REMARK    6  A    between atoms: C_20  and  C_21
REMARK    7  A    between atoms: N_23  and  C_24
REMARK    8  A    between atoms: C_24  and  C_25
REMARK    9  A    between atoms: C_24  and  C_26
REMARK   10  A    between atoms: C_24  and  C_27
REMARK   11  A    between atoms: C_27  and  O_28
REMARK                            x       y       z     vdW  Elec       q    Type
REMARK                         _______ _______ _______ _____ _____    ______ ____
ROOT
ATOM      1  O   UNL     1       3.046   6.661  17.517  0.00  0.00    +0.000 OA
ENDROOT
BRANCH   1   2
ATOM      2  C   UNL     1       2.402   7.672  18.198  0.00  0.00    +0.000 A 
ATOM      3  C   UNL     1       2.163   7.487  19.548  0.00  0.00    +0.000 A 
ATOM      4  C   UNL     1       1.530   8.510  20.263  0.00  0.00    +0.000 A 
ATOM      5  C   UNL     1       1.184   9.693  19.602  0.00  0.00    +0.000 A 
ATOM      6  C   UNL     1       1.490   9.788  18.248  0.00  0.00    +0.000 A 
ATOM      7  N   UNL     1       2.093   8.807  17.542  0.00  0.00    +0.000 NA
BRANCH   5   8
ATOM      8  C   UNL     1       0.510  10.856  20.224  0.00  0.00    +0.000 C 
ATOM      9  O   UNL     1       1.084  11.442  21.142  0.00  0.00    +0.000 OA
ATOM     10  N   UNL     1      -0.728  11.238  19.749  0.00  0.00    +0.000 N 
ATOM     11  H   UNL     1      -1.140  10.761  18.963  0.00  0.00    +0.000 HD
BRANCH  10  12
ATOM     12  C   UNL     1      -1.492  12.372  20.317  0.00  0.00    +0.000 C 
ATOM     13  C   UNL     1      -2.922  12.335  19.735  0.00  0.00    +0.000 C 
ATOM     14  C   UNL     1      -1.585  12.257  21.850  0.00  0.00    +0.000 C 
BRANCH  12  15
ATOM     15  C   UNL     1      -0.829  13.723  19.942  0.00  0.00    +0.000 C 
BRANCH  15  16
ATOM     16  O   UNL     1      -0.773  13.892  18.523  0.00  0.00    +0.000 OA
ATOM     17  H   UNL     1      -1.696  13.900  18.219  0.00  0.00    +0.000 HD
ENDBRANCH  15  16
ENDBRANCH  12  15
ENDBRANCH  10  12
ENDBRANCH   5   8
ENDBRANCH   1   2
BRANCH   1  18
ATOM     18  C   UNL     1       4.425   6.964  17.270  0.00  0.00    +0.000 C 
BRANCH  18  24
ATOM     19  C   UNL     1       7.685   7.301  17.843  0.00  0.00    +0.000 C 
ATOM     20  C   UNL     1       6.725   6.243  18.204  0.00  0.00    +0.000 A 
ATOM     21  O   UNL     1       7.208   5.198  18.918  0.00  0.00    +0.000 OA
ATOM     22  N   UNL     1       6.194   4.300  19.167  0.00  0.00    +0.000 NA
ATOM     23  C   UNL     1       5.091   4.794  18.582  0.00  0.00    +0.000 A 
ATOM     24  C   UNL     1       5.377   6.065  17.979  0.00  0.00    +0.000 A 
BRANCH  23  25
ATOM     25  C   UNL     1       3.826   4.052  18.627  0.00  0.00    +0.000 A 
ATOM     26  C   UNL     1       3.419   3.275  17.529  0.00  0.00    +0.000 A 
ATOM     27  C   UNL     1       2.205   2.578  17.556  0.00  0.00    +0.000 A 
ATOM     28  C   UNL     1       1.397   2.648  18.684  0.00  0.00    +0.000 A 
ATOM     29  F   UNL     1       0.233   1.986  18.711  0.00  0.00    +0.000 F 
ATOM     30  C   UNL     1       1.785   3.412  19.771  0.00  0.00    +0.000 A 
ATOM     31  F   UNL     1       1.015   3.481  20.866  0.00  0.00    +0.000 F 
ATOM     32  C   UNL     1       2.982   4.119  19.744  0.00  0.00    +0.000 A 
ENDBRANCH  23  25
ENDBRANCH  18  24
ENDBRANCH   1  18
TORSDOF 8
ENDMDL
MODEL 3
REMARK VINA RESULT:      -8.5      2.811      4.006
REMARK  Name = 
REMARK  11 active torsions:
REMARK  status: ('A' for Active; 'I' for Inactive)
REMARK    1  A    between atoms: C_1  and  C_2
REMARK    2  A    between atoms: C_5  and  C_6
REMARK    3  A    between atoms: C_14  and  C_15
REMARK    4  A    between atoms: C_15  and  O_16
REMARK    5  A    between atoms: O_16  and  C_17
REMARK    6  A    between atoms: C_20  and  C_21
REMARK    7  A    between atoms: N_23  and  C_24
REMARK    8  A    between atoms: C_24  and  C_25
REMARK    9  A    between atoms: C_24  and  C_26
REMARK   10  A    between atoms: C_24  and  C_27
REMARK   11  A    between atoms: C_27  and  O_28
REMARK                            x       y       z     vdW  Elec       q    Type
REMARK                         _______ _______ _______ _____ _____    ______ ____
ROOT
ATOM      1  O   UNL     1       3.080   6.690  18.573  0.00  0.00    +0.000 OA
ENDROOT
BRANCH   1   2
ATOM      2  C   UNL     1       2.307   7.793  18.863  0.00  0.00    +0.000 A 
ATOM      3  C   UNL     1       1.978   8.641  17.821  0.00  0.00    +0.000 A 
ATOM      4  C   UNL     1       1.176   9.756  18.091  0.00  0.00    +0.000 A 
ATOM      5  C   UNL     1       0.711   9.965  19.393  0.00  0.00    +0.000 A 
ATOM      6  C   UNL     1       1.080   9.040  20.364  0.00  0.00    +0.000 A 
ATOM      7  N   UNL     1       1.860   7.963  20.122  0.00  0.00    +0.000 NA
BRANCH   5   8
ATOM      8  C   UNL     1      -0.139  11.097  19.827  0.00  0.00    +0.000 C 
ATOM      9  O   UNL     1      -0.393  11.983  19.011  0.00  0.00    +0.000 OA
ATOM     10  N   UNL     1      -0.615  11.111  21.122  0.00  0.00    +0.000 N 
ATOM     11  H   UNL     1      -0.424  10.340  21.742  0.00  0.00    +0.000 HD
BRANCH  10  12
ATOM     12  C   UNL     1      -1.454  12.207  21.659  0.00  0.00    +0.000 C 
ATOM     13  C   UNL     1      -2.021  11.762  23.025  0.00  0.00    +0.000 C 
ATOM     14  C   UNL     1      -0.618  13.483  21.868  0.00  0.00    +0.000 C 
BRANCH  12  15
ATOM     15  C   UNL     1      -2.633  12.515  20.699  0.00  0.00    +0.000 C 
BRANCH  15  16
ATOM     16  O   UNL     1      -2.453  13.778  20.052  0.00  0.00    +0.000 OA
ATOM     17  H   UNL     1      -3.289  13.960  19.589  0.00  0.00    +0.000 HD
ENDBRANCH  15  16
ENDBRANCH  12  15
ENDBRANCH  10  12
ENDBRANCH   5   8
ENDBRANCH   1   2
BRANCH   1  18
ATOM     18  C   UNL     1       2.294   5.501  18.419  0.00  0.00    +0.000 C 
BRANCH  18  24
ATOM     19  C   UNL     1       1.321   3.623  20.987  0.00  0.00    +0.000 C 
ATOM     20  C   UNL     1       2.476   3.527  20.077  0.00  0.00    +0.000 A 
ATOM     21  O   UNL     1       3.321   2.485  20.270  0.00  0.00    +0.000 OA
ATOM     22  N   UNL     1       4.344   2.542  19.350  0.00  0.00    +0.000 NA
ATOM     23  C   UNL     1       4.129   3.637  18.604  0.00  0.00    +0.000 A 
ATOM     24  C   UNL     1       2.915   4.285  19.014  0.00  0.00    +0.000 A 
BRANCH  23  25
ATOM     25  C   UNL     1       5.068   4.014  17.542  0.00  0.00    +0.000 A 
ATOM     26  C   UNL     1       6.345   4.506  17.865  0.00  0.00    +0.000 A 
ATOM     27  C   UNL     1       7.241   4.885  16.858  0.00  0.00    +0.000 A 
ATOM     28  C   UNL     1       6.869   4.764  15.525  0.00  0.00    +0.000 A 
ATOM     29  F   UNL     1       7.724   5.130  14.560  0.00  0.00    +0.000 F 
ATOM     30  C   UNL     1       5.614   4.283  15.194  0.00  0.00    +0.000 A 
ATOM     31  F   UNL     1       5.249   4.158  13.911  0.00  0.00    +0.000 F 
ATOM     32  C   UNL     1       4.714   3.921  16.189  0.00  0.00    +0.000 A 
ENDBRANCH  23  25
ENDBRANCH  18  24
ENDBRANCH   1  18
TORSDOF 8
ENDMDL
MODEL 4
REMARK VINA RESULT:      -8.3      2.717      3.889
REMARK  Name = 
REMARK  11 active torsions:
REMARK  status: ('A' for Active; 'I' for Inactive)
REMARK    1  A    between atoms: C_1  and  C_2
REMARK    2  A    between atoms: C_5  and  C_6
REMARK    3  A    between atoms: C_14  and  C_15
REMARK    4  A    between atoms: C_15  and  O_16
REMARK    5  A    between atoms: O_16  and  C_17
REMARK    6  A    between atoms: C_20  and  C_21
REMARK    7  A    between atoms: N_23  and  C_24
REMARK    8  A    between atoms: C_24  and  C_25
REMARK    9  A    between atoms: C_24  and  C_26
REMARK   10  A    between atoms: C_24  and  C_27
REMARK   11  A    between atoms: C_27  and  O_28
REMARK                            x       y       z     vdW  Elec       q    Type
REMARK                         _______ _______ _______ _____ _____    ______ ____
ROOT
ATOM      1  O   UNL     1       3.032   6.699  18.238  0.00  0.00    +0.000 OA
ENDROOT
BRANCH   1   2
ATOM      2  C   UNL     1       2.290   7.716  18.800  0.00  0.00    +0.000 A 
ATOM      3  C   UNL     1       1.829   8.714  17.962  0.00  0.00    +0.000 A 
ATOM      4  C   UNL     1       1.056   9.745  18.509  0.00  0.00    +0.000 A 
ATOM      5  C   UNL     1       0.753   9.722  19.875  0.00  0.00    +0.000 A 
ATOM      6  C   UNL     1       1.247   8.660  20.625  0.00  0.00    +0.000 A 
ATOM      7  N   UNL     1       2.001   7.662  20.114  0.00  0.00    +0.000 NA
BRANCH   5   8
ATOM      8  C   UNL     1      -0.047  10.741  20.592  0.00  0.00    +0.000 C 
ATOM      9  O   UNL     1      -0.639  10.403  21.617  0.00  0.00    +0.000 OA
ATOM     10  N   UNL     1      -0.094  12.024  20.087  0.00  0.00    +0.000 N 
ATOM     11  H   UNL     1       0.446  12.270  19.273  0.00  0.00    +0.000 HD
BRANCH  10  12
ATOM     12  C   UNL     1      -0.881  13.108  20.718  0.00  0.00    +0.000 C 
ATOM     13  C   UNL     1      -0.759  14.373  19.840  0.00  0.00    +0.000 C 
ATOM     14  C   UNL     1      -2.368  12.720  20.813  0.00  0.00    +0.000 C 
BRANCH  12  15
ATOM     15  C   UNL     1      -0.340  13.425  22.136  0.00  0.00    +0.000 C 
BRANCH  15  16
ATOM     16  O   UNL     1      -1.178  12.856  23.146  0.00  0.00    +0.000 OA
ATOM     17  H   UNL     1      -0.741  13.049  23.993  0.00  0.00    +0.000 HD
ENDBRANCH  15  16
ENDBRANCH  12  15
ENDBRANCH  10  12
ENDBRANCH   5   8
ENDBRANCH   1   2
BRANCH   1  18
ATOM     18  C   UNL     1       2.352   5.438  18.291  0.00  0.00    +0.000 C 
BRANCH  18  24
ATOM     19  C   UNL     1       1.647   3.792  21.094  0.00  0.00    +0.000 C 
ATOM     20  C   UNL     1       2.782   3.705  20.159  0.00  0.00    +0.000 A 
ATOM     21  O   UNL     1       3.736   2.785  20.441  0.00  0.00    +0.000 OA
ATOM     22  N   UNL     1       4.724   2.834  19.483  0.00  0.00    +0.000 NA
ATOM     23  C   UNL     1       4.377   3.806  18.624  0.00  0.00    +0.000 A 
ATOM     24  C   UNL     1       3.112   4.371  19.000  0.00  0.00    +0.000 A 
BRANCH  23  25
ATOM     25  C   UNL     1       5.245   4.146  17.490  0.00  0.00    +0.000 A 
ATOM     26  C   UNL     1       6.535   4.657  17.713  0.00  0.00    +0.000 A 
ATOM     27  C   UNL     1       7.363   5.001  16.638  0.00  0.00    +0.000 A 
ATOM     28  C   UNL     1       6.910   4.826  15.336  0.00  0.00    +0.000 A 
ATOM     29  F   UNL     1       7.699   5.158  14.306  0.00  0.00    +0.000 F 
ATOM     30  C   UNL     1       5.640   4.325  15.104  0.00  0.00    +0.000 A 
ATOM     31  F   UNL     1       5.196   4.148  13.852  0.00  0.00    +0.000 F 
ATOM     32  C   UNL     1       4.807   3.997  16.167  0.00  0.00    +0.000 A 
ENDBRANCH  23  25
ENDBRANCH  18  24
ENDBRANCH   1  18
TORSDOF 8
ENDMDL
MODEL 5
REMARK VINA RESULT:      -8.3      0.908      1.310
REMARK  Name = 
REMARK  11 active torsions:
REMARK  status: ('A' for Active; 'I' for Inactive)
REMARK    1  A    between atoms: C_1  and  C_2
REMARK    2  A    between atoms: C_5  and  C_6
REMARK    3  A    between atoms: C_14  and  C_15
REMARK    4  A    between atoms: C_15  and  O_16
REMARK    5  A    between atoms: O_16  and  C_17
REMARK    6  A    between atoms: C_20  and  C_21
REMARK    7  A    between atoms: N_23  and  C_24
REMARK    8  A    between atoms: C_24  and  C_25
REMARK    9  A    between atoms: C_24  and  C_26
REMARK   10  A    between atoms: C_24  and  C_27
REMARK   11  A    between atoms: C_27  and  O_28
REMARK                            x       y       z     vdW  Elec       q    Type
REMARK                         _______ _______ _______ _____ _____    ______ ____
ROOT
ATOM      1  O   UNL     1       3.151   6.646  17.491  0.00  0.00    +0.000 OA
ENDROOT
BRANCH   1   2
ATOM      2  C   UNL     1       2.446   7.607  18.183  0.00  0.00    +0.000 A 
ATOM      3  C   UNL     1       2.205   7.385  19.527  0.00  0.00    +0.000 A 
ATOM      4  C   UNL     1       1.510   8.359  20.253  0.00  0.00    +0.000 A 
ATOM      5  C   UNL     1       1.105   9.533  19.609  0.00  0.00    +0.000 A 
ATOM      6  C   UNL     1       1.418   9.668  18.261  0.00  0.00    +0.000 A 
ATOM      7  N   UNL     1       2.080   8.735  17.543  0.00  0.00    +0.000 NA
BRANCH   5   8
ATOM      8  C   UNL     1       0.361  10.645  20.245  0.00  0.00    +0.000 C 
ATOM      9  O   UNL     1      -0.189  10.437  21.326  0.00  0.00    +0.000 OA
ATOM     10  N   UNL     1       0.319  11.866  19.604  0.00  0.00    +0.000 N 
ATOM     11  H   UNL     1       0.824  12.007  18.744  0.00  0.00    +0.000 HD
BRANCH  10  12
ATOM     12  C   UNL     1      -0.415  13.033  20.146  0.00  0.00    +0.000 C 
ATOM     13  C   UNL     1      -0.246  14.213  19.163  0.00  0.00    +0.000 C 
ATOM     14  C   UNL     1      -1.916  12.720  20.282  0.00  0.00    +0.000 C 
BRANCH  12  15
ATOM     15  C   UNL     1       0.153  13.444  21.529  0.00  0.00    +0.000 C 
BRANCH  15  16
ATOM     16  O   UNL     1      -0.741  13.075  22.583  0.00  0.00    +0.000 OA
ATOM     17  H   UNL     1      -0.823  13.861  23.149  0.00  0.00    +0.000 HD
ENDBRANCH  15  16
ENDBRANCH  12  15
ENDBRANCH  10  12
ENDBRANCH   5   8
ENDBRANCH   1   2
BRANCH   1  18
ATOM     18  C   UNL     1       4.525   7.009  17.303  0.00  0.00    +0.000 C 
BRANCH  18  24
ATOM     19  C   UNL     1       7.796   7.322  17.824  0.00  0.00    +0.000 C 
ATOM     20  C   UNL     1       6.841   6.252  18.163  0.00  0.00    +0.000 A 
ATOM     21  O   UNL     1       7.337   5.180  18.828  0.00  0.00    +0.000 OA
ATOM     22  N   UNL     1       6.327   4.274  19.063  0.00  0.00    +0.000 NA
ATOM     23  C   UNL     1       5.214   4.790  18.519  0.00  0.00    +0.000 A 
ATOM     24  C   UNL     1       5.490   6.083  17.958  0.00  0.00    +0.000 A 
BRANCH  23  25
ATOM     25  C   UNL     1       3.948   4.049  18.561  0.00  0.00    +0.000 A 
ATOM     26  C   UNL     1       3.525   3.303  17.447  0.00  0.00    +0.000 A 
ATOM     27  C   UNL     1       2.310   2.608  17.472  0.00  0.00    +0.000 A 
ATOM     28  C   UNL     1       1.519   2.646  18.613  0.00  0.00    +0.000 A 
ATOM     29  F   UNL     1       0.354   1.984  18.638  0.00  0.00    +0.000 F 
ATOM     30  C   UNL     1       1.924   3.377  19.716  0.00  0.00    +0.000 A 
ATOM     31  F   UNL     1       1.170   3.415  20.824  0.00  0.00    +0.000 F 
ATOM     32  C   UNL     1       3.121   4.084  19.692  0.00  0.00    +0.000 A 
ENDBRANCH  23  25
ENDBRANCH  18  24
ENDBRANCH   1  18
TORSDOF 8
ENDMDL
MODEL 6
REMARK VINA RESULT:      -8.3      2.831      3.913
REMARK  Name = 
REMARK  11 active torsions:
REMARK  status: ('A' for Active; 'I' for Inactive)
REMARK    1  A    between atoms: C_1  and  C_2
REMARK    2  A    between atoms: C_5  and  C_6
REMARK    3  A    between atoms: C_14  and  C_15
REMARK    4  A    between atoms: C_15  and  O_16
REMARK    5  A    between atoms: O_16  and  C_17
REMARK    6  A    between atoms: C_20  and  C_21
REMARK    7  A    between atoms: N_23  and  C_24
REMARK    8  A    between atoms: C_24  and  C_25
REMARK    9  A    between atoms: C_24  and  C_26
REMARK   10  A    between atoms: C_24  and  C_27
REMARK   11  A    between atoms: C_27  and  O_28
REMARK                            x       y       z     vdW  Elec       q    Type
REMARK                         _______ _______ _______ _____ _____    ______ ____
ROOT
ATOM      1  O   UNL     1       2.756   6.296  18.016  0.00  0.00    +0.000 OA
ENDROOT
BRANCH   1   2
ATOM      2  C   UNL     1       2.234   7.366  18.711  0.00  0.00    +0.000 A 
ATOM      3  C   UNL     1       1.860   8.482  17.985  0.00  0.00    +0.000 A 
ATOM      4  C   UNL     1       1.307   9.572  18.668  0.00  0.00    +0.000 A 
ATOM      5  C   UNL     1       1.125   9.490  20.053  0.00  0.00    +0.000 A 
ATOM      6  C   UNL     1       1.514   8.313  20.684  0.00  0.00    +0.000 A 
ATOM      7  N   UNL     1       2.056   7.256  20.041  0.00  0.00    +0.000 NA
BRANCH   5   8
ATOM      8  C   UNL     1       0.559  10.559  20.907  0.00  0.00    +0.000 C 
ATOM      9  O   UNL     1       0.993  10.683  22.052  0.00  0.00    +0.000 OA
ATOM     10  N   UNL     1      -0.425  11.373  20.386  0.00  0.00    +0.000 N 
ATOM     11  H   UNL     1      -0.717  11.269  19.426  0.00  0.00    +0.000 HD
BRANCH  10  12
ATOM     12  C   UNL     1      -1.070  12.456  21.164  0.00  0.00    +0.000 C 
ATOM     13  C   UNL     1      -1.827  11.818  22.350  0.00  0.00    +0.000 C 
ATOM     14  C   UNL     1      -0.017  13.429  21.723  0.00  0.00    +0.000 C 
BRANCH  12  15
ATOM     15  C   UNL     1      -2.078  13.239  20.284  0.00  0.00    +0.000 C 
BRANCH  15  16
ATOM     16  O   UNL     1      -1.912  12.917  18.900  0.00  0.00    +0.000 OA
ATOM     17  H   UNL     1      -0.954  12.822  18.763  0.00  0.00    +0.000 HD
ENDBRANCH  15  16
ENDBRANCH  12  15
ENDBRANCH  10  12
ENDBRANCH   5   8
ENDBRANCH   1   2
BRANCH   1  18
ATOM     18  C   UNL     1       2.111   5.061  18.354  0.00  0.00    +0.000 C 
BRANCH  18  24
ATOM     19  C   UNL     1       1.542   3.326  21.135  0.00  0.00    +0.000 C 
ATOM     20  C   UNL     1       2.709   3.396  20.237  0.00  0.00    +0.000 A 
ATOM     21  O   UNL     1       3.769   2.611  20.551  0.00  0.00    +0.000 OA
ATOM     22  N   UNL     1       4.771   2.797  19.626  0.00  0.00    +0.000 NA
ATOM     23  C   UNL     1       4.325   3.715  18.755  0.00  0.00    +0.000 A 
ATOM     24  C   UNL     1       2.984   4.104  19.089  0.00  0.00    +0.000 A 
BRANCH  23  25
ATOM     25  C   UNL     1       5.175   4.173  17.650  0.00  0.00    +0.000 A 
ATOM     26  C   UNL     1       5.083   3.566  16.385  0.00  0.00    +0.000 A 
ATOM     27  C   UNL     1       5.903   3.983  15.330  0.00  0.00    +0.000 A 
ATOM     28  C   UNL     1       6.811   5.016  15.531  0.00  0.00    +0.000 A 
ATOM     29  F   UNL     1       7.599   5.414  14.524  0.00  0.00    +0.000 F 
ATOM     30  C   UNL     1       6.912   5.620  16.772  0.00  0.00    +0.000 A 
ATOM     31  F   UNL     1       7.781   6.620  16.974  0.00  0.00    +0.000 F 
ATOM     32  C   UNL     1       6.113   5.199  17.828  0.00  0.00    +0.000 A 
ENDBRANCH  23  25
ENDBRANCH  18  24
ENDBRANCH   1  18
TORSDOF 8
ENDMDL
MODEL 7
REMARK VINA RESULT:      -8.3      1.402      1.902
REMARK  Name = 
REMARK  11 active torsions:
REMARK  status: ('A' for Active; 'I' for Inactive)
REMARK    1  A    between atoms: C_1  and  C_2
REMARK    2  A    between atoms: C_5  and  C_6
REMARK    3  A    between atoms: C_14  and  C_15
REMARK    4  A    between atoms: C_15  and  O_16
REMARK    5  A    between atoms: O_16  and  C_17
REMARK    6  A    between atoms: C_20  and  C_21
REMARK    7  A    between atoms: N_23  and  C_24
REMARK    8  A    between atoms: C_24  and  C_25
REMARK    9  A    between atoms: C_24  and  C_26
REMARK   10  A    between atoms: C_24  and  C_27
REMARK   11  A    between atoms: C_27  and  O_28
REMARK                            x       y       z     vdW  Elec       q    Type
REMARK                         _______ _______ _______ _____ _____    ______ ____
ROOT
ATOM      1  O   UNL     1       3.088   6.590  17.545  0.00  0.00    +0.000 OA
ENDROOT
BRANCH   1   2
ATOM      2  C   UNL     1       2.451   7.663  18.131  0.00  0.00    +0.000 A 
ATOM      3  C   UNL     1       2.103   7.553  19.465  0.00  0.00    +0.000 A 
ATOM      4  C   UNL     1       1.474   8.639  20.085  0.00  0.00    +0.000 A 
ATOM      5  C   UNL     1       1.241   9.806  19.349  0.00  0.00    +0.000 A 
ATOM      6  C   UNL     1       1.651   9.821  18.020  0.00  0.00    +0.000 A 
ATOM      7  N   UNL     1       2.251   8.779  17.404  0.00  0.00    +0.000 NA
BRANCH   5   8
ATOM      8  C   UNL     1       0.585  11.028  19.867  0.00  0.00    +0.000 C 
ATOM      9  O   UNL     1      -0.412  10.900  20.577  0.00  0.00    +0.000 OA
ATOM     10  N   UNL     1       1.118  12.258  19.538  0.00  0.00    +0.000 N 
ATOM     11  H   UNL     1       1.964  12.316  18.994  0.00  0.00    +0.000 HD
BRANCH  10  12
ATOM     12  C   UNL     1       0.524  13.538  19.988  0.00  0.00    +0.000 C 
ATOM     13  C   UNL     1       0.462  13.530  21.531  0.00  0.00    +0.000 C 
ATOM     14  C   UNL     1       1.390  14.729  19.539  0.00  0.00    +0.000 C 
BRANCH  12  15
ATOM     15  C   UNL     1      -0.911  13.704  19.425  0.00  0.00    +0.000 C 
BRANCH  15  16
ATOM     16  O   UNL     1      -0.934  13.514  18.008  0.00  0.00    +0.000 OA
ATOM     17  H   UNL     1      -1.069  12.561  17.870  0.00  0.00    +0.000 HD
ENDBRANCH  15  16
ENDBRANCH  12  15
ENDBRANCH  10  12
ENDBRANCH   5   8
ENDBRANCH   1   2
BRANCH   1  18
ATOM     18  C   UNL     1       4.470   6.861  17.273  0.00  0.00    +0.000 C 
BRANCH  18  24
ATOM     19  C   UNL     1       7.716   7.231  17.897  0.00  0.00    +0.000 C 
ATOM     20  C   UNL     1       6.757   6.173  18.259  0.00  0.00    +0.000 A 
ATOM     21  O   UNL     1       7.234   5.143  19.000  0.00  0.00    +0.000 OA
ATOM     22  N   UNL     1       6.222   4.242  19.247  0.00  0.00    +0.000 NA
ATOM     23  C   UNL     1       5.127   4.718  18.634  0.00  0.00    +0.000 A 
ATOM     24  C   UNL     1       5.415   5.981  18.014  0.00  0.00    +0.000 A 
BRANCH  23  25
ATOM     25  C   UNL     1       3.866   3.969  18.669  0.00  0.00    +0.000 A 
ATOM     26  C   UNL     1       3.511   3.125  17.602  0.00  0.00    +0.000 A 
ATOM     27  C   UNL     1       2.301   2.421  17.619  0.00  0.00    +0.000 A 
ATOM     28  C   UNL     1       1.446   2.548  18.707  0.00  0.00    +0.000 A 
ATOM     29  F   UNL     1       0.286   1.878  18.724  0.00  0.00    +0.000 F 
ATOM     30  C   UNL     1       1.783   3.377  19.763  0.00  0.00    +0.000 A 
ATOM     31  F   UNL     1       0.968   3.502  20.819  0.00  0.00    +0.000 F 
ATOM     32  C   UNL     1       2.975   4.092  19.745  0.00  0.00    +0.000 A 
ENDBRANCH  23  25
ENDBRANCH  18  24
ENDBRANCH   1  18
TORSDOF 8
ENDMDL
MODEL 8
REMARK VINA RESULT:      -8.3      2.761      3.955
REMARK  Name = 
REMARK  11 active torsions:
REMARK  status: ('A' for Active; 'I' for Inactive)
REMARK    1  A    between atoms: C_1  and  C_2
REMARK    2  A    between atoms: C_5  and  C_6
REMARK    3  A    between atoms: C_14  and  C_15
REMARK    4  A    between atoms: C_15  and  O_16
REMARK    5  A    between atoms: O_16  and  C_17
REMARK    6  A    between atoms: C_20  and  C_21
REMARK    7  A    between atoms: N_23  and  C_24
REMARK    8  A    between atoms: C_24  and  C_25
REMARK    9  A    between atoms: C_24  and  C_26
REMARK   10  A    between atoms: C_24  and  C_27
REMARK   11  A    between atoms: C_27  and  O_28
REMARK                            x       y       z     vdW  Elec       q    Type
REMARK                         _______ _______ _______ _____ _____    ______ ____
ROOT
ATOM      1  O   UNL     1       2.776   6.374  18.126  0.00  0.00    +0.000 OA
ENDROOT
BRANCH   1   2
ATOM      2  C   UNL     1       2.174   7.422  18.789  0.00  0.00    +0.000 A 
ATOM      3  C   UNL     1       1.934   7.273  20.143  0.00  0.00    +0.000 A 
ATOM      4  C   UNL     1       1.342   8.333  20.840  0.00  0.00    +0.000 A 
ATOM      5  C   UNL     1       1.037   9.515  20.156  0.00  0.00    +0.000 A 
ATOM      6  C   UNL     1       1.340   9.571  18.800  0.00  0.00    +0.000 A 
ATOM      7  N   UNL     1       1.903   8.554  18.111  0.00  0.00    +0.000 NA
BRANCH   5   8
ATOM      8  C   UNL     1       0.409  10.714  20.757  0.00  0.00    +0.000 C 
ATOM      9  O   UNL     1       1.050  11.351  21.594  0.00  0.00    +0.000 OA
ATOM     10  N   UNL     1      -0.861  11.070  20.355  0.00  0.00    +0.000 N 
ATOM     11  H   UNL     1      -1.330  10.549  19.631  0.00  0.00    +0.000 HD
BRANCH  10  12
ATOM     12  C   UNL     1      -1.583  12.238  20.910  0.00  0.00    +0.000 C 
ATOM     13  C   UNL     1      -0.668  13.477  20.794  0.00  0.00    +0.000 C 
ATOM     14  C   UNL     1      -2.876  12.509  20.119  0.00  0.00    +0.000 C 
BRANCH  12  15
ATOM     15  C   UNL     1      -1.933  12.007  22.403  0.00  0.00    +0.000 C 
BRANCH  15  16
ATOM     16  O   UNL     1      -0.991  12.658  23.260  0.00  0.00    +0.000 OA
ATOM     17  H   UNL     1      -0.260  12.027  23.379  0.00  0.00    +0.000 HD
ENDBRANCH  15  16
ENDBRANCH  12  15
ENDBRANCH  10  12
ENDBRANCH   5   8
ENDBRANCH   1   2
BRANCH   1  18
ATOM     18  C   UNL     1       2.133   5.121  18.393  0.00  0.00    +0.000 C 
BRANCH  18  24
ATOM     19  C   UNL     1       1.560   3.369  21.163  0.00  0.00    +0.000 C 
ATOM     20  C   UNL     1       2.718   3.425  20.254  0.00  0.00    +0.000 A 
ATOM     21  O   UNL     1       3.765   2.617  20.548  0.00  0.00    +0.000 OA
ATOM     22  N   UNL     1       4.761   2.792  19.614  0.00  0.00    +0.000 NA
ATOM     23  C   UNL     1       4.324   3.728  18.756  0.00  0.00    +0.000 A 
ATOM     24  C   UNL     1       2.994   4.140  19.109  0.00  0.00    +0.000 A 
BRANCH  23  25
ATOM     25  C   UNL     1       5.171   4.179  17.647  0.00  0.00    +0.000 A 
ATOM     26  C   UNL     1       5.090   3.552  16.391  0.00  0.00    +0.000 A 
ATOM     27  C   UNL     1       5.907   3.965  15.331  0.00  0.00    +0.000 A 
ATOM     28  C   UNL     1       6.801   5.011  15.519  0.00  0.00    +0.000 A 
ATOM     29  F   UNL     1       7.587   5.405  14.508  0.00  0.00    +0.000 F 
ATOM     30  C   UNL     1       6.892   5.636  16.751  0.00  0.00    +0.000 A 
ATOM     31  F   UNL     1       7.747   6.650  16.940  0.00  0.00    +0.000 F 
ATOM     32  C   UNL     1       6.095   5.220  17.812  0.00  0.00    +0.000 A 
ENDBRANCH  23  25
ENDBRANCH  18  24
ENDBRANCH   1  18
TORSDOF 8
ENDMDL
MODEL 9
REMARK VINA RESULT:      -8.2      0.887      1.121
REMARK  Name = 
REMARK  11 active torsions:
REMARK  status: ('A' for Active; 'I' for Inactive)
REMARK    1  A    between atoms: C_1  and  C_2
REMARK    2  A    between atoms: C_5  and  C_6
REMARK    3  A    between atoms: C_14  and  C_15
REMARK    4  A    between atoms: C_15  and  O_16
REMARK    5  A    between atoms: O_16  and  C_17
REMARK    6  A    between atoms: C_20  and  C_21
REMARK    7  A    between atoms: N_23  and  C_24
REMARK    8  A    between atoms: C_24  and  C_25
REMARK    9  A    between atoms: C_24  and  C_26
REMARK   10  A    between atoms: C_24  and  C_27
REMARK   11  A    between atoms: C_27  and  O_28
REMARK                            x       y       z     vdW  Elec       q    Type
REMARK                         _______ _______ _______ _____ _____    ______ ____
ROOT
ATOM      1  O   UNL     1       3.037   6.680  17.722  0.00  0.00    +0.000 OA
ENDROOT
BRANCH   1   2
ATOM      2  C   UNL     1       2.365   7.775  18.221  0.00  0.00    +0.000 A 
ATOM      3  C   UNL     1       1.968   7.736  19.545  0.00  0.00    +0.000 A 
ATOM      4  C   UNL     1       1.302   8.846  20.078  0.00  0.00    +0.000 A 
ATOM      5  C   UNL     1       1.082   9.965  19.269  0.00  0.00    +0.000 A 
ATOM      6  C   UNL     1       1.542   9.911  17.957  0.00  0.00    +0.000 A 
ATOM      7  N   UNL     1       2.179   8.845  17.425  0.00  0.00    +0.000 NA
BRANCH   5   8
ATOM      8  C   UNL     1       0.392  11.206  19.691  0.00  0.00    +0.000 C 
ATOM      9  O   UNL     1       0.353  12.150  18.902  0.00  0.00    +0.000 OA
ATOM     10  N   UNL     1      -0.182  11.252  20.945  0.00  0.00    +0.000 N 
ATOM     11  H   UNL     1      -0.169  10.439  21.540  0.00  0.00    +0.000 HD
BRANCH  10  12
ATOM     12  C   UNL     1      -0.875  12.451  21.468  0.00  0.00    +0.000 C 
ATOM     13  C   UNL     1      -2.187  12.641  20.675  0.00  0.00    +0.000 C 
ATOM     14  C   UNL     1      -1.225  12.275  22.957  0.00  0.00    +0.000 C 
BRANCH  12  15
ATOM     15  C   UNL     1       0.007  13.715  21.293  0.00  0.00    +0.000 C 
BRANCH  15  16
ATOM     16  O   UNL     1       0.563  14.132  22.543  0.00  0.00    +0.000 OA
ATOM     17  H   UNL     1       0.110  14.961  22.772  0.00  0.00    +0.000 HD
ENDBRANCH  15  16
ENDBRANCH  12  15
ENDBRANCH  10  12
ENDBRANCH   5   8
ENDBRANCH   1   2
BRANCH   1  18
ATOM     18  C   UNL     1       4.402   6.980  17.403  0.00  0.00    +0.000 C 
BRANCH  18  24
ATOM     19  C   UNL     1       7.689   7.277  17.823  0.00  0.00    +0.000 C 
ATOM     20  C   UNL     1       6.743   6.203  18.172  0.00  0.00    +0.000 A 
ATOM     21  O   UNL     1       7.258   5.117  18.800  0.00  0.00    +0.000 OA
ATOM     22  N   UNL     1       6.254   4.208  19.050  0.00  0.00    +0.000 NA
ATOM     23  C   UNL     1       5.125   4.737  18.552  0.00  0.00    +0.000 A 
ATOM     24  C   UNL     1       5.386   6.040  18.008  0.00  0.00    +0.000 A 
BRANCH  23  25
ATOM     25  C   UNL     1       3.859   3.997  18.620  0.00  0.00    +0.000 A 
ATOM     26  C   UNL     1       3.480   3.141  17.571  0.00  0.00    +0.000 A 
ATOM     27  C   UNL     1       2.266   2.445  17.620  0.00  0.00    +0.000 A 
ATOM     28  C   UNL     1       1.432   2.593  18.721  0.00  0.00    +0.000 A 
ATOM     29  F   UNL     1       0.268   1.931  18.768  0.00  0.00    +0.000 F 
ATOM     30  C   UNL     1       1.793   3.434  19.760  0.00  0.00    +0.000 A 
ATOM     31  F   UNL     1       0.998   3.579  20.828  0.00  0.00    +0.000 F 
ATOM     32  C   UNL     1       2.989   4.141  19.710  0.00  0.00    +0.000 A 
ENDBRANCH  23  25
ENDBRANCH  18  24
ENDBRANCH   1  18
TORSDOF 8
ENDMDL
