MODEL 1
REMARK VINA RESULT:      -7.5      0.000      0.000
REMARK  Name = 
REMARK  13 active torsions:
REMARK  status: ('A' for Active; 'I' for Inactive)
REMARK    1  A    between atoms: C_1  and  O_2
REMARK    2  A    between atoms: O_2  and  C_3
REMARK    3  A    between atoms: C_8  and  C_9
REMARK    4  A    between atoms: C_9  and  N_10
REMARK    5  A    between atoms: C_12  and  C_13
REMARK    6  A    between atoms: C_13  and  N_14
REMARK    7  A    between atoms: N_17  and  C_18
REMARK    8  A    between atoms: C_18  and  C_19
REMARK    9  A    between atoms: C_18  and  C_23
REMARK   10  A    between atoms: C_19  and  C_20
REMARK   11  A    between atoms: C_20  and  C_21
REMARK   12  A    between atoms: C_20  and  C_22
REMARK   13  A    between atoms: N_25  and  O_26
REMARK                            x       y       z     vdW  Elec       q    Type
REMARK                         _______ _______ _______ _____ _____    ______ ____
ROOT
ATOM      1  N   UNL     1       2.382   6.290  20.132  0.00  0.00    +0.000 N 
ATOM      2  C   UNL     1       2.305   5.064  19.530  0.00  0.00    +0.000 C 
ATOM      3  O   UNL     1       1.413   4.250  19.710  0.00  0.00    +0.000 OA
ATOM      4  N   UNL     1       3.362   4.864  18.680  0.00  0.00    +0.000 N 
ATOM      5  H   UNL     1       2.860   7.006  19.611  0.00  0.00    +0.000 HD
ATOM      6  H   UNL     1       4.201   5.404  18.841  0.00  0.00    +0.000 HD
ENDROOT
BRANCH   1   7
ATOM      7  C   UNL     1       1.367   6.729  21.060  0.00  0.00    +0.000 C 
BRANCH   7  10
ATOM      8  N   UNL     1       0.588  10.080  19.936  0.00  0.00    +0.000 N 
ATOM      9  C   UNL     1       1.373   8.976  19.779  0.00  0.00    +0.000 A 
ATOM     10  C   UNL     1       1.013   8.151  20.821  0.00  0.00    +0.000 A 
ATOM     11  N   UNL     1       0.126   8.819  21.630  0.00  0.00    +0.000 NA
ATOM     12  N   UNL     1      -0.129   9.999  21.077  0.00  0.00    +0.000 NA
BRANCH   8  13
ATOM     13  C   UNL     1       0.207  11.014  18.885  0.00  0.00    +0.000 C 
BRANCH  13  19
ATOM     14  C   UNL     1      -2.277  11.660  18.866  0.00  0.00    +0.000 A 
ATOM     15  C   UNL     1      -3.546  11.529  18.274  0.00  0.00    +0.000 A 
ATOM     16  C   UNL     1      -3.786  10.555  17.306  0.00  0.00    +0.000 A 
ATOM     17  C   UNL     1      -2.758   9.724  16.892  0.00  0.00    +0.000 A 
ATOM     18  C   UNL     1      -1.478   9.884  17.429  0.00  0.00    +0.000 A 
ATOM     19  C   UNL     1      -1.215  10.861  18.407  0.00  0.00    +0.000 A 
BRANCH  14  21
ATOM     20  C   UNL     1      -3.215  13.099  20.466  0.00  0.00    +0.000 C 
ATOM     21  O   UNL     1      -2.030  12.567  19.863  0.00  0.00    +0.000 OA
ENDBRANCH  14  21
ENDBRANCH  13  19
ENDBRANCH   8  13
ENDBRANCH   7  10
ENDBRANCH   1   7
BRANCH   4  22
ATOM     22  C   UNL     1       3.447   3.739  17.770  0.00  0.00    +0.000 C 
BRANCH  22  23
ATOM     23  C   UNL     1       3.867   2.501  18.582  0.00  0.00    +0.000 C 
ATOM     24  O   UNL     1       3.293   1.412  18.499  0.00  0.00    +0.000 OA
ATOM     25  N   UNL     1       4.940   2.683  19.420  0.00  0.00    +0.000 N 
ATOM     26  H   UNL     1       5.384   3.573  19.622  0.00  0.00    +0.000 HD
BRANCH  25  27
ATOM     27  O   UNL     1       5.290   1.591  20.244  0.00  0.00    +0.000 OA
ATOM     28  H   UNL     1       4.620   1.641  20.960  0.00  0.00    +0.000 HD
ENDBRANCH  25  27
ENDBRANCH  22  23
BRANCH  22  29
ATOM     29  C   UNL     1       4.412   4.023  16.600  0.00  0.00    +0.000 C 
BRANCH  29  30
ATOM     30  C   UNL     1       5.405   5.195  16.809  0.00  0.00    +0.000 C 
ATOM     31  C   UNL     1       6.856   4.702  16.718  0.00  0.00    +0.000 C 
ATOM     32  C   UNL     1       5.233   6.341  15.811  0.00  0.00    +0.000 C 
ENDBRANCH  29  30
ENDBRANCH  22  29
ENDBRANCH   4  22
TORSDOF 10
ENDMDL
MODEL 2
REMARK VINA RESULT:      -7.5      1.689      2.367
REMARK  Name = 
REMARK  13 active torsions:
REMARK  status: ('A' for Active; 'I' for Inactive)
REMARK    1  A    between atoms: C_1  and  O_2
REMARK    2  A    between atoms: O_2  and  C_3
REMARK    3  A    between atoms: C_8  and  C_9
REMARK    4  A    between atoms: C_9  and  N_10
REMARK    5  A    between atoms: C_12  and  C_13
REMARK    6  A    between atoms: C_13  and  N_14
REMARK    7  A    between atoms: N_17  and  C_18
REMARK    8  A    between atoms: C_18  and  C_19
REMARK    9  A    between atoms: C_18  and  C_23
REMARK   10  A    between atoms: C_19  and  C_20
REMARK   11  A    between atoms: C_20  and  C_21
REMARK   12  A    between atoms: C_20  and  C_22
REMARK   13  A    between atoms: N_25  and  O_26
REMARK                            x       y       z     vdW  Elec       q    Type
REMARK                         _______ _______ _______ _____ _____    ______ ____
ROOT
ATOM      1  N   UNL     1       2.414   7.063  19.622  0.00  0.00    +0.000 N 
ATOM      2  C   UNL     1       2.999   5.826  19.597  0.00  0.00    +0.000 C 
ATOM      3  O   UNL     1       2.875   4.975  20.463  0.00  0.00    +0.000 OA
ATOM      4  N   UNL     1       3.742   5.655  18.458  0.00  0.00    +0.000 N 
ATOM      5  H   UNL     1       2.217   7.474  18.725  0.00  0.00    +0.000 HD
ATOM      6  H   UNL     1       4.069   6.485  17.983  0.00  0.00    +0.000 HD
ENDROOT
BRANCH   1   7
ATOM      7  C   UNL     1       1.569   7.464  20.720  0.00  0.00    +0.000 C 
BRANCH   7  10
ATOM      8  N   UNL     1       0.407  10.751  19.746  0.00  0.00    +0.000 N 
ATOM      9  C   UNL     1       1.196   9.680  19.441  0.00  0.00    +0.000 A 
ATOM     10  C   UNL     1       1.102   8.863  20.545  0.00  0.00    +0.000 A 
ATOM     11  N   UNL     1       0.372   9.507  21.513  0.00  0.00    +0.000 NA
ATOM     12  N   UNL     1      -0.051  10.662  21.013  0.00  0.00    +0.000 NA
BRANCH   8  13
ATOM     13  C   UNL     1      -0.231  11.643  18.788  0.00  0.00    +0.000 C 
BRANCH  13  19
ATOM     14  C   UNL     1      -2.784  11.851  18.957  0.00  0.00    +0.000 A 
ATOM     15  C   UNL     1      -4.051  11.501  18.458  0.00  0.00    +0.000 A 
ATOM     16  C   UNL     1      -4.191  10.499  17.500  0.00  0.00    +0.000 A 
ATOM     17  C   UNL     1      -3.068   9.857  17.002  0.00  0.00    +0.000 A 
ATOM     18  C   UNL     1      -1.799  10.236  17.447  0.00  0.00    +0.000 A 
ATOM     19  C   UNL     1      -1.637  11.245  18.413  0.00  0.00    +0.000 A 
BRANCH  14  21
ATOM     20  C   UNL     1      -3.855  13.225  20.529  0.00  0.00    +0.000 C 
ATOM     21  O   UNL     1      -2.624  12.789  19.943  0.00  0.00    +0.000 OA
ENDBRANCH  14  21
ENDBRANCH  13  19
ENDBRANCH   8  13
ENDBRANCH   7  10
ENDBRANCH   1   7
BRANCH   4  22
ATOM     22  C   UNL     1       4.323   4.384  18.072  0.00  0.00    +0.000 C 
BRANCH  22  23
ATOM     23  C   UNL     1       5.686   4.663  17.415  0.00  0.00    +0.000 C 
ATOM     24  O   UNL     1       5.832   5.429  16.459  0.00  0.00    +0.000 OA
ATOM     25  N   UNL     1       6.752   3.997  17.968  0.00  0.00    +0.000 N 
ATOM     26  H   UNL     1       6.690   3.272  18.675  0.00  0.00    +0.000 HD
BRANCH  25  27
ATOM     27  O   UNL     1       8.001   4.164  17.330  0.00  0.00    +0.000 OA
ATOM     28  H   UNL     1       8.534   4.617  18.020  0.00  0.00    +0.000 HD
ENDBRANCH  25  27
ENDBRANCH  22  23
BRANCH  22  29
ATOM     29  C   UNL     1       3.382   3.585  17.145  0.00  0.00    +0.000 C 
BRANCH  29  30
ATOM     30  C   UNL     1       2.695   2.350  17.781  0.00  0.00    +0.000 C 
ATOM     31  C   UNL     1       3.606   1.701  18.832  0.00  0.00    +0.000 C 
ATOM     32  C   UNL     1       1.353   2.660  18.448  0.00  0.00    +0.000 C 
ENDBRANCH  29  30
ENDBRANCH  22  29
ENDBRANCH   4  22
TORSDOF 10
ENDMDL
MODEL 3
REMARK VINA RESULT:      -7.5      3.610      5.267
REMARK  Name = 
REMARK  13 active torsions:
REMARK  status: ('A' for Active; 'I' for Inactive)
REMARK    1  A    between atoms: C_1  and  O_2
REMARK    2  A    between atoms: O_2  and  C_3
REMARK    3  A    between atoms: C_8  and  C_9
REMARK    4  A    between atoms: C_9  and  N_10
REMARK    5  A    between atoms: C_12  and  C_13
REMARK    6  A    between atoms: C_13  and  N_14
REMARK    7  A    between atoms: N_17  and  C_18
REMARK    8  A    between atoms: C_18  and  C_19
REMARK    9  A    between atoms: C_18  and  C_23
REMARK   10  A    between atoms: C_19  and  C_20
REMARK   11  A    between atoms: C_20  and  C_21
REMARK   12  A    between atoms: C_20  and  C_22
REMARK   13  A    between atoms: N_25  and  O_26
REMARK                            x       y       z     vdW  Elec       q    Type
REMARK                         _______ _______ _______ _____ _____    ______ ____
ROOT
ATOM      1  N   UNL     1       4.451   2.438  18.045  0.00  0.00    +0.000 N 
ATOM      2  C   UNL     1       4.322   3.418  17.099  0.00  0.00    +0.000 C 
ATOM      3  O   UNL     1       3.260   3.844  16.672  0.00  0.00    +0.000 OA
ATOM      4  N   UNL     1       5.548   3.877  16.694  0.00  0.00    +0.000 N 
ATOM      5  H   UNL     1       5.278   2.483  18.615  0.00  0.00    +0.000 HD
ATOM      6  H   UNL     1       6.343   3.265  16.823  0.00  0.00    +0.000 HD
ENDROOT
BRANCH   1   7
ATOM      7  C   UNL     1       3.290   1.814  18.633  0.00  0.00    +0.000 C 
BRANCH   7  10
ATOM      8  N   UNL     1       1.914   4.487  20.648  0.00  0.00    +0.000 N 
ATOM      9  C   UNL     1       3.008   3.729  20.348  0.00  0.00    +0.000 A 
ATOM     10  C   UNL     1       2.534   2.783  19.466  0.00  0.00    +0.000 A 
ATOM     11  N   UNL     1       1.172   2.920  19.358  0.00  0.00    +0.000 NA
ATOM     12  N   UNL     1       0.803   3.969  20.084  0.00  0.00    +0.000 NA
BRANCH   8  13
ATOM     13  C   UNL     1       1.933   5.865  21.119  0.00  0.00    +0.000 C 
BRANCH  13  19
ATOM     14  C   UNL     1       1.361   8.146  20.090  0.00  0.00    +0.000 A 
ATOM     15  C   UNL     1       1.578   9.090  19.072  0.00  0.00    +0.000 A 
ATOM     16  C   UNL     1       2.339   8.769  17.950  0.00  0.00    +0.000 A 
ATOM     17  C   UNL     1       2.922   7.517  17.845  0.00  0.00    +0.000 A 
ATOM     18  C   UNL     1       2.763   6.590  18.879  0.00  0.00    +0.000 A 
ATOM     19  C   UNL     1       1.998   6.895  20.019  0.00  0.00    +0.000 A 
BRANCH  14  21
ATOM     20  C   UNL     1       1.180   9.269  22.144  0.00  0.00    +0.000 C 
ATOM     21  O   UNL     1       0.565   8.415  21.174  0.00  0.00    +0.000 OA
ENDBRANCH  14  21
ENDBRANCH  13  19
ENDBRANCH   8  13
ENDBRANCH   7  10
ENDBRANCH   1   7
BRANCH   4  22
ATOM     22  C   UNL     1       5.721   5.036  15.841  0.00  0.00    +0.000 C 
BRANCH  22  23
ATOM     23  C   UNL     1       6.514   4.599  14.598  0.00  0.00    +0.000 C 
ATOM     24  O   UNL     1       7.565   5.140  14.242  0.00  0.00    +0.000 OA
ATOM     25  N   UNL     1       5.975   3.551  13.894  0.00  0.00    +0.000 N 
ATOM     26  H   UNL     1       5.064   3.137  14.062  0.00  0.00    +0.000 HD
BRANCH  25  27
ATOM     27  O   UNL     1       6.633   3.188  12.698  0.00  0.00    +0.000 OA
ATOM     28  H   UNL     1       6.794   2.227  12.828  0.00  0.00    +0.000 HD
ENDBRANCH  25  27
ENDBRANCH  22  23
BRANCH  22  29
ATOM     29  C   UNL     1       6.405   6.200  16.591  0.00  0.00    +0.000 C 
BRANCH  29  30
ATOM     30  C   UNL     1       7.044   5.842  17.957  0.00  0.00    +0.000 C 
ATOM     31  C   UNL     1       7.891   4.567  17.844  0.00  0.00    +0.000 C 
ATOM     32  C   UNL     1       7.931   6.946  18.535  0.00  0.00    +0.000 C 
ENDBRANCH  29  30
ENDBRANCH  22  29
ENDBRANCH   4  22
TORSDOF 10
ENDMDL
MODEL 4
REMARK VINA RESULT:      -7.5      6.410      9.257
REMARK  Name = 
REMARK  13 active torsions:
REMARK  status: ('A' for Active; 'I' for Inactive)
REMARK    1  A    between atoms: C_1  and  O_2
REMARK    2  A    between atoms: O_2  and  C_3
REMARK    3  A    between atoms: C_8  and  C_9
REMARK    4  A    between atoms: C_9  and  N_10
REMARK    5  A    between atoms: C_12  and  C_13
REMARK    6  A    between atoms: C_13  and  N_14
REMARK    7  A    between atoms: N_17  and  C_18
REMARK    8  A    between atoms: C_18  and  C_19
REMARK    9  A    between atoms: C_18  and  C_23
REMARK   10  A    between atoms: C_19  and  C_20
REMARK   11  A    between atoms: C_20  and  C_21
REMARK   12  A    between atoms: C_20  and  C_22
REMARK   13  A    between atoms: N_25  and  O_26
REMARK                            x       y       z     vdW  Elec       q    Type
REMARK                         _______ _______ _______ _____ _____    ______ ____
ROOT
ATOM      1  N   UNL     1       8.402   8.017  18.365  0.00  0.00    +0.000 N 
ATOM      2  C   UNL     1       8.419   9.382  18.280  0.00  0.00    +0.000 C 
ATOM      3  O   UNL     1       7.823  10.039  17.441  0.00  0.00    +0.000 OA
ATOM      4  N   UNL     1       9.189   9.929  19.274  0.00  0.00    +0.000 N 
ATOM      5  H   UNL     1       8.532   7.632  19.285  0.00  0.00    +0.000 HD
ATOM      6  H   UNL     1       9.897   9.343  19.692  0.00  0.00    +0.000 HD
ENDROOT
BRANCH   1   7
ATOM      7  C   UNL     1       7.642   7.222  17.430  0.00  0.00    +0.000 C 
BRANCH   7  10
ATOM      8  N   UNL     1       5.323   4.744  18.688  0.00  0.00    +0.000 N 
ATOM      9  C   UNL     1       5.502   5.851  17.911  0.00  0.00    +0.000 A 
ATOM     10  C   UNL     1       6.808   6.222  18.143  0.00  0.00    +0.000 A 
ATOM     11  N   UNL     1       7.329   5.417  19.127  0.00  0.00    +0.000 NA
ATOM     12  N   UNL     1       6.412   4.514  19.452  0.00  0.00    +0.000 NA
BRANCH   8  13
ATOM     13  C   UNL     1       4.337   3.696  18.467  0.00  0.00    +0.000 C 
BRANCH  13  19
ATOM     14  C   UNL     1       2.217   4.510  19.663  0.00  0.00    +0.000 A 
ATOM     15  C   UNL     1       1.213   4.273  20.619  0.00  0.00    +0.000 A 
ATOM     16  C   UNL     1       1.309   3.203  21.506  0.00  0.00    +0.000 A 
ATOM     17  C   UNL     1       2.388   2.336  21.430  0.00  0.00    +0.000 A 
ATOM     18  C   UNL     1       3.361   2.526  20.446  0.00  0.00    +0.000 A 
ATOM     19  C   UNL     1       3.283   3.601  19.541  0.00  0.00    +0.000 A 
BRANCH  14  21
ATOM     20  C   UNL     1       2.257   6.851  19.495  0.00  0.00    +0.000 C 
ATOM     21  O   UNL     1       2.178   5.590  18.821  0.00  0.00    +0.000 OA
ENDBRANCH  14  21
ENDBRANCH  13  19
ENDBRANCH   8  13
ENDBRANCH   7  10
ENDBRANCH   1   7
BRANCH   4  22
ATOM     22  C   UNL     1       9.243  11.352  19.545  0.00  0.00    +0.000 C 
BRANCH  22  23
ATOM     23  C   UNL     1      10.163  12.002  18.497  0.00  0.00    +0.000 C 
ATOM     24  O   UNL     1       9.765  12.816  17.660  0.00  0.00    +0.000 OA
ATOM     25  N   UNL     1      11.480  11.615  18.551  0.00  0.00    +0.000 N 
ATOM     26  H   UNL     1      11.851  10.872  19.133  0.00  0.00    +0.000 HD
BRANCH  25  27
ATOM     27  O   UNL     1      12.330  12.126  17.545  0.00  0.00    +0.000 OA
ATOM     28  H   UNL     1      12.280  11.431  16.852  0.00  0.00    +0.000 HD
ENDBRANCH  25  27
ENDBRANCH  22  23
BRANCH  22  29
ATOM     29  C   UNL     1       9.706  11.641  20.988  0.00  0.00    +0.000 C 
BRANCH  29  30
ATOM     30  C   UNL     1       9.065  12.876  21.671  0.00  0.00    +0.000 C 
ATOM     31  C   UNL     1       8.878  12.631  23.174  0.00  0.00    +0.000 C 
ATOM     32  C   UNL     1       9.868  14.167  21.501  0.00  0.00    +0.000 C 
ENDBRANCH  29  30
ENDBRANCH  22  29
ENDBRANCH   4  22
TORSDOF 10
ENDMDL
MODEL 5
REMARK VINA RESULT:      -7.5      6.379      9.379
REMARK  Name = 
REMARK  13 active torsions:
REMARK  status: ('A' for Active; 'I' for Inactive)
REMARK    1  A    between atoms: C_1  and  O_2
REMARK    2  A    between atoms: O_2  and  C_3
REMARK    3  A    between atoms: C_8  and  C_9
REMARK    4  A    between atoms: C_9  and  N_10
REMARK    5  A    between atoms: C_12  and  C_13
REMARK    6  A    between atoms: C_13  and  N_14
REMARK    7  A    between atoms: N_17  and  C_18
REMARK    8  A    between atoms: C_18  and  C_19
REMARK    9  A    between atoms: C_18  and  C_23
REMARK   10  A    between atoms: C_19  and  C_20
REMARK   11  A    between atoms: C_20  and  C_21
REMARK   12  A    between atoms: C_20  and  C_22
REMARK   13  A    between atoms: N_25  and  O_26
REMARK                            x       y       z     vdW  Elec       q    Type
REMARK                         _______ _______ _______ _____ _____    ______ ____
ROOT
ATOM      1  N   UNL     1       8.451   7.873  18.551  0.00  0.00    +0.000 N 
ATOM      2  C   UNL     1       8.521   9.232  18.408  0.00  0.00    +0.000 C 
ATOM      3  O   UNL     1       7.974   9.872  17.524  0.00  0.00    +0.000 OA
ATOM      4  N   UNL     1       9.282   9.795  19.400  0.00  0.00    +0.000 N 
ATOM      5  H   UNL     1       8.541   7.525  19.491  0.00  0.00    +0.000 HD
ATOM      6  H   UNL     1       9.956   9.203  19.864  0.00  0.00    +0.000 HD
ENDROOT
BRANCH   1   7
ATOM      7  C   UNL     1       7.689   7.066  17.629  0.00  0.00    +0.000 C 
BRANCH   7  10
ATOM      8  N   UNL     1       5.317   4.647  18.902  0.00  0.00    +0.000 N 
ATOM      9  C   UNL     1       5.584   5.602  17.965  0.00  0.00    +0.000 A 
ATOM     10  C   UNL     1       6.790   6.137  18.359  0.00  0.00    +0.000 A 
ATOM     11  N   UNL     1       7.147   5.585  19.565  0.00  0.00    +0.000 NA
ATOM     12  N   UNL     1       6.239   4.671  19.887  0.00  0.00    +0.000 NA
BRANCH   8  13
ATOM     13  C   UNL     1       4.462   3.482  18.715  0.00  0.00    +0.000 C 
BRANCH  13  19
ATOM     14  C   UNL     1       2.115   4.085  19.562  0.00  0.00    +0.000 A 
ATOM     15  C   UNL     1       1.066   3.837  20.465  0.00  0.00    +0.000 A 
ATOM     16  C   UNL     1       1.243   2.978  21.548  0.00  0.00    +0.000 A 
ATOM     17  C   UNL     1       2.454   2.328  21.725  0.00  0.00    +0.000 A 
ATOM     18  C   UNL     1       3.485   2.521  20.801  0.00  0.00    +0.000 A 
ATOM     19  C   UNL     1       3.326   3.384  19.702  0.00  0.00    +0.000 A 
BRANCH  14  21
ATOM     20  C   UNL     1       1.364   4.416  17.363  0.00  0.00    +0.000 C 
ATOM     21  O   UNL     1       1.988   4.972  18.526  0.00  0.00    +0.000 OA
ENDBRANCH  14  21
ENDBRANCH  13  19
ENDBRANCH   8  13
ENDBRANCH   7  10
ENDBRANCH   1   7
BRANCH   4  22
ATOM     22  C   UNL     1       9.380  11.225  19.611  0.00  0.00    +0.000 C 
BRANCH  22  23
ATOM     23  C   UNL     1      10.370  11.792  18.578  0.00  0.00    +0.000 C 
ATOM     24  O   UNL     1      11.586  11.587  18.624  0.00  0.00    +0.000 OA
ATOM     25  N   UNL     1       9.810  12.553  17.582  0.00  0.00    +0.000 N 
ATOM     26  H   UNL     1       8.842  12.855  17.547  0.00  0.00    +0.000 HD
BRANCH  25  27
ATOM     27  O   UNL     1      10.704  13.161  16.673  0.00  0.00    +0.000 OA
ATOM     28  H   UNL     1      11.536  12.661  16.827  0.00  0.00    +0.000 HD
ENDBRANCH  25  27
ENDBRANCH  22  23
BRANCH  22  29
ATOM     29  C   UNL     1       9.792  11.562  21.060  0.00  0.00    +0.000 C 
BRANCH  29  30
ATOM     30  C   UNL     1       9.051  12.755  21.715  0.00  0.00    +0.000 C 
ATOM     31  C   UNL     1       8.672  12.429  23.166  0.00  0.00    +0.000 C 
ATOM     32  C   UNL     1       9.851  14.058  21.718  0.00  0.00    +0.000 C 
ENDBRANCH  29  30
ENDBRANCH  22  29
ENDBRANCH   4  22
TORSDOF 10
ENDMDL
MODEL 6
REMARK VINA RESULT:      -7.5      1.109      1.381
REMARK  Name = 
REMARK  13 active torsions:
REMARK  status: ('A' for Active; 'I' for Inactive)
REMARK    1  A    between atoms: C_1  and  O_2
REMARK    2  A    between atoms: O_2  and  C_3
REMARK    3  A    between atoms: C_8  and  C_9
REMARK    4  A    between atoms: C_9  and  N_10
REMARK    5  A    between atoms: C_12  and  C_13
REMARK    6  A    between atoms: C_13  and  N_14
REMARK    7  A    between atoms: N_17  and  C_18
REMARK    8  A    between atoms: C_18  and  C_19
REMARK    9  A    between atoms: C_18  and  C_23
REMARK   10  A    between atoms: C_19  and  C_20
REMARK   11  A    between atoms: C_20  and  C_21
REMARK   12  A    between atoms: C_20  and  C_22
REMARK   13  A    between atoms: N_25  and  O_26
REMARK                            x       y       z     vdW  Elec       q    Type
REMARK                         _______ _______ _______ _____ _____    ______ ____
ROOT
ATOM      1  N   UNL     1       2.361   7.185  20.233  0.00  0.00    +0.000 N 
ATOM      2  C   UNL     1       2.632   5.956  19.696  0.00  0.00    +0.000 C 
ATOM      3  O   UNL     1       1.975   4.946  19.890  0.00  0.00    +0.000 OA
ATOM      4  N   UNL     1       3.743   6.002  18.894  0.00  0.00    +0.000 N 
ATOM      5  H   UNL     1       2.660   7.977  19.690  0.00  0.00    +0.000 HD
ATOM      6  H   UNL     1       4.405   6.749  19.054  0.00  0.00    +0.000 HD
ENDROOT
BRANCH   1   7
ATOM      7  C   UNL     1       1.225   7.383  21.101  0.00  0.00    +0.000 C 
BRANCH   7  10
ATOM      8  N   UNL     1       0.078  10.724  20.314  0.00  0.00    +0.000 N 
ATOM      9  C   UNL     1       0.961   9.723  20.032  0.00  0.00    +0.000 A 
ATOM     10  C   UNL     1       0.723   8.777  21.004  0.00  0.00    +0.000 A 
ATOM     11  N   UNL     1      -0.192   9.278  21.897  0.00  0.00    +0.000 NA
ATOM     12  N   UNL     1      -0.583  10.471  21.463  0.00  0.00    +0.000 NA
BRANCH   8  13
ATOM     13  C   UNL     1      -0.433  11.704  19.365  0.00  0.00    +0.000 C 
BRANCH  13  19
ATOM     14  C   UNL     1      -2.969  11.869  19.005  0.00  0.00    +0.000 A 
ATOM     15  C   UNL     1      -4.097  11.520  18.241  0.00  0.00    +0.000 A 
ATOM     16  C   UNL     1      -4.012  10.552  17.242  0.00  0.00    +0.000 A 
ATOM     17  C   UNL     1      -2.797   9.946  16.968  0.00  0.00    +0.000 A 
ATOM     18  C   UNL     1      -1.656  10.327  17.680  0.00  0.00    +0.000 A 
ATOM     19  C   UNL     1      -1.721  11.301  18.692  0.00  0.00    +0.000 A 
BRANCH  14  21
ATOM     20  C   UNL     1      -4.312  12.805  20.688  0.00  0.00    +0.000 C 
ATOM     21  O   UNL     1      -3.039  12.771  20.034  0.00  0.00    +0.000 OA
ENDBRANCH  14  21
ENDBRANCH  13  19
ENDBRANCH   8  13
ENDBRANCH   7  10
ENDBRANCH   1   7
BRANCH   4  22
ATOM     22  C   UNL     1       4.160   4.900  18.051  0.00  0.00    +0.000 C 
BRANCH  22  23
ATOM     23  C   UNL     1       4.983   3.926  18.912  0.00  0.00    +0.000 C 
ATOM     24  O   UNL     1       6.079   4.216  19.401  0.00  0.00    +0.000 OA
ATOM     25  N   UNL     1       4.415   2.691  19.109  0.00  0.00    +0.000 N 
ATOM     26  H   UNL     1       3.579   2.348  18.648  0.00  0.00    +0.000 HD
BRANCH  25  27
ATOM     27  O   UNL     1       5.188   1.746  19.820  0.00  0.00    +0.000 OA
ATOM     28  H   UNL     1       6.035   1.748  19.321  0.00  0.00    +0.000 HD
ENDBRANCH  25  27
ENDBRANCH  22  23
BRANCH  22  29
ATOM     29  C   UNL     1       4.945   5.391  16.815  0.00  0.00    +0.000 C 
BRANCH  29  30
ATOM     30  C   UNL     1       5.785   4.319  16.076  0.00  0.00    +0.000 C 
ATOM     31  C   UNL     1       5.453   4.306  14.577  0.00  0.00    +0.000 C 
ATOM     32  C   UNL     1       7.296   4.504  16.222  0.00  0.00    +0.000 C 
ENDBRANCH  29  30
ENDBRANCH  22  29
ENDBRANCH   4  22
TORSDOF 10
ENDMDL
MODEL 7
REMARK VINA RESULT:      -7.4      6.167      9.559
REMARK  Name = 
REMARK  13 active torsions:
REMARK  status: ('A' for Active; 'I' for Inactive)
REMARK    1  A    between atoms: C_1  and  O_2
REMARK    2  A    between atoms: O_2  and  C_3
REMARK    3  A    between atoms: C_8  and  C_9
REMARK    4  A    between atoms: C_9  and  N_10
REMARK    5  A    between atoms: C_12  and  C_13
REMARK    6  A    between atoms: C_13  and  N_14
REMARK    7  A    between atoms: N_17  and  C_18
REMARK    8  A    between atoms: C_18  and  C_19
REMARK    9  A    between atoms: C_18  and  C_23
REMARK   10  A    between atoms: C_19  and  C_20
REMARK   11  A    between atoms: C_20  and  C_21
REMARK   12  A    between atoms: C_20  and  C_22
REMARK   13  A    between atoms: N_25  and  O_26
REMARK                            x       y       z     vdW  Elec       q    Type
REMARK                         _______ _______ _______ _____ _____    ______ ____
ROOT
ATOM      1  N   UNL     1       8.204   8.693  17.876  0.00  0.00    +0.000 N 
ATOM      2  C   UNL     1       8.821   9.674  18.604  0.00  0.00    +0.000 C 
ATOM      3  O   UNL     1       9.316   9.520  19.708  0.00  0.00    +0.000 OA
ATOM      4  N   UNL     1       8.822  10.865  17.924  0.00  0.00    +0.000 N 
ATOM      5  H   UNL     1       8.241   8.798  16.876  0.00  0.00    +0.000 HD
ATOM      6  H   UNL     1       8.120  10.997  17.209  0.00  0.00    +0.000 HD
ENDROOT
BRANCH   1   7
ATOM      7  C   UNL     1       8.096   7.347  18.383  0.00  0.00    +0.000 C 
BRANCH   7  10
ATOM      8  N   UNL     1       5.061   5.746  17.232  0.00  0.00    +0.000 N 
ATOM      9  C   UNL     1       5.854   6.061  18.296  0.00  0.00    +0.000 A 
ATOM     10  C   UNL     1       6.976   6.624  17.730  0.00  0.00    +0.000 A 
ATOM     11  N   UNL     1       6.882   6.522  16.364  0.00  0.00    +0.000 NA
ATOM     12  N   UNL     1       5.704   5.985  16.069  0.00  0.00    +0.000 NA
BRANCH   8  13
ATOM     13  C   UNL     1       3.613   5.592  17.261  0.00  0.00    +0.000 C 
BRANCH  13  19
ATOM     14  C   UNL     1       3.276   3.742  19.007  0.00  0.00    +0.000 A 
ATOM     15  C   UNL     1       2.842   3.369  20.291  0.00  0.00    +0.000 A 
ATOM     16  C   UNL     1       2.133   4.262  21.093  0.00  0.00    +0.000 A 
ATOM     17  C   UNL     1       1.879   5.546  20.640  0.00  0.00    +0.000 A 
ATOM     18  C   UNL     1       2.357   5.947  19.389  0.00  0.00    +0.000 A 
ATOM     19  C   UNL     1       3.073   5.061  18.565  0.00  0.00    +0.000 A 
BRANCH  14  21
ATOM     20  C   UNL     1       3.535   1.498  18.366  0.00  0.00    +0.000 C 
ATOM     21  O   UNL     1       3.920   2.864  18.174  0.00  0.00    +0.000 OA
ENDBRANCH  14  21
ENDBRANCH  13  19
ENDBRANCH   8  13
ENDBRANCH   7  10
ENDBRANCH   1   7
BRANCH   4  22
ATOM     22  C   UNL     1       9.563  12.030  18.365  0.00  0.00    +0.000 C 
BRANCH  22  23
ATOM     23  C   UNL     1       8.610  13.238  18.341  0.00  0.00    +0.000 C 
ATOM     24  O   UNL     1       8.385  13.941  19.330  0.00  0.00    +0.000 OA
ATOM     25  N   UNL     1       8.014  13.493  17.131  0.00  0.00    +0.000 N 
ATOM     26  H   UNL     1       8.064  12.895  16.313  0.00  0.00    +0.000 HD
BRANCH  25  27
ATOM     27  O   UNL     1       7.066  14.540  17.102  0.00  0.00    +0.000 OA
ATOM     28  H   UNL     1       6.219  14.055  16.983  0.00  0.00    +0.000 HD
ENDBRANCH  25  27
ENDBRANCH  22  23
BRANCH  22  29
ATOM     29  C   UNL     1      10.823  12.265  17.505  0.00  0.00    +0.000 C 
BRANCH  29  30
ATOM     30  C   UNL     1      12.109  12.651  18.280  0.00  0.00    +0.000 C 
ATOM     31  C   UNL     1      12.089  14.137  18.662  0.00  0.00    +0.000 C 
ATOM     32  C   UNL     1      12.332  11.839  19.557  0.00  0.00    +0.000 C 
ENDBRANCH  29  30
ENDBRANCH  22  29
ENDBRANCH   4  22
TORSDOF 10
ENDMDL
MODEL 8
REMARK VINA RESULT:      -7.3      6.520      9.821
REMARK  Name = 
REMARK  13 active torsions:
REMARK  status: ('A' for Active; 'I' for Inactive)
REMARK    1  A    between atoms: C_1  and  O_2
REMARK    2  A    between atoms: O_2  and  C_3
REMARK    3  A    between atoms: C_8  and  C_9
REMARK    4  A    between atoms: C_9  and  N_10
REMARK    5  A    between atoms: C_12  and  C_13
REMARK    6  A    between atoms: C_13  and  N_14
REMARK    7  A    between atoms: N_17  and  C_18
REMARK    8  A    between atoms: C_18  and  C_19
REMARK    9  A    between atoms: C_18  and  C_23
REMARK   10  A    between atoms: C_19  and  C_20
REMARK   11  A    between atoms: C_20  and  C_21
REMARK   12  A    between atoms: C_20  and  C_22
REMARK   13  A    between atoms: N_25  and  O_26
REMARK                            x       y       z     vdW  Elec       q    Type
REMARK                         _______ _______ _______ _____ _____    ______ ____
ROOT
ATOM      1  N   UNL     1       8.230   8.461  18.433  0.00  0.00    +0.000 N 
ATOM      2  C   UNL     1       8.688   9.751  18.421  0.00  0.00    +0.000 C 
ATOM      3  O   UNL     1       8.558  10.531  17.492  0.00  0.00    +0.000 OA
ATOM      4  N   UNL     1       9.308  10.065  19.603  0.00  0.00    +0.000 N 
ATOM      5  H   UNL     1       7.996   8.086  19.337  0.00  0.00    +0.000 HD
ATOM      6  H   UNL     1       9.670   9.303  20.158  0.00  0.00    +0.000 HD
ENDROOT
BRANCH   1   7
ATOM      7  C   UNL     1       7.528   7.910  17.300  0.00  0.00    +0.000 C 
BRANCH   7  10
ATOM      8  N   UNL     1       5.859   4.723  17.694  0.00  0.00    +0.000 N 
ATOM      9  C   UNL     1       5.725   6.072  17.542  0.00  0.00    +0.000 A 
ATOM     10  C   UNL     1       7.014   6.551  17.606  0.00  0.00    +0.000 A 
ATOM     11  N   UNL     1       7.859   5.512  17.909  0.00  0.00    +0.000 NA
ATOM     12  N   UNL     1       7.141   4.396  17.959  0.00  0.00    +0.000 NA
BRANCH   8  13
ATOM     13  C   UNL     1       4.916   3.714  17.231  0.00  0.00    +0.000 C 
BRANCH  13  19
ATOM     14  C   UNL     1       3.739   3.144  19.439  0.00  0.00    +0.000 A 
ATOM     15  C   UNL     1       2.561   3.153  20.207  0.00  0.00    +0.000 A 
ATOM     16  C   UNL     1       1.336   3.486  19.633  0.00  0.00    +0.000 A 
ATOM     17  C   UNL     1       1.273   3.847  18.297  0.00  0.00    +0.000 A 
ATOM     18  C   UNL     1       2.445   3.898  17.538  0.00  0.00    +0.000 A 
ATOM     19  C   UNL     1       3.691   3.566  18.098  0.00  0.00    +0.000 A 
BRANCH  14  21
ATOM     20  C   UNL     1       4.884   1.555  20.733  0.00  0.00    +0.000 C 
ATOM     21  O   UNL     1       4.946   2.761  19.963  0.00  0.00    +0.000 OA
ENDBRANCH  14  21
ENDBRANCH  13  19
ENDBRANCH   8  13
ENDBRANCH   7  10
ENDBRANCH   1   7
BRANCH   4  22
ATOM     22  C   UNL     1       9.726  11.410  19.947  0.00  0.00    +0.000 C 
BRANCH  22  23
ATOM     23  C   UNL     1      11.105  11.657  19.312  0.00  0.00    +0.000 C 
ATOM     24  O   UNL     1      12.168  11.414  19.889  0.00  0.00    +0.000 OA
ATOM     25  N   UNL     1      11.083  12.173  18.040  0.00  0.00    +0.000 N 
ATOM     26  H   UNL     1      10.256  12.501  17.552  0.00  0.00    +0.000 HD
BRANCH  25  27
ATOM     27  O   UNL     1      12.333  12.495  17.466  0.00  0.00    +0.000 OA
ATOM     28  H   UNL     1      12.930  11.827  17.871  0.00  0.00    +0.000 HD
ENDBRANCH  25  27
ENDBRANCH  22  23
BRANCH  22  29
ATOM     29  C   UNL     1       9.739  11.630  21.475  0.00  0.00    +0.000 C 
BRANCH  29  30
ATOM     30  C   UNL     1       9.368  13.056  21.956  0.00  0.00    +0.000 C 
ATOM     31  C   UNL     1       8.502  13.775  20.912  0.00  0.00    +0.000 C 
ATOM     32  C   UNL     1       8.620  13.087  23.290  0.00  0.00    +0.000 C 
ENDBRANCH  29  30
ENDBRANCH  22  29
ENDBRANCH   4  22
TORSDOF 10
ENDMDL
MODEL 9
REMARK VINA RESULT:      -7.2      8.385     10.016
REMARK  Name = 
REMARK  13 active torsions:
REMARK  status: ('A' for Active; 'I' for Inactive)
REMARK    1  A    between atoms: C_1  and  O_2
REMARK    2  A    between atoms: O_2  and  C_3
REMARK    3  A    between atoms: C_8  and  C_9
REMARK    4  A    between atoms: C_9  and  N_10
REMARK    5  A    between atoms: C_12  and  C_13
REMARK    6  A    between atoms: C_13  and  N_14
REMARK    7  A    between atoms: N_17  and  C_18
REMARK    8  A    between atoms: C_18  and  C_19
REMARK    9  A    between atoms: C_18  and  C_23
REMARK   10  A    between atoms: C_19  and  C_20
REMARK   11  A    between atoms: C_20  and  C_21
REMARK   12  A    between atoms: C_20  and  C_22
REMARK   13  A    between atoms: N_25  and  O_26
REMARK                            x       y       z     vdW  Elec       q    Type
REMARK                         _______ _______ _______ _____ _____    ______ ____
ROOT
ATOM      1  N   UNL     1       8.061   9.229  17.834  0.00  0.00    +0.000 N 
ATOM      2  C   UNL     1       7.809   7.890  17.955  0.00  0.00    +0.000 C 
ATOM      3  O   UNL     1       8.358   7.143  18.750  0.00  0.00    +0.000 OA
ATOM      4  N   UNL     1       6.843   7.487  17.069  0.00  0.00    +0.000 N 
ATOM      5  H   UNL     1       7.295   9.793  17.505  0.00  0.00    +0.000 HD
ATOM      6  H   UNL     1       6.697   8.056  16.246  0.00  0.00    +0.000 HD
ENDROOT
BRANCH   1   7
ATOM      7  C   UNL     1       9.032   9.883  18.678  0.00  0.00    +0.000 C 
BRANCH   7  10
ATOM      8  N   UNL     1       9.588  13.304  17.636  0.00  0.00    +0.000 N 
ATOM      9  C   UNL     1       8.679  12.354  17.999  0.00  0.00    +0.000 A 
ATOM     10  C   UNL     1       9.422  11.199  18.113  0.00  0.00    +0.000 A 
ATOM     11  N   UNL     1      10.708  11.457  17.704  0.00  0.00    +0.000 NA
ATOM     12  N   UNL     1      10.799  12.750  17.416  0.00  0.00    +0.000 NA
BRANCH   8  13
ATOM     13  C   UNL     1       9.457  14.738  17.854  0.00  0.00    +0.000 C 
BRANCH  13  19
ATOM     14  C   UNL     1      11.256  16.173  18.989  0.00  0.00    +0.000 A 
ATOM     15  C   UNL     1      11.806  16.689  20.176  0.00  0.00    +0.000 A 
ATOM     16  C   UNL     1      11.379  16.230  21.421  0.00  0.00    +0.000 A 
ATOM     17  C   UNL     1      10.376  15.278  21.499  0.00  0.00    +0.000 A 
ATOM     18  C   UNL     1       9.780  14.801  20.329  0.00  0.00    +0.000 A 
ATOM     19  C   UNL     1      10.197  15.251  19.063  0.00  0.00    +0.000 A 
BRANCH  14  21
ATOM     20  C   UNL     1      11.433  17.934  17.447  0.00  0.00    +0.000 C 
ATOM     21  O   UNL     1      11.702  16.561  17.753  0.00  0.00    +0.000 OA
ENDBRANCH  14  21
ENDBRANCH  13  19
ENDBRANCH   8  13
ENDBRANCH   7  10
ENDBRANCH   1   7
BRANCH   4  22
ATOM     22  C   UNL     1       6.243   6.168  17.094  0.00  0.00    +0.000 C 
BRANCH  22  23
ATOM     23  C   UNL     1       6.918   5.317  16.005  0.00  0.00    +0.000 C 
ATOM     24  O   UNL     1       7.814   4.502  16.242  0.00  0.00    +0.000 OA
ATOM     25  N   UNL     1       6.455   5.520  14.728  0.00  0.00    +0.000 N 
ATOM     26  H   UNL     1       5.807   6.248  14.446  0.00  0.00    +0.000 HD
BRANCH  25  27
ATOM     27  O   UNL     1       7.118   4.819  13.696  0.00  0.00    +0.000 OA
ATOM     28  H   UNL     1       6.968   5.397  12.916  0.00  0.00    +0.000 HD
ENDBRANCH  25  27
ENDBRANCH  22  23
BRANCH  22  29
ATOM     29  C   UNL     1       4.711   6.235  16.916  0.00  0.00    +0.000 C 
BRANCH  29  30
ATOM     30  C   UNL     1       3.884   5.264  17.796  0.00  0.00    +0.000 C 
ATOM     31  C   UNL     1       2.514   5.868  18.134  0.00  0.00    +0.000 C 
ATOM     32  C   UNL     1       3.650   3.893  17.158  0.00  0.00    +0.000 C 
ENDBRANCH  29  30
ENDBRANCH  22  29
ENDBRANCH   4  22
TORSDOF 10
ENDMDL
