MODEL 1
REMARK VINA RESULT:      -7.1      0.000      0.000
REMARK  Name = 
REMARK  4 active torsions:
REMARK  status: ('A' for Active; 'I' for Inactive)
REMARK    1  A    between atoms: N_1  and  S_2
REMARK    2  A    between atoms: S_2  and  C_5
REMARK    3  A    between atoms: C_10  and  S_11
REMARK    4  A    between atoms: S_11  and  C_12
REMARK                            x       y       z     vdW  Elec       q    Type
REMARK                         _______ _______ _______ _____ _____    ______ ____
ROOT
ATOM      1  C   UNL     1       2.538   3.856  18.733  0.00  0.00    +0.000 A 
ATOM      2  C   UNL     1       3.329   3.057  17.932  0.00  0.00    +0.000 A 
ATOM      3  F   UNL     1       3.265   1.721  17.981  0.00  0.00    +0.000 F 
ATOM      4  C   UNL     1       4.229   3.643  17.043  0.00  0.00    +0.000 A 
ATOM      5  F   UNL     1       5.007   2.844  16.297  0.00  0.00    +0.000 F 
ATOM      6  C   UNL     1       4.341   5.033  16.927  0.00  0.00    +0.000 A 
ATOM      7  C   UNL     1       3.521   5.824  17.735  0.00  0.00    +0.000 A 
ATOM      8  F   UNL     1       3.597   7.162  17.683  0.00  0.00    +0.000 F 
ATOM      9  C   UNL     1       2.626   5.238  18.631  0.00  0.00    +0.000 A 
ATOM     10  F   UNL     1       1.871   6.033  19.401  0.00  0.00    +0.000 F 
ENDROOT
BRANCH   1  11
ATOM     11  S   UNL     1       1.390   3.170  19.856  0.00  0.00    +0.000 S 
ATOM     12  O   UNL     1       0.546   4.195  20.412  0.00  0.00    +0.000 OA
ATOM     13  O   UNL     1       2.081   2.207  20.682  0.00  0.00    +0.000 OA
BRANCH  11  14
ATOM     14  N   UNL     1       0.375   2.283  18.847  0.00  0.00    +0.000 NA
ATOM     15  H   UNL     1       0.938   1.846  18.113  0.00  0.00    +0.000 HD
ATOM     16  H   UNL     1      -0.373   2.873  18.474  0.00  0.00    +0.000 HD
ENDBRANCH  11  14
ENDBRANCH   1  11
BRANCH   6  17
ATOM     17  S   UNL     1       5.590   5.753  15.873  0.00  0.00    +0.000 S 
BRANCH  17  18
ATOM     18  C   UNL     1       6.754   6.387  17.063  0.00  0.00    +0.000 A 
ATOM     19  C   UNL     1       7.164   7.721  16.979  0.00  0.00    +0.000 A 
ATOM     20  C   UNL     1       8.038   8.255  17.929  0.00  0.00    +0.000 A 
ATOM     21  C   UNL     1       8.498   7.462  18.978  0.00  0.00    +0.000 A 
ATOM     22  C   UNL     1       8.080   6.136  19.081  0.00  0.00    +0.000 A 
ATOM     23  C   UNL     1       7.210   5.599  18.127  0.00  0.00    +0.000 A 
ENDBRANCH  17  18
ENDBRANCH   6  17
TORSDOF 4
ENDMDL
MODEL 2
REMARK VINA RESULT:      -7.0      0.088      1.057
REMARK  Name = 
REMARK  4 active torsions:
REMARK  status: ('A' for Active; 'I' for Inactive)
REMARK    1  A    between atoms: N_1  and  S_2
REMARK    2  A    between atoms: S_2  and  C_5
REMARK    3  A    between atoms: C_10  and  S_11
REMARK    4  A    between atoms: S_11  and  C_12
REMARK                            x       y       z     vdW  Elec       q    Type
REMARK                         _______ _______ _______ _____ _____    ______ ____
ROOT
ATOM      1  C   UNL     1       2.516   3.898  18.777  0.00  0.00    +0.000 A 
ATOM      2  C   UNL     1       3.294   3.104  17.959  0.00  0.00    +0.000 A 
ATOM      3  F   UNL     1       3.214   1.769  17.984  0.00  0.00    +0.000 F 
ATOM      4  C   UNL     1       4.199   3.696  17.077  0.00  0.00    +0.000 A 
ATOM      5  F   UNL     1       4.965   2.900  16.315  0.00  0.00    +0.000 F 
ATOM      6  C   UNL     1       4.328   5.085  16.986  0.00  0.00    +0.000 A 
ATOM      7  C   UNL     1       3.520   5.872  17.812  0.00  0.00    +0.000 A 
ATOM      8  F   UNL     1       3.612   7.210  17.783  0.00  0.00    +0.000 F 
ATOM      9  C   UNL     1       2.620   5.281  18.700  0.00  0.00    +0.000 A 
ATOM     10  F   UNL     1       1.877   6.071  19.487  0.00  0.00    +0.000 F 
ENDROOT
BRANCH   1  11
ATOM     11  S   UNL     1       1.363   3.207  19.892  0.00  0.00    +0.000 S 
ATOM     12  O   UNL     1       0.501   4.224  20.432  0.00  0.00    +0.000 OA
ATOM     13  O   UNL     1       2.055   2.257  20.731  0.00  0.00    +0.000 OA
BRANCH  11  14
ATOM     14  N   UNL     1       0.369   2.301  18.877  0.00  0.00    +0.000 NA
ATOM     15  H   UNL     1      -0.391   2.898  18.540  0.00  0.00    +0.000 HD
ATOM     16  H   UNL     1       0.032   1.462  19.353  0.00  0.00    +0.000 HD
ENDBRANCH  11  14
ENDBRANCH   1  11
BRANCH   6  17
ATOM     17  S   UNL     1       5.582   5.809  15.941  0.00  0.00    +0.000 S 
BRANCH  17  18
ATOM     18  C   UNL     1       6.698   6.511  17.139  0.00  0.00    +0.000 A 
ATOM     19  C   UNL     1       7.190   5.707  18.172  0.00  0.00    +0.000 A 
ATOM     20  C   UNL     1       8.105   6.220  19.095  0.00  0.00    +0.000 A 
ATOM     21  C   UNL     1       8.544   7.537  18.983  0.00  0.00    +0.000 A 
ATOM     22  C   UNL     1       8.073   8.341  17.946  0.00  0.00    +0.000 A 
ATOM     23  C   UNL     1       7.153   7.830  17.025  0.00  0.00    +0.000 A 
ENDBRANCH  17  18
ENDBRANCH   6  17
TORSDOF 4
ENDMDL
MODEL 3
REMARK VINA RESULT:      -7.0      0.789      2.508
REMARK  Name = 
REMARK  4 active torsions:
REMARK  status: ('A' for Active; 'I' for Inactive)
REMARK    1  A    between atoms: N_1  and  S_2
REMARK    2  A    between atoms: S_2  and  C_5
REMARK    3  A    between atoms: C_10  and  S_11
REMARK    4  A    between atoms: S_11  and  C_12
REMARK                            x       y       z     vdW  Elec       q    Type
REMARK                         _______ _______ _______ _____ _____    ______ ____
ROOT
ATOM      1  C   UNL     1       2.312   3.957  18.625  0.00  0.00    +0.000 A 
ATOM      2  C   UNL     1       2.528   5.320  18.641  0.00  0.00    +0.000 A 
ATOM      3  F   UNL     1       1.793   6.145  19.397  0.00  0.00    +0.000 F 
ATOM      4  C   UNL     1       3.534   5.871  17.847  0.00  0.00    +0.000 A 
ATOM      5  F   UNL     1       3.703   7.202  17.857  0.00  0.00    +0.000 F 
ATOM      6  C   UNL     1       4.350   5.070  17.041  0.00  0.00    +0.000 A 
ATOM      7  C   UNL     1       4.125   3.691  17.051  0.00  0.00    +0.000 A 
ATOM      8  F   UNL     1       4.863   2.874  16.285  0.00  0.00    +0.000 F 
ATOM      9  C   UNL     1       3.114   3.140  17.839  0.00  0.00    +0.000 A 
ATOM     10  F   UNL     1       2.920   1.814  17.805  0.00  0.00    +0.000 F 
ENDROOT
BRANCH   1  11
ATOM     11  S   UNL     1       1.071   3.218  19.607  0.00  0.00    +0.000 S 
ATOM     12  O   UNL     1       0.266   2.320  18.821  0.00  0.00    +0.000 OA
ATOM     13  O   UNL     1       0.491   4.237  20.450  0.00  0.00    +0.000 OA
BRANCH  11  14
ATOM     14  N   UNL     1       1.959   2.213  20.625  0.00  0.00    +0.000 NA
ATOM     15  H   UNL     1       2.937   2.218  20.324  0.00  0.00    +0.000 HD
ATOM     16  H   UNL     1       1.557   1.273  20.649  0.00  0.00    +0.000 HD
ENDBRANCH  11  14
ENDBRANCH   1  11
BRANCH   6  17
ATOM     17  S   UNL     1       5.543   5.815  15.942  0.00  0.00    +0.000 S 
BRANCH  17  18
ATOM     18  C   UNL     1       6.737   6.475  17.089  0.00  0.00    +0.000 A 
ATOM     19  C   UNL     1       7.136   7.810  16.971  0.00  0.00    +0.000 A 
ATOM     20  C   UNL     1       8.033   8.364  17.887  0.00  0.00    +0.000 A 
ATOM     21  C   UNL     1       8.526   7.591  18.936  0.00  0.00    +0.000 A 
ATOM     22  C   UNL     1       8.119   6.265  19.073  0.00  0.00    +0.000 A 
ATOM     23  C   UNL     1       7.226   5.707  18.153  0.00  0.00    +0.000 A 
ENDBRANCH  17  18
ENDBRANCH   6  17
TORSDOF 4
ENDMDL
MODEL 4
REMARK VINA RESULT:      -6.9      0.811      2.728
REMARK  Name = 
REMARK  4 active torsions:
REMARK  status: ('A' for Active; 'I' for Inactive)
REMARK    1  A    between atoms: N_1  and  S_2
REMARK    2  A    between atoms: S_2  and  C_5
REMARK    3  A    between atoms: C_10  and  S_11
REMARK    4  A    between atoms: S_11  and  C_12
REMARK                            x       y       z     vdW  Elec       q    Type
REMARK                         _______ _______ _______ _____ _____    ______ ____
ROOT
ATOM      1  C   UNL     1       2.420   3.694  18.618  0.00  0.00    +0.000 A 
ATOM      2  C   UNL     1       2.481   5.069  18.711  0.00  0.00    +0.000 A 
ATOM      3  F   UNL     1       1.674   5.761  19.524  0.00  0.00    +0.000 F 
ATOM      4  C   UNL     1       3.404   5.775  17.939  0.00  0.00    +0.000 A 
ATOM      5  F   UNL     1       3.422   7.114  18.025  0.00  0.00    +0.000 F 
ATOM      6  C   UNL     1       4.289   5.119  17.077  0.00  0.00    +0.000 A 
ATOM      7  C   UNL     1       4.221   3.725  17.009  0.00  0.00    +0.000 A 
ATOM      8  F   UNL     1       5.032   3.042  16.187  0.00  0.00    +0.000 F 
ATOM      9  C   UNL     1       3.294   3.019  17.776  0.00  0.00    +0.000 A 
ATOM     10  F   UNL     1       3.250   1.684  17.667  0.00  0.00    +0.000 F 
ENDROOT
BRANCH   1  11
ATOM     11  S   UNL     1       1.289   2.764  19.571  0.00  0.00    +0.000 S 
ATOM     12  O   UNL     1       1.975   2.019  20.594  0.00  0.00    +0.000 OA
ATOM     13  O   UNL     1       0.339   2.148  18.674  0.00  0.00    +0.000 OA
BRANCH  11  14
ATOM     14  N   UNL     1       0.445   3.958  20.406  0.00  0.00    +0.000 NA
ATOM     15  H   UNL     1       0.696   3.909  21.397  0.00  0.00    +0.000 HD
ATOM     16  H   UNL     1      -0.561   3.868  20.248  0.00  0.00    +0.000 HD
ENDBRANCH  11  14
ENDBRANCH   1  11
BRANCH   6  17
ATOM     17  S   UNL     1       5.370   6.056  16.009  0.00  0.00    +0.000 S 
BRANCH  17  18
ATOM     18  C   UNL     1       6.575   6.682  17.163  0.00  0.00    +0.000 A 
ATOM     19  C   UNL     1       7.106   5.826  18.132  0.00  0.00    +0.000 A 
ATOM     20  C   UNL     1       8.088   6.279  19.016  0.00  0.00    +0.000 A 
ATOM     21  C   UNL     1       8.555   7.588  18.929  0.00  0.00    +0.000 A 
ATOM     22  C   UNL     1       8.045   8.444  17.954  0.00  0.00    +0.000 A 
ATOM     23  C   UNL     1       7.057   7.993  17.072  0.00  0.00    +0.000 A 
ENDBRANCH  17  18
ENDBRANCH   6  17
TORSDOF 4
ENDMDL
MODEL 5
REMARK VINA RESULT:      -6.9      3.634      6.268
REMARK  Name = 
REMARK  4 active torsions:
REMARK  status: ('A' for Active; 'I' for Inactive)
REMARK    1  A    between atoms: N_1  and  S_2
REMARK    2  A    between atoms: S_2  and  C_5
REMARK    3  A    between atoms: C_10  and  S_11
REMARK    4  A    between atoms: S_11  and  C_12
REMARK                            x       y       z     vdW  Elec       q    Type
REMARK                         _______ _______ _______ _____ _____    ______ ____
ROOT
ATOM      1  C   UNL     1       5.748   5.419  16.813  0.00  0.00    +0.000 A 
ATOM      2  C   UNL     1       5.145   6.547  17.332  0.00  0.00    +0.000 A 
ATOM      3  F   UNL     1       5.814   7.693  17.505  0.00  0.00    +0.000 F 
ATOM      4  C   UNL     1       3.799   6.507  17.696  0.00  0.00    +0.000 A 
ATOM      5  F   UNL     1       3.244   7.608  18.227  0.00  0.00    +0.000 F 
ATOM      6  C   UNL     1       3.032   5.349  17.532  0.00  0.00    +0.000 A 
ATOM      7  C   UNL     1       3.657   4.222  16.991  0.00  0.00    +0.000 A 
ATOM      8  F   UNL     1       2.978   3.077  16.827  0.00  0.00    +0.000 F 
ATOM      9  C   UNL     1       5.006   4.260  16.633  0.00  0.00    +0.000 A 
ATOM     10  F   UNL     1       5.571   3.152  16.134  0.00  0.00    +0.000 F 
ENDROOT
BRANCH   1  11
ATOM     11  S   UNL     1       7.427   5.421  16.333  0.00  0.00    +0.000 S 
ATOM     12  O   UNL     1       8.112   4.273  16.866  0.00  0.00    +0.000 OA
ATOM     13  O   UNL     1       7.941   6.763  16.482  0.00  0.00    +0.000 OA
BRANCH  11  14
ATOM     14  N   UNL     1       7.336   5.132  14.676  0.00  0.00    +0.000 NA
ATOM     15  H   UNL     1       8.282   5.146  14.286  0.00  0.00    +0.000 HD
ATOM     16  H   UNL     1       6.711   5.804  14.225  0.00  0.00    +0.000 HD
ENDBRANCH  11  14
ENDBRANCH   1  11
BRANCH   6  17
ATOM     17  S   UNL     1       1.349   5.290  18.125  0.00  0.00    +0.000 S 
BRANCH  17  18
ATOM     18  C   UNL     1       1.507   4.274  19.580  0.00  0.00    +0.000 A 
ATOM     19  C   UNL     1       0.985   2.977  19.572  0.00  0.00    +0.000 A 
ATOM     20  C   UNL     1       1.140   2.144  20.683  0.00  0.00    +0.000 A 
ATOM     21  C   UNL     1       1.828   2.599  21.805  0.00  0.00    +0.000 A 
ATOM     22  C   UNL     1       2.368   3.884  21.816  0.00  0.00    +0.000 A 
ATOM     23  C   UNL     1       2.209   4.720  20.706  0.00  0.00    +0.000 A 
ENDBRANCH  17  18
ENDBRANCH   6  17
TORSDOF 4
ENDMDL
MODEL 6
REMARK VINA RESULT:      -6.8      0.807      1.056
REMARK  Name = 
REMARK  4 active torsions:
REMARK  status: ('A' for Active; 'I' for Inactive)
REMARK    1  A    between atoms: N_1  and  S_2
REMARK    2  A    between atoms: S_2  and  C_5
REMARK    3  A    between atoms: C_10  and  S_11
REMARK    4  A    between atoms: S_11  and  C_12
REMARK                            x       y       z     vdW  Elec       q    Type
REMARK                         _______ _______ _______ _____ _____    ______ ____
ROOT
ATOM      1  C   UNL     1       2.637   3.821  18.802  0.00  0.00    +0.000 A 
ATOM      2  C   UNL     1       3.444   3.078  17.966  0.00  0.00    +0.000 A 
ATOM      3  F   UNL     1       3.447   1.740  17.988  0.00  0.00    +0.000 F 
ATOM      4  C   UNL     1       4.292   3.726  17.067  0.00  0.00    +0.000 A 
ATOM      5  F   UNL     1       5.090   2.981  16.286  0.00  0.00    +0.000 F 
ATOM      6  C   UNL     1       4.334   5.121  16.978  0.00  0.00    +0.000 A 
ATOM      7  C   UNL     1       3.497   5.855  17.823  0.00  0.00    +0.000 A 
ATOM      8  F   UNL     1       3.506   7.196  17.796  0.00  0.00    +0.000 F 
ATOM      9  C   UNL     1       2.654   5.208  18.727  0.00  0.00    +0.000 A 
ATOM     10  F   UNL     1       1.881   5.950  19.532  0.00  0.00    +0.000 F 
ENDROOT
BRANCH   1  11
ATOM     11  S   UNL     1       1.552   3.058  19.938  0.00  0.00    +0.000 S 
ATOM     12  O   UNL     1       1.081   1.798  19.426  0.00  0.00    +0.000 OA
ATOM     13  O   UNL     1       0.654   4.064  20.456  0.00  0.00    +0.000 OA
BRANCH  11  14
ATOM     14  N   UNL     1       2.579   2.645  21.207  0.00  0.00    +0.000 NA
ATOM     15  H   UNL     1       3.130   1.827  20.934  0.00  0.00    +0.000 HD
ATOM     16  H   UNL     1       2.050   2.497  22.069  0.00  0.00    +0.000 HD
ENDBRANCH  11  14
ENDBRANCH   1  11
BRANCH   6  17
ATOM     17  S   UNL     1       5.519   5.922  15.909  0.00  0.00    +0.000 S 
BRANCH  17  18
ATOM     18  C   UNL     1       6.722   6.522  17.079  0.00  0.00    +0.000 A 
ATOM     19  C   UNL     1       7.141   7.854  17.010  0.00  0.00    +0.000 A 
ATOM     20  C   UNL     1       8.045   8.362  17.946  0.00  0.00    +0.000 A 
ATOM     21  C   UNL     1       8.527   7.544  18.966  0.00  0.00    +0.000 A 
ATOM     22  C   UNL     1       8.100   6.219  19.054  0.00  0.00    +0.000 A 
ATOM     23  C   UNL     1       7.199   5.709  18.114  0.00  0.00    +0.000 A 
ENDBRANCH  17  18
ENDBRANCH   6  17
TORSDOF 4
ENDMDL
MODEL 7
REMARK VINA RESULT:      -6.8      3.647      6.253
REMARK  Name = 
REMARK  4 active torsions:
REMARK  status: ('A' for Active; 'I' for Inactive)
REMARK    1  A    between atoms: N_1  and  S_2
REMARK    2  A    between atoms: S_2  and  C_5
REMARK    3  A    between atoms: C_10  and  S_11
REMARK    4  A    between atoms: S_11  and  C_12
REMARK                            x       y       z     vdW  Elec       q    Type
REMARK                         _______ _______ _______ _____ _____    ______ ____
ROOT
ATOM      1  C   UNL     1       5.763   5.407  16.772  0.00  0.00    +0.000 A 
ATOM      2  C   UNL     1       5.155   6.526  17.304  0.00  0.00    +0.000 A 
ATOM      3  F   UNL     1       5.816   7.677  17.479  0.00  0.00    +0.000 F 
ATOM      4  C   UNL     1       3.813   6.472  17.680  0.00  0.00    +0.000 A 
ATOM      5  F   UNL     1       3.254   7.564  18.223  0.00  0.00    +0.000 F 
ATOM      6  C   UNL     1       3.054   5.308  17.515  0.00  0.00    +0.000 A 
ATOM      7  C   UNL     1       3.685   4.191  16.961  0.00  0.00    +0.000 A 
ATOM      8  F   UNL     1       3.015   3.041  16.795  0.00  0.00    +0.000 F 
ATOM      9  C   UNL     1       5.030   4.243  16.591  0.00  0.00    +0.000 A 
ATOM     10  F   UNL     1       5.600   3.143  16.080  0.00  0.00    +0.000 F 
ENDROOT
BRANCH   1  11
ATOM     11  S   UNL     1       7.438   5.427  16.278  0.00  0.00    +0.000 S 
ATOM     12  O   UNL     1       8.138   4.282  16.798  0.00  0.00    +0.000 OA
ATOM     13  O   UNL     1       7.941   6.773  16.430  0.00  0.00    +0.000 OA
BRANCH  11  14
ATOM     14  N   UNL     1       7.335   5.147  14.620  0.00  0.00    +0.000 NA
ATOM     15  H   UNL     1       7.948   4.364  14.379  0.00  0.00    +0.000 HD
ATOM     16  H   UNL     1       7.552   5.996  14.094  0.00  0.00    +0.000 HD
ENDBRANCH  11  14
ENDBRANCH   1  11
BRANCH   6  17
ATOM     17  S   UNL     1       1.377   5.230  18.122  0.00  0.00    +0.000 S 
BRANCH  17  18
ATOM     18  C   UNL     1       1.555   4.197  19.562  0.00  0.00    +0.000 A 
ATOM     19  C   UNL     1       2.266   4.676  20.667  0.00  0.00    +0.000 A 
ATOM     20  C   UNL     1       2.378   3.904  21.826  0.00  0.00    +0.000 A 
ATOM     21  C   UNL     1       1.768   2.654  21.893  0.00  0.00    +0.000 A 
ATOM     22  C   UNL     1       1.041   2.175  20.804  0.00  0.00    +0.000 A 
ATOM     23  C   UNL     1       0.934   2.945  19.641  0.00  0.00    +0.000 A 
ENDBRANCH  17  18
ENDBRANCH   6  17
TORSDOF 4
ENDMDL
MODEL 8
REMARK VINA RESULT:      -6.7      0.848      1.526
REMARK  Name = 
REMARK  4 active torsions:
REMARK  status: ('A' for Active; 'I' for Inactive)
REMARK    1  A    between atoms: N_1  and  S_2
REMARK    2  A    between atoms: S_2  and  C_5
REMARK    3  A    between atoms: C_10  and  S_11
REMARK    4  A    between atoms: S_11  and  C_12
REMARK                            x       y       z     vdW  Elec       q    Type
REMARK                         _______ _______ _______ _____ _____    ______ ____
ROOT
ATOM      1  C   UNL     1       2.653   3.796  18.843  0.00  0.00    +0.000 A 
ATOM      2  C   UNL     1       3.454   3.112  17.951  0.00  0.00    +0.000 A 
ATOM      3  F   UNL     1       3.491   1.775  17.913  0.00  0.00    +0.000 F 
ATOM      4  C   UNL     1       4.258   3.821  17.058  0.00  0.00    +0.000 A 
ATOM      5  F   UNL     1       5.050   3.132  16.222  0.00  0.00    +0.000 F 
ATOM      6  C   UNL     1       4.262   5.219  17.030  0.00  0.00    +0.000 A 
ATOM      7  C   UNL     1       3.432   5.893  17.931  0.00  0.00    +0.000 A 
ATOM      8  F   UNL     1       3.407   7.233  17.965  0.00  0.00    +0.000 F 
ATOM      9  C   UNL     1       2.633   5.184  18.830  0.00  0.00    +0.000 A 
ATOM     10  F   UNL     1       1.866   5.869  19.689  0.00  0.00    +0.000 F 
ENDROOT
BRANCH   1  11
ATOM     11  S   UNL     1       1.622   2.954  19.974  0.00  0.00    +0.000 S 
ATOM     12  O   UNL     1       1.311   1.633  19.496  0.00  0.00    +0.000 OA
ATOM     13  O   UNL     1       0.601   3.871  20.427  0.00  0.00    +0.000 OA
BRANCH  11  14
ATOM     14  N   UNL     1       2.646   2.703  21.287  0.00  0.00    +0.000 NA
ATOM     15  H   UNL     1       3.562   2.406  20.940  0.00  0.00    +0.000 HD
ATOM     16  H   UNL     1       2.236   2.035  21.944  0.00  0.00    +0.000 HD
ENDBRANCH  11  14
ENDBRANCH   1  11
BRANCH   6  17
ATOM     17  S   UNL     1       5.394   6.098  15.966  0.00  0.00    +0.000 S 
BRANCH  17  18
ATOM     18  C   UNL     1       6.587   6.722  17.133  0.00  0.00    +0.000 A 
ATOM     19  C   UNL     1       7.127   5.858  18.090  0.00  0.00    +0.000 A 
ATOM     20  C   UNL     1       8.100   6.310  18.984  0.00  0.00    +0.000 A 
ATOM     21  C   UNL     1       8.549   7.627  18.919  0.00  0.00    +0.000 A 
ATOM     22  C   UNL     1       8.031   8.491  17.956  0.00  0.00    +0.000 A 
ATOM     23  C   UNL     1       7.052   8.040  17.064  0.00  0.00    +0.000 A 
ENDBRANCH  17  18
ENDBRANCH   6  17
TORSDOF 4
ENDMDL
MODEL 9
REMARK VINA RESULT:      -6.7      4.265      5.508
REMARK  Name = 
REMARK  4 active torsions:
REMARK  status: ('A' for Active; 'I' for Inactive)
REMARK    1  A    between atoms: N_1  and  S_2
REMARK    2  A    between atoms: S_2  and  C_5
REMARK    3  A    between atoms: C_10  and  S_11
REMARK    4  A    between atoms: S_11  and  C_12
REMARK                            x       y       z     vdW  Elec       q    Type
REMARK                         _______ _______ _______ _____ _____    ______ ____
ROOT
ATOM      1  C   UNL     1       1.119   9.343  20.223  0.00  0.00    +0.000 A 
ATOM      2  C   UNL     1       1.545   9.453  18.915  0.00  0.00    +0.000 A 
ATOM      3  F   UNL     1       1.404  10.586  18.217  0.00  0.00    +0.000 F 
ATOM      4  C   UNL     1       2.138   8.359  18.286  0.00  0.00    +0.000 A 
ATOM      5  F   UNL     1       2.516   8.482  17.004  0.00  0.00    +0.000 F 
ATOM      6  C   UNL     1       2.331   7.146  18.957  0.00  0.00    +0.000 A 
ATOM      7  C   UNL     1       1.906   7.061  20.285  0.00  0.00    +0.000 A 
ATOM      8  F   UNL     1       2.047   5.919  20.974  0.00  0.00    +0.000 F 
ATOM      9  C   UNL     1       1.306   8.153  20.913  0.00  0.00    +0.000 A 
ATOM     10  F   UNL     1       0.897   8.022  22.182  0.00  0.00    +0.000 F 
ENDROOT
BRANCH   1  11
ATOM     11  S   UNL     1       0.378  10.687  21.058  0.00  0.00    +0.000 S 
ATOM     12  O   UNL     1       0.363  10.460  22.479  0.00  0.00    +0.000 OA
ATOM     13  O   UNL     1      -0.804  11.081  20.326  0.00  0.00    +0.000 OA
BRANCH  11  14
ATOM     14  N   UNL     1       1.503  11.921  20.835  0.00  0.00    +0.000 NA
ATOM     15  H   UNL     1       2.425  11.584  21.121  0.00  0.00    +0.000 HD
ATOM     16  H   UNL     1       1.218  12.766  21.336  0.00  0.00    +0.000 HD
ENDBRANCH  11  14
ENDBRANCH   1  11
BRANCH   6  17
ATOM     17  S   UNL     1       2.976   5.727  18.088  0.00  0.00    +0.000 S 
BRANCH  17  18
ATOM     18  C   UNL     1       4.734   5.999  18.193  0.00  0.00    +0.000 A 
ATOM     19  C   UNL     1       5.470   5.349  19.187  0.00  0.00    +0.000 A 
ATOM     20  C   UNL     1       6.856   5.508  19.260  0.00  0.00    +0.000 A 
ATOM     21  C   UNL     1       7.517   6.307  18.330  0.00  0.00    +0.000 A 
ATOM     22  C   UNL     1       6.794   6.945  17.323  0.00  0.00    +0.000 A 
ATOM     23  C   UNL     1       5.405   6.791  17.253  0.00  0.00    +0.000 A 
ENDBRANCH  17  18
ENDBRANCH   6  17
TORSDOF 4
ENDMDL
