MODEL 1
REMARK VINA RESULT:      -7.5      0.000      0.000
REMARK  Name = 
REMARK  7 active torsions:
REMARK  status: ('A' for Active; 'I' for Inactive)
REMARK    1  A    between atoms: C_1  and  C_2
REMARK    2  A    between atoms: C_2  and  N_3
REMARK    3  A    between atoms: C_5  and  C_6
REMARK    4  A    between atoms: C_7  and  C_8
REMARK    5  A    between atoms: C_8  and  N_9
REMARK    6  A    between atoms: C_11  and  C_12
REMARK    7  A    between atoms: C_22  and  C_23
REMARK                            x       y       z     vdW  Elec       q    Type
REMARK                         _______ _______ _______ _____ _____    ______ ____
ROOT
ATOM      1  N   UNL     1       3.510   5.088  19.726  0.00  0.00    +0.000 N 
ATOM      2  C   UNL     1       3.259   6.381  19.359  0.00  0.00    +0.000 A 
ATOM      3  C   UNL     1       2.156   6.730  20.103  0.00  0.00    +0.000 A 
ATOM      4  N   UNL     1       1.753   5.649  20.845  0.00  0.00    +0.000 NA
ATOM      5  N   UNL     1       2.588   4.647  20.603  0.00  0.00    +0.000 NA
ENDROOT
BRANCH   3   6
ATOM      6  C   UNL     1       1.554   8.047  20.191  0.00  0.00    +0.000 A 
ATOM      7  C   UNL     1       1.560   8.888  19.066  0.00  0.00    +0.000 A 
ATOM      8  C   UNL     1       0.937  10.137  19.107  0.00  0.00    +0.000 A 
ATOM      9  C   UNL     1       0.315  10.556  20.279  0.00  0.00    +0.000 A 
ATOM     10  F   UNL     1      -0.285  11.755  20.298  0.00  0.00    +0.000 F 
ATOM     11  C   UNL     1       0.316   9.740  21.408  0.00  0.00    +0.000 A 
ATOM     12 CL   UNL     1      -0.452  10.255  22.862  0.00  0.00    +0.000 Cl
ATOM     13  C   UNL     1       0.931   8.487  21.368  0.00  0.00    +0.000 A 
ENDBRANCH   3   6
BRANCH   1  14
ATOM     14  C   UNL     1       4.723   4.322  19.482  0.00  0.00    +0.000 C 
BRANCH  14  19
ATOM     15  N   UNL     1       6.032   4.352  16.059  0.00  0.00    +0.000 N 
ATOM     16  N   UNL     1       4.813   3.852  15.800  0.00  0.00    +0.000 NA
ATOM     17  C   UNL     1       4.216   3.792  16.991  0.00  0.00    +0.000 A 
ATOM     18  C   UNL     1       2.837   3.249  17.114  0.00  0.00    +0.000 C 
ATOM     19  C   UNL     1       5.065   4.258  18.034  0.00  0.00    +0.000 A 
ATOM     20  C   UNL     1       6.263   4.554  17.399  0.00  0.00    +0.000 A 
ATOM     21  C   UNL     1       7.578   4.999  17.930  0.00  0.00    +0.000 C 
BRANCH  15  23
ATOM     22  C   UNL     1       6.412   4.079  13.632  0.00  0.00    +0.000 C 
ATOM     23  C   UNL     1       6.937   4.614  14.954  0.00  0.00    +0.000 C 
ENDBRANCH  15  23
ENDBRANCH  14  19
ENDBRANCH   1  14
TORSDOF 4
ENDMDL
MODEL 2
REMARK VINA RESULT:      -7.5      1.016      2.018
REMARK  Name = 
REMARK  7 active torsions:
REMARK  status: ('A' for Active; 'I' for Inactive)
REMARK    1  A    between atoms: C_1  and  C_2
REMARK    2  A    between atoms: C_2  and  N_3
REMARK    3  A    between atoms: C_5  and  C_6
REMARK    4  A    between atoms: C_7  and  C_8
REMARK    5  A    between atoms: C_8  and  N_9
REMARK    6  A    between atoms: C_11  and  C_12
REMARK    7  A    between atoms: C_22  and  C_23
REMARK                            x       y       z     vdW  Elec       q    Type
REMARK                         _______ _______ _______ _____ _____    ______ ____
ROOT
ATOM      1  N   UNL     1       4.313   5.312  19.282  0.00  0.00    +0.000 N 
ATOM      2  C   UNL     1       3.873   6.590  19.068  0.00  0.00    +0.000 A 
ATOM      3  C   UNL     1       2.649   6.628  19.694  0.00  0.00    +0.000 A 
ATOM      4  N   UNL     1       2.369   5.391  20.213  0.00  0.00    +0.000 NA
ATOM      5  N   UNL     1       3.394   4.590  19.952  0.00  0.00    +0.000 NA
ENDROOT
BRANCH   3   6
ATOM      6  C   UNL     1       1.811   7.798  19.882  0.00  0.00    +0.000 A 
ATOM      7  C   UNL     1       1.652   8.712  18.828  0.00  0.00    +0.000 A 
ATOM      8  C   UNL     1       0.805   9.815  18.963  0.00  0.00    +0.000 A 
ATOM      9  C   UNL     1       0.123  10.014  20.159  0.00  0.00    +0.000 A 
ATOM     10  F   UNL     1      -0.692  11.073  20.269  0.00  0.00    +0.000 F 
ATOM     11  C   UNL     1       0.284   9.125  21.219  0.00  0.00    +0.000 A 
ATOM     12 CL   UNL     1      -0.558   9.368  22.703  0.00  0.00    +0.000 Cl
ATOM     13  C   UNL     1       1.124   8.017  21.084  0.00  0.00    +0.000 A 
ENDBRANCH   3   6
BRANCH   1  14
ATOM     14  C   UNL     1       5.665   4.804  19.103  0.00  0.00    +0.000 C 
BRANCH  14  19
ATOM     15  N   UNL     1       6.554   4.945  15.550  0.00  0.00    +0.000 N 
ATOM     16  N   UNL     1       7.370   5.914  15.997  0.00  0.00    +0.000 NA
ATOM     17  C   UNL     1       7.143   5.964  17.310  0.00  0.00    +0.000 A 
ATOM     18  C   UNL     1       7.853   6.958  18.158  0.00  0.00    +0.000 C 
ATOM     19  C   UNL     1       6.164   5.014  17.716  0.00  0.00    +0.000 A 
ATOM     20  C   UNL     1       5.755   4.412  16.533  0.00  0.00    +0.000 A 
ATOM     21  C   UNL     1       4.700   3.403  16.253  0.00  0.00    +0.000 C 
BRANCH  15  23
ATOM     22  C   UNL     1       7.748   5.237  13.406  0.00  0.00    +0.000 C 
ATOM     23  C   UNL     1       6.597   4.578  14.146  0.00  0.00    +0.000 C 
ENDBRANCH  15  23
ENDBRANCH  14  19
ENDBRANCH   1  14
TORSDOF 4
ENDMDL
MODEL 3
REMARK VINA RESULT:      -7.4      2.445      4.064
REMARK  Name = 
REMARK  7 active torsions:
REMARK  status: ('A' for Active; 'I' for Inactive)
REMARK    1  A    between atoms: C_1  and  C_2
REMARK    2  A    between atoms: C_2  and  N_3
REMARK    3  A    between atoms: C_5  and  C_6
REMARK    4  A    between atoms: C_7  and  C_8
REMARK    5  A    between atoms: C_8  and  N_9
REMARK    6  A    between atoms: C_11  and  C_12
REMARK    7  A    between atoms: C_22  and  C_23
REMARK                            x       y       z     vdW  Elec       q    Type
REMARK                         _______ _______ _______ _____ _____    ______ ____
ROOT
ATOM      1  N   UNL     1       3.073   7.545  17.995  0.00  0.00    +0.000 N 
ATOM      2  C   UNL     1       2.610   7.648  19.277  0.00  0.00    +0.000 A 
ATOM      3  C   UNL     1       1.767   8.734  19.241  0.00  0.00    +0.000 A 
ATOM      4  N   UNL     1       1.781   9.273  17.980  0.00  0.00    +0.000 NA
ATOM      5  N   UNL     1       2.587   8.538  17.225  0.00  0.00    +0.000 NA
ENDROOT
BRANCH   3   6
ATOM      6  C   UNL     1       0.909   9.198  20.314  0.00  0.00    +0.000 A 
ATOM      7  C   UNL     1       0.926   8.533  21.551  0.00  0.00    +0.000 A 
ATOM      8  C   UNL     1       0.153   8.995  22.619  0.00  0.00    +0.000 A 
ATOM      9  C   UNL     1      -0.650  10.118  22.450  0.00  0.00    +0.000 A 
ATOM     10  F   UNL     1      -1.379  10.553  23.488  0.00  0.00    +0.000 F 
ATOM     11  C   UNL     1      -0.691  10.779  21.224  0.00  0.00    +0.000 A 
ATOM     12 CL   UNL     1      -1.685  12.169  21.009  0.00  0.00    +0.000 Cl
ATOM     13  C   UNL     1       0.087  10.323  20.157  0.00  0.00    +0.000 A 
ENDBRANCH   3   6
BRANCH   1  14
ATOM     14  C   UNL     1       3.757   6.410  17.392  0.00  0.00    +0.000 C 
BRANCH  14  19
ATOM     15  N   UNL     1       3.409   3.450  19.526  0.00  0.00    +0.000 N 
ATOM     16  N   UNL     1       4.701   3.724  19.775  0.00  0.00    +0.000 NA
ATOM     17  C   UNL     1       4.960   4.809  19.045  0.00  0.00    +0.000 A 
ATOM     18  C   UNL     1       6.325   5.400  19.037  0.00  0.00    +0.000 C 
ATOM     19  C   UNL     1       3.819   5.241  18.312  0.00  0.00    +0.000 A 
ATOM     20  C   UNL     1       2.845   4.294  18.599  0.00  0.00    +0.000 A 
ATOM     21  C   UNL     1       1.461   4.116  18.088  0.00  0.00    +0.000 C 
BRANCH  15  23
ATOM     22  C   UNL     1       2.118   2.782  21.524  0.00  0.00    +0.000 C 
ATOM     23  C   UNL     1       2.773   2.347  20.224  0.00  0.00    +0.000 C 
ENDBRANCH  15  23
ENDBRANCH  14  19
ENDBRANCH   1  14
TORSDOF 4
ENDMDL
MODEL 4
REMARK VINA RESULT:      -7.4      4.864      8.242
REMARK  Name = 
REMARK  7 active torsions:
REMARK  status: ('A' for Active; 'I' for Inactive)
REMARK    1  A    between atoms: C_1  and  C_2
REMARK    2  A    between atoms: C_2  and  N_3
REMARK    3  A    between atoms: C_5  and  C_6
REMARK    4  A    between atoms: C_7  and  C_8
REMARK    5  A    between atoms: C_8  and  N_9
REMARK    6  A    between atoms: C_11  and  C_12
REMARK    7  A    between atoms: C_22  and  C_23
REMARK                            x       y       z     vdW  Elec       q    Type
REMARK                         _______ _______ _______ _____ _____    ______ ____
ROOT
ATOM      1  N   UNL     1       5.022   5.722  17.602  0.00  0.00    +0.000 N 
ATOM      2  C   UNL     1       5.399   4.751  16.716  0.00  0.00    +0.000 A 
ATOM      3  C   UNL     1       5.577   5.430  15.533  0.00  0.00    +0.000 A 
ATOM      4  N   UNL     1       5.264   6.752  15.721  0.00  0.00    +0.000 NA
ATOM      5  N   UNL     1       4.922   6.919  16.992  0.00  0.00    +0.000 NA
ENDROOT
BRANCH   3   6
ATOM      6  C   UNL     1       6.108   4.888  14.297  0.00  0.00    +0.000 A 
ATOM      7  C   UNL     1       7.365   5.313  13.837  0.00  0.00    +0.000 A 
ATOM      8  C   UNL     1       7.924   4.764  12.681  0.00  0.00    +0.000 A 
ATOM      9  C   UNL     1       7.222   3.795  11.972  0.00  0.00    +0.000 A 
ATOM     10  F   UNL     1       7.777   3.273  10.869  0.00  0.00    +0.000 F 
ATOM     11  C   UNL     1       5.966   3.375  12.406  0.00  0.00    +0.000 A 
ATOM     12 CL   UNL     1       5.092   2.176  11.531  0.00  0.00    +0.000 Cl
ATOM     13  C   UNL     1       5.408   3.917  13.566  0.00  0.00    +0.000 A 
ENDBRANCH   3   6
BRANCH   1  14
ATOM     14  C   UNL     1       4.992   5.627  19.054  0.00  0.00    +0.000 C 
BRANCH  14  19
ATOM     15  N   UNL     1       2.092   3.746  20.272  0.00  0.00    +0.000 N 
ATOM     16  N   UNL     1       1.549   4.975  20.282  0.00  0.00    +0.000 NA
ATOM     17  C   UNL     1       2.523   5.774  19.845  0.00  0.00    +0.000 A 
ATOM     18  C   UNL     1       2.303   7.242  19.748  0.00  0.00    +0.000 C 
ATOM     19  C   UNL     1       3.713   5.050  19.551  0.00  0.00    +0.000 A 
ATOM     20  C   UNL     1       3.416   3.740  19.903  0.00  0.00    +0.000 A 
ATOM     21  C   UNL     1       4.251   2.511  19.923  0.00  0.00    +0.000 C 
BRANCH  15  23
ATOM     22  C   UNL     1       1.253   2.351  22.131  0.00  0.00    +0.000 C 
ATOM     23  C   UNL     1       1.267   2.606  20.634  0.00  0.00    +0.000 C 
ENDBRANCH  15  23
ENDBRANCH  14  19
ENDBRANCH   1  14
TORSDOF 4
ENDMDL
MODEL 5
REMARK VINA RESULT:      -7.3      4.914      7.925
REMARK  Name = 
REMARK  7 active torsions:
REMARK  status: ('A' for Active; 'I' for Inactive)
REMARK    1  A    between atoms: C_1  and  C_2
REMARK    2  A    between atoms: C_2  and  N_3
REMARK    3  A    between atoms: C_5  and  C_6
REMARK    4  A    between atoms: C_7  and  C_8
REMARK    5  A    between atoms: C_8  and  N_9
REMARK    6  A    between atoms: C_11  and  C_12
REMARK    7  A    between atoms: C_22  and  C_23
REMARK                            x       y       z     vdW  Elec       q    Type
REMARK                         _______ _______ _______ _____ _____    ______ ____
ROOT
ATOM      1  N   UNL     1       6.424   5.344  18.197  0.00  0.00    +0.000 N 
ATOM      2  C   UNL     1       6.111   5.651  16.902  0.00  0.00    +0.000 A 
ATOM      3  C   UNL     1       7.021   4.934  16.160  0.00  0.00    +0.000 A 
ATOM      4  N   UNL     1       7.868   4.268  17.008  0.00  0.00    +0.000 NA
ATOM      5  N   UNL     1       7.495   4.529  18.254  0.00  0.00    +0.000 NA
ENDROOT
BRANCH   3   6
ATOM      6  C   UNL     1       7.044   4.800  14.716  0.00  0.00    +0.000 A 
ATOM      7  C   UNL     1       7.919   5.598  13.960  0.00  0.00    +0.000 A 
ATOM      8  C   UNL     1       8.003   5.448  12.574  0.00  0.00    +0.000 A 
ATOM      9  C   UNL     1       7.202   4.506  11.936  0.00  0.00    +0.000 A 
ATOM     10  F   UNL     1       7.301   4.370  10.606  0.00  0.00    +0.000 F 
ATOM     11  C   UNL     1       6.317   3.720  12.670  0.00  0.00    +0.000 A 
ATOM     12 CL   UNL     1       5.322   2.553  11.884  0.00  0.00    +0.000 Cl
ATOM     13  C   UNL     1       6.237   3.862  14.057  0.00  0.00    +0.000 A 
ENDBRANCH   3   6
BRANCH   1  14
ATOM     14  C   UNL     1       5.611   5.580  19.381  0.00  0.00    +0.000 C 
BRANCH  14  19
ATOM     15  N   UNL     1       2.376   3.871  19.166  0.00  0.00    +0.000 N 
ATOM     16  N   UNL     1       1.992   5.078  18.721  0.00  0.00    +0.000 NA
ATOM     17  C   UNL     1       3.104   5.813  18.746  0.00  0.00    +0.000 A 
ATOM     18  C   UNL     1       3.067   7.245  18.345  0.00  0.00    +0.000 C 
ATOM     19  C   UNL     1       4.222   5.069  19.217  0.00  0.00    +0.000 A 
ATOM     20  C   UNL     1       3.697   3.826  19.544  0.00  0.00    +0.000 A 
ATOM     21  C   UNL     1       4.315   2.626  20.166  0.00  0.00    +0.000 C 
BRANCH  15  23
ATOM     22  C   UNL     1       1.697   1.711  18.175  0.00  0.00    +0.000 C 
ATOM     23  C   UNL     1       1.406   2.790  19.203  0.00  0.00    +0.000 C 
ENDBRANCH  15  23
ENDBRANCH  14  19
ENDBRANCH   1  14
TORSDOF 4
ENDMDL
MODEL 6
REMARK VINA RESULT:      -7.3      4.556      8.130
REMARK  Name = 
REMARK  7 active torsions:
REMARK  status: ('A' for Active; 'I' for Inactive)
REMARK    1  A    between atoms: C_1  and  C_2
REMARK    2  A    between atoms: C_2  and  N_3
REMARK    3  A    between atoms: C_5  and  C_6
REMARK    4  A    between atoms: C_7  and  C_8
REMARK    5  A    between atoms: C_8  and  N_9
REMARK    6  A    between atoms: C_11  and  C_12
REMARK    7  A    between atoms: C_22  and  C_23
REMARK                            x       y       z     vdW  Elec       q    Type
REMARK                         _______ _______ _______ _____ _____    ______ ____
ROOT
ATOM      1  N   UNL     1       4.968   4.166  18.161  0.00  0.00    +0.000 N 
ATOM      2  C   UNL     1       4.748   4.172  16.811  0.00  0.00    +0.000 A 
ATOM      3  C   UNL     1       5.992   4.410  16.273  0.00  0.00    +0.000 A 
ATOM      4  N   UNL     1       6.896   4.584  17.288  0.00  0.00    +0.000 NA
ATOM      5  N   UNL     1       6.258   4.435  18.442  0.00  0.00    +0.000 NA
ENDROOT
BRANCH   3   6
ATOM      6  C   UNL     1       6.343   4.385  14.866  0.00  0.00    +0.000 A 
ATOM      7  C   UNL     1       7.406   5.178  14.403  0.00  0.00    +0.000 A 
ATOM      8  C   UNL     1       7.801   5.129  13.064  0.00  0.00    +0.000 A 
ATOM      9  C   UNL     1       7.127   4.294  12.180  0.00  0.00    +0.000 A 
ATOM     10  F   UNL     1       7.525   4.252  10.900  0.00  0.00    +0.000 F 
ATOM     11  C   UNL     1       6.060   3.514  12.620  0.00  0.00    +0.000 A 
ATOM     12 CL   UNL     1       5.221   2.479  11.528  0.00  0.00    +0.000 Cl
ATOM     13  C   UNL     1       5.667   3.555  13.960  0.00  0.00    +0.000 A 
ENDBRANCH   3   6
BRANCH   1  14
ATOM     14  C   UNL     1       4.074   3.671  19.197  0.00  0.00    +0.000 C 
BRANCH  14  19
ATOM     15  N   UNL     1       2.095   6.609  20.135  0.00  0.00    +0.000 N 
ATOM     16  N   UNL     1       1.599   5.742  21.033  0.00  0.00    +0.000 NA
ATOM     17  C   UNL     1       2.255   4.605  20.797  0.00  0.00    +0.000 A 
ATOM     18  C   UNL     1       1.948   3.383  21.588  0.00  0.00    +0.000 C 
ATOM     19  C   UNL     1       3.185   4.740  19.729  0.00  0.00    +0.000 A 
ATOM     20  C   UNL     1       3.008   6.041  19.278  0.00  0.00    +0.000 A 
ATOM     21  C   UNL     1       3.608   6.781  18.137  0.00  0.00    +0.000 C 
BRANCH  15  23
ATOM     22  C   UNL     1       1.203   8.433  21.543  0.00  0.00    +0.000 C 
ATOM     23  C   UNL     1       1.639   7.988  20.158  0.00  0.00    +0.000 C 
ENDBRANCH  15  23
ENDBRANCH  14  19
ENDBRANCH   1  14
TORSDOF 4
ENDMDL
MODEL 7
REMARK VINA RESULT:      -7.3      0.783      1.869
REMARK  Name = 
REMARK  7 active torsions:
REMARK  status: ('A' for Active; 'I' for Inactive)
REMARK    1  A    between atoms: C_1  and  C_2
REMARK    2  A    between atoms: C_2  and  N_3
REMARK    3  A    between atoms: C_5  and  C_6
REMARK    4  A    between atoms: C_7  and  C_8
REMARK    5  A    between atoms: C_8  and  N_9
REMARK    6  A    between atoms: C_11  and  C_12
REMARK    7  A    between atoms: C_22  and  C_23
REMARK                            x       y       z     vdW  Elec       q    Type
REMARK                         _______ _______ _______ _____ _____    ______ ____
ROOT
ATOM      1  N   UNL     1       3.774   4.949  19.693  0.00  0.00    +0.000 N 
ATOM      2  C   UNL     1       3.560   6.191  19.160  0.00  0.00    +0.000 A 
ATOM      3  C   UNL     1       2.403   6.619  19.770  0.00  0.00    +0.000 A 
ATOM      4  N   UNL     1       1.937   5.629  20.597  0.00  0.00    +0.000 NA
ATOM      5  N   UNL     1       2.783   4.609  20.539  0.00  0.00    +0.000 NA
ENDROOT
BRANCH   3   6
ATOM      6  C   UNL     1       1.803   7.935  19.658  0.00  0.00    +0.000 A 
ATOM      7  C   UNL     1       1.776   8.580  18.411  0.00  0.00    +0.000 A 
ATOM      8  C   UNL     1       1.154   9.822  18.264  0.00  0.00    +0.000 A 
ATOM      9  C   UNL     1       0.566  10.430  19.368  0.00  0.00    +0.000 A 
ATOM     10  F   UNL     1      -0.035  11.618  19.208  0.00  0.00    +0.000 F 
ATOM     11  C   UNL     1       0.600   9.810  20.616  0.00  0.00    +0.000 A 
ATOM     12 CL   UNL     1      -0.126  10.560  21.987  0.00  0.00    +0.000 Cl
ATOM     13  C   UNL     1       1.215   8.565  20.764  0.00  0.00    +0.000 A 
ENDBRANCH   3   6
BRANCH   1  14
ATOM     14  C   UNL     1       4.998   4.165  19.635  0.00  0.00    +0.000 C 
BRANCH  14  19
ATOM     15  N   UNL     1       6.162   4.131  16.160  0.00  0.00    +0.000 N 
ATOM     16  N   UNL     1       7.235   4.712  16.722  0.00  0.00    +0.000 NA
ATOM     17  C   UNL     1       6.936   4.782  18.020  0.00  0.00    +0.000 A 
ATOM     18  C   UNL     1       7.887   5.406  18.978  0.00  0.00    +0.000 C 
ATOM     19  C   UNL     1       5.650   4.240  18.298  0.00  0.00    +0.000 A 
ATOM     20  C   UNL     1       5.147   3.885  17.054  0.00  0.00    +0.000 A 
ATOM     21  C   UNL     1       3.825   3.347  16.640  0.00  0.00    +0.000 C 
BRANCH  15  23
ATOM     22  C   UNL     1       6.987   4.855  13.946  0.00  0.00    +0.000 C 
ATOM     23  C   UNL     1       6.182   3.839  14.737  0.00  0.00    +0.000 C 
ENDBRANCH  15  23
ENDBRANCH  14  19
ENDBRANCH   1  14
TORSDOF 4
ENDMDL
MODEL 8
REMARK VINA RESULT:      -7.2      5.192      6.665
REMARK  Name = 
REMARK  7 active torsions:
REMARK  status: ('A' for Active; 'I' for Inactive)
REMARK    1  A    between atoms: C_1  and  C_2
REMARK    2  A    between atoms: C_2  and  N_3
REMARK    3  A    between atoms: C_5  and  C_6
REMARK    4  A    between atoms: C_7  and  C_8
REMARK    5  A    between atoms: C_8  and  N_9
REMARK    6  A    between atoms: C_11  and  C_12
REMARK    7  A    between atoms: C_22  and  C_23
REMARK                            x       y       z     vdW  Elec       q    Type
REMARK                         _______ _______ _______ _____ _____    ______ ____
ROOT
ATOM      1  N   UNL     1       7.503   6.840  18.049  0.00  0.00    +0.000 N 
ATOM      2  C   UNL     1       8.398   7.743  18.553  0.00  0.00    +0.000 A 
ATOM      3  C   UNL     1       8.066   8.923  17.929  0.00  0.00    +0.000 A 
ATOM      4  N   UNL     1       7.036   8.696  17.053  0.00  0.00    +0.000 NA
ATOM      5  N   UNL     1       6.701   7.415  17.132  0.00  0.00    +0.000 NA
ENDROOT
BRANCH   3   6
ATOM      6  C   UNL     1       8.624  10.233  18.206  0.00  0.00    +0.000 A 
ATOM      7  C   UNL     1       8.147  11.352  17.503  0.00  0.00    +0.000 A 
ATOM      8  C   UNL     1       8.626  12.632  17.791  0.00  0.00    +0.000 A 
ATOM      9  C   UNL     1       9.594  12.797  18.777  0.00  0.00    +0.000 A 
ATOM     10  F   UNL     1      10.037  14.034  19.046  0.00  0.00    +0.000 F 
ATOM     11  C   UNL     1      10.089  11.695  19.471  0.00  0.00    +0.000 A 
ATOM     12 CL   UNL     1      11.289  11.894  20.691  0.00  0.00    +0.000 Cl
ATOM     13  C   UNL     1       9.606  10.415  19.190  0.00  0.00    +0.000 A 
ENDBRANCH   3   6
BRANCH   1  14
ATOM     14  C   UNL     1       7.199   5.516  18.571  0.00  0.00    +0.000 C 
BRANCH  14  19
ATOM     15  N   UNL     1       4.000   4.167  17.397  0.00  0.00    +0.000 N 
ATOM     16  N   UNL     1       4.738   3.905  16.305  0.00  0.00    +0.000 NA
ATOM     17  C   UNL     1       5.956   4.354  16.610  0.00  0.00    +0.000 A 
ATOM     18  C   UNL     1       7.059   4.266  15.615  0.00  0.00    +0.000 C 
ATOM     19  C   UNL     1       6.004   4.916  17.916  0.00  0.00    +0.000 A 
ATOM     20  C   UNL     1       4.696   4.836  18.375  0.00  0.00    +0.000 A 
ATOM     21  C   UNL     1       4.057   5.324  19.625  0.00  0.00    +0.000 C 
BRANCH  15  23
ATOM     22  C   UNL     1       2.460   2.292  17.867  0.00  0.00    +0.000 C 
ATOM     23  C   UNL     1       2.612   3.739  17.430  0.00  0.00    +0.000 C 
ENDBRANCH  15  23
ENDBRANCH  14  19
ENDBRANCH   1  14
TORSDOF 4
ENDMDL
MODEL 9
REMARK VINA RESULT:      -7.2      1.569      2.812
REMARK  Name = 
REMARK  7 active torsions:
REMARK  status: ('A' for Active; 'I' for Inactive)
REMARK    1  A    between atoms: C_1  and  C_2
REMARK    2  A    between atoms: C_2  and  N_3
REMARK    3  A    between atoms: C_5  and  C_6
REMARK    4  A    between atoms: C_7  and  C_8
REMARK    5  A    between atoms: C_8  and  N_9
REMARK    6  A    between atoms: C_11  and  C_12
REMARK    7  A    between atoms: C_22  and  C_23
REMARK                            x       y       z     vdW  Elec       q    Type
REMARK                         _______ _______ _______ _____ _____    ______ ____
ROOT
ATOM      1  N   UNL     1       4.325   4.031  17.650  0.00  0.00    +0.000 N 
ATOM      2  C   UNL     1       3.491   5.075  17.362  0.00  0.00    +0.000 A 
ATOM      3  C   UNL     1       3.377   5.749  18.556  0.00  0.00    +0.000 A 
ATOM      4  N   UNL     1       4.089   5.082  19.519  0.00  0.00    +0.000 NA
ATOM      5  N   UNL     1       4.663   4.028  18.954  0.00  0.00    +0.000 NA
ENDROOT
BRANCH   3   6
ATOM      6  C   UNL     1       2.707   7.018  18.771  0.00  0.00    +0.000 A 
ATOM      7  C   UNL     1       2.639   7.952  17.725  0.00  0.00    +0.000 A 
ATOM      8  C   UNL     1       1.949   9.156  17.889  0.00  0.00    +0.000 A 
ATOM      9  C   UNL     1       1.334   9.435  19.104  0.00  0.00    +0.000 A 
ATOM     10  F   UNL     1       0.669  10.591  19.241  0.00  0.00    +0.000 F 
ATOM     11  C   UNL     1       1.407   8.525  20.157  0.00  0.00    +0.000 A 
ATOM     12 CL   UNL     1       0.647   8.867  21.665  0.00  0.00    +0.000 Cl
ATOM     13  C   UNL     1       2.089   7.317  19.994  0.00  0.00    +0.000 A 
ENDBRANCH   3   6
BRANCH   1  14
ATOM     14  C   UNL     1       5.022   3.173  16.704  0.00  0.00    +0.000 C 
BRANCH  14  19
ATOM     15  N   UNL     1       6.994   4.877  14.127  0.00  0.00    +0.000 N 
ATOM     16  N   UNL     1       7.641   5.340  15.209  0.00  0.00    +0.000 NA
ATOM     17  C   UNL     1       7.009   4.778  16.241  0.00  0.00    +0.000 A 
ATOM     18  C   UNL     1       7.429   5.084  17.635  0.00  0.00    +0.000 C 
ATOM     19  C   UNL     1       5.938   3.943  15.818  0.00  0.00    +0.000 A 
ATOM     20  C   UNL     1       5.916   4.082  14.437  0.00  0.00    +0.000 A 
ATOM     21  C   UNL     1       4.989   3.546  13.406  0.00  0.00    +0.000 C 
BRANCH  15  23
ATOM     22  C   UNL     1       8.804   5.975  12.854  0.00  0.00    +0.000 C 
ATOM     23  C   UNL     1       7.474   5.245  12.806  0.00  0.00    +0.000 C 
ENDBRANCH  15  23
ENDBRANCH  14  19
ENDBRANCH   1  14
TORSDOF 4
ENDMDL
