MODEL 1
REMARK VINA RESULT:      -4.9      0.000      0.000
REMARK  Name = 
REMARK  7 active torsions:
REMARK  status: ('A' for Active; 'I' for Inactive)
REMARK    1  A    between atoms: C_1  and  N_2
REMARK    2  A    between atoms: C_3  and  O_5
REMARK    3  A    between atoms: O_5  and  C_6
REMARK    4  A    between atoms: C_6  and  C_7
REMARK    5  A    between atoms: C_9  and  N_10
REMARK    6  A    between atoms: N_10  and  C_11
REMARK    7  A    between atoms: N_10  and  C_12
REMARK                            x       y       z     vdW  Elec       q    Type
REMARK                         _______ _______ _______ _____ _____    ______ ____
ROOT
ATOM      1  C   UNL     1       5.127   4.909  19.266  0.00  0.00    +0.000 C 
ENDROOT
BRANCH   1   2
ATOM      2  C   UNL     1       3.832   4.358  18.758  0.00  0.00    +0.000 C 
ATOM      3  C   UNL     1       3.719   3.034  18.052  0.00  0.00    +0.000 C 
ATOM      4  C   UNL     1       3.151   3.190  19.440  0.00  0.00    +0.000 C 
BRANCH   4   5
ATOM      5  N   UNL     1       1.690   3.292  19.661  0.00  0.00    +0.000 NA
ATOM      6  C   UNL     1       0.912   2.403  18.798  0.00  0.00    +0.000 C 
ATOM      7  C   UNL     1       1.332   3.057  21.061  0.00  0.00    +0.000 C 
ENDBRANCH   4   5
ENDBRANCH   1   2
BRANCH   1   8
ATOM      8  O   UNL     1       6.251   4.200  18.721  0.00  0.00    +0.000 OA
BRANCH   8  11
ATOM      9  C   UNL     1       7.597   7.296  17.477  0.00  0.00    +0.000 C 
ATOM     10  N   UNL     1       6.835   6.291  18.168  0.00  0.00    +0.000 N 
ATOM     11  C   UNL     1       7.051   4.963  17.945  0.00  0.00    +0.000 C 
ATOM     12  O   UNL     1       7.873   4.537  17.140  0.00  0.00    +0.000 OA
ATOM     13  H   UNL     1       6.155   6.533  18.870  0.00  0.00    +0.000 HD
ENDBRANCH   8  11
ENDBRANCH   1   8
TORSDOF 4
ENDMDL
MODEL 2
REMARK VINA RESULT:      -4.8      3.192      3.875
REMARK  Name = 
REMARK  7 active torsions:
REMARK  status: ('A' for Active; 'I' for Inactive)
REMARK    1  A    between atoms: C_1  and  N_2
REMARK    2  A    between atoms: C_3  and  O_5
REMARK    3  A    between atoms: O_5  and  C_6
REMARK    4  A    between atoms: C_6  and  C_7
REMARK    5  A    between atoms: C_9  and  N_10
REMARK    6  A    between atoms: N_10  and  C_11
REMARK    7  A    between atoms: N_10  and  C_12
REMARK                            x       y       z     vdW  Elec       q    Type
REMARK                         _______ _______ _______ _____ _____    ______ ____
ROOT
ATOM      1  C   UNL     1       6.468   4.066  16.074  0.00  0.00    +0.000 C 
ENDROOT
BRANCH   1   2
ATOM      2  C   UNL     1       5.783   4.728  17.228  0.00  0.00    +0.000 C 
ATOM      3  C   UNL     1       4.498   5.499  17.092  0.00  0.00    +0.000 C 
ATOM      4  C   UNL     1       4.499   4.170  17.807  0.00  0.00    +0.000 C 
BRANCH   4   5
ATOM      5  N   UNL     1       4.396   4.095  19.281  0.00  0.00    +0.000 NA
ATOM      6  C   UNL     1       3.323   4.926  19.829  0.00  0.00    +0.000 C 
ATOM      7  C   UNL     1       4.240   2.716  19.748  0.00  0.00    +0.000 C 
ENDBRANCH   4   5
ENDBRANCH   1   2
BRANCH   1   8
ATOM      8  O   UNL     1       7.271   4.999  15.333  0.00  0.00    +0.000 OA
BRANCH   8  11
ATOM      9  C   UNL     1       6.215   3.374  12.301  0.00  0.00    +0.000 C 
ATOM     10  N   UNL     1       6.439   3.745  13.672  0.00  0.00    +0.000 N 
ATOM     11  C   UNL     1       7.225   4.812  13.995  0.00  0.00    +0.000 C 
ATOM     12  O   UNL     1       7.805   5.502  13.163  0.00  0.00    +0.000 OA
ATOM     13  H   UNL     1       5.987   3.262  14.430  0.00  0.00    +0.000 HD
ENDBRANCH   8  11
ENDBRANCH   1   8
TORSDOF 4
ENDMDL
MODEL 3
REMARK VINA RESULT:      -4.8      2.932      3.216
REMARK  Name = 
REMARK  7 active torsions:
REMARK  status: ('A' for Active; 'I' for Inactive)
REMARK    1  A    between atoms: C_1  and  N_2
REMARK    2  A    between atoms: C_3  and  O_5
REMARK    3  A    between atoms: O_5  and  C_6
REMARK    4  A    between atoms: C_6  and  C_7
REMARK    5  A    between atoms: C_9  and  N_10
REMARK    6  A    between atoms: N_10  and  C_11
REMARK    7  A    between atoms: N_10  and  C_12
REMARK                            x       y       z     vdW  Elec       q    Type
REMARK                         _______ _______ _______ _____ _____    ______ ____
ROOT
ATOM      1  C   UNL     1       5.505   4.809  16.702  0.00  0.00    +0.000 C 
ENDROOT
BRANCH   1   2
ATOM      2  C   UNL     1       4.118   4.390  17.074  0.00  0.00    +0.000 C 
ATOM      3  C   UNL     1       3.803   3.076  17.737  0.00  0.00    +0.000 C 
ATOM      4  C   UNL     1       3.665   4.358  18.519  0.00  0.00    +0.000 C 
BRANCH   4   5
ATOM      5  N   UNL     1       2.334   4.928  18.825  0.00  0.00    +0.000 NA
ATOM      6  C   UNL     1       1.396   3.945  19.369  0.00  0.00    +0.000 C 
ATOM      7  C   UNL     1       2.426   6.076  19.730  0.00  0.00    +0.000 C 
ENDBRANCH   4   5
ENDBRANCH   1   2
BRANCH   1   8
ATOM      8  O   UNL     1       6.169   3.800  15.923  0.00  0.00    +0.000 OA
BRANCH   8  11
ATOM      9  C   UNL     1       6.646   3.813  12.356  0.00  0.00    +0.000 C 
ATOM     10  N   UNL     1       6.260   3.496  13.705  0.00  0.00    +0.000 N 
ATOM     11  C   UNL     1       6.673   4.259  14.756  0.00  0.00    +0.000 C 
ATOM     12  O   UNL     1       7.408   5.234  14.637  0.00  0.00    +0.000 OA
ATOM     13  H   UNL     1       5.637   2.732  13.910  0.00  0.00    +0.000 HD
ENDBRANCH   8  11
ENDBRANCH   1   8
TORSDOF 4
ENDMDL
MODEL 4
REMARK VINA RESULT:      -4.8      1.622      2.242
REMARK  Name = 
REMARK  7 active torsions:
REMARK  status: ('A' for Active; 'I' for Inactive)
REMARK    1  A    between atoms: C_1  and  N_2
REMARK    2  A    between atoms: C_3  and  O_5
REMARK    3  A    between atoms: O_5  and  C_6
REMARK    4  A    between atoms: C_6  and  C_7
REMARK    5  A    between atoms: C_9  and  N_10
REMARK    6  A    between atoms: N_10  and  C_11
REMARK    7  A    between atoms: N_10  and  C_12
REMARK                            x       y       z     vdW  Elec       q    Type
REMARK                         _______ _______ _______ _____ _____    ______ ____
ROOT
ATOM      1  C   UNL     1       5.563   5.371  19.002  0.00  0.00    +0.000 C 
ENDROOT
BRANCH   1   2
ATOM      2  C   UNL     1       4.318   4.769  19.574  0.00  0.00    +0.000 C 
ATOM      3  C   UNL     1       3.024   5.525  19.710  0.00  0.00    +0.000 C 
ATOM      4  C   UNL     1       3.137   4.417  18.692  0.00  0.00    +0.000 C 
BRANCH   4   5
ATOM      5  N   UNL     1       2.491   3.105  18.917  0.00  0.00    +0.000 NA
ATOM      6  C   UNL     1       1.133   3.213  19.452  0.00  0.00    +0.000 C 
ATOM      7  C   UNL     1       2.479   2.287  17.702  0.00  0.00    +0.000 C 
ENDBRANCH   4   5
ENDBRANCH   1   2
BRANCH   1   8
ATOM      8  O   UNL     1       6.465   4.359  18.524  0.00  0.00    +0.000 OA
BRANCH   8  11
ATOM      9  C   UNL     1       6.096   3.853  14.980  0.00  0.00    +0.000 C 
ATOM     10  N   UNL     1       5.951   3.819  16.410  0.00  0.00    +0.000 N 
ATOM     11  C   UNL     1       6.804   4.505  17.224  0.00  0.00    +0.000 C 
ATOM     12  O   UNL     1       7.752   5.164  16.809  0.00  0.00    +0.000 OA
ATOM     13  H   UNL     1       5.190   3.330  16.852  0.00  0.00    +0.000 HD
ENDBRANCH   8  11
ENDBRANCH   1   8
TORSDOF 4
ENDMDL
MODEL 5
REMARK VINA RESULT:      -4.7      1.259      1.329
REMARK  Name = 
REMARK  7 active torsions:
REMARK  status: ('A' for Active; 'I' for Inactive)
REMARK    1  A    between atoms: C_1  and  N_2
REMARK    2  A    between atoms: C_3  and  O_5
REMARK    3  A    between atoms: O_5  and  C_6
REMARK    4  A    between atoms: C_6  and  C_7
REMARK    5  A    between atoms: C_9  and  N_10
REMARK    6  A    between atoms: N_10  and  C_11
REMARK    7  A    between atoms: N_10  and  C_12
REMARK                            x       y       z     vdW  Elec       q    Type
REMARK                         _______ _______ _______ _____ _____    ______ ____
ROOT
ATOM      1  C   UNL     1       4.689   4.951  16.860  0.00  0.00    +0.000 C 
ENDROOT
BRANCH   1   2
ATOM      2  C   UNL     1       3.501   4.105  17.196  0.00  0.00    +0.000 C 
ATOM      3  C   UNL     1       3.612   2.705  17.738  0.00  0.00    +0.000 C 
ATOM      4  C   UNL     1       3.123   3.815  18.635  0.00  0.00    +0.000 C 
BRANCH   4   5
ATOM      5  N   UNL     1       1.692   3.932  18.996  0.00  0.00    +0.000 NA
ATOM      6  C   UNL     1       1.006   2.641  19.062  0.00  0.00    +0.000 C 
ATOM      7  C   UNL     1       1.504   4.655  20.255  0.00  0.00    +0.000 C 
ENDBRANCH   4   5
ENDBRANCH   1   2
BRANCH   1   8
ATOM      8  O   UNL     1       5.863   4.150  16.649  0.00  0.00    +0.000 OA
BRANCH   8  11
ATOM      9  C   UNL     1       7.764   6.602  18.470  0.00  0.00    +0.000 C 
ATOM     10  N   UNL     1       6.726   5.870  17.797  0.00  0.00    +0.000 N 
ATOM     11  C   UNL     1       6.984   4.677  17.188  0.00  0.00    +0.000 C 
ATOM     12  O   UNL     1       8.098   4.166  17.146  0.00  0.00    +0.000 OA
ATOM     13  H   UNL     1       5.771   6.188  17.796  0.00  0.00    +0.000 HD
ENDBRANCH   8  11
ENDBRANCH   1   8
TORSDOF 4
ENDMDL
MODEL 6
REMARK VINA RESULT:      -4.7      1.654      1.895
REMARK  Name = 
REMARK  7 active torsions:
REMARK  status: ('A' for Active; 'I' for Inactive)
REMARK    1  A    between atoms: C_1  and  N_2
REMARK    2  A    between atoms: C_3  and  O_5
REMARK    3  A    between atoms: O_5  and  C_6
REMARK    4  A    between atoms: C_6  and  C_7
REMARK    5  A    between atoms: C_9  and  N_10
REMARK    6  A    between atoms: N_10  and  C_11
REMARK    7  A    between atoms: N_10  and  C_12
REMARK                            x       y       z     vdW  Elec       q    Type
REMARK                         _______ _______ _______ _____ _____    ______ ____
ROOT
ATOM      1  C   UNL     1       6.021   5.133  19.024  0.00  0.00    +0.000 C 
ENDROOT
BRANCH   1   2
ATOM      2  C   UNL     1       4.555   5.296  19.271  0.00  0.00    +0.000 C 
ATOM      3  C   UNL     1       3.509   5.078  18.211  0.00  0.00    +0.000 C 
ATOM      4  C   UNL     1       3.631   4.097  19.350  0.00  0.00    +0.000 C 
BRANCH   4   5
ATOM      5  N   UNL     1       2.640   4.077  20.450  0.00  0.00    +0.000 NA
ATOM      6  C   UNL     1       1.259   4.204  19.985  0.00  0.00    +0.000 C 
ATOM      7  C   UNL     1       2.772   2.878  21.280  0.00  0.00    +0.000 C 
ENDBRANCH   4   5
ENDBRANCH   1   2
BRANCH   1   8
ATOM      8  O   UNL     1       6.461   5.941  17.920  0.00  0.00    +0.000 OA
BRANCH   8  11
ATOM      9  C   UNL     1       7.039   4.949  14.509  0.00  0.00    +0.000 C 
ATOM     10  N   UNL     1       6.537   5.553  15.714  0.00  0.00    +0.000 N 
ATOM     11  C   UNL     1       7.057   5.235  16.934  0.00  0.00    +0.000 C 
ATOM     12  O   UNL     1       7.953   4.411  17.093  0.00  0.00    +0.000 OA
ATOM     13  H   UNL     1       5.822   6.261  15.691  0.00  0.00    +0.000 HD
ENDBRANCH   8  11
ENDBRANCH   1   8
TORSDOF 4
ENDMDL
MODEL 7
REMARK VINA RESULT:      -4.7      2.099      2.599
REMARK  Name = 
REMARK  7 active torsions:
REMARK  status: ('A' for Active; 'I' for Inactive)
REMARK    1  A    between atoms: C_1  and  N_2
REMARK    2  A    between atoms: C_3  and  O_5
REMARK    3  A    between atoms: O_5  and  C_6
REMARK    4  A    between atoms: C_6  and  C_7
REMARK    5  A    between atoms: C_9  and  N_10
REMARK    6  A    between atoms: N_10  and  C_11
REMARK    7  A    between atoms: N_10  and  C_12
REMARK                            x       y       z     vdW  Elec       q    Type
REMARK                         _______ _______ _______ _____ _____    ______ ____
ROOT
ATOM      1  C   UNL     1       5.100   6.539  17.188  0.00  0.00    +0.000 C 
ENDROOT
BRANCH   1   2
ATOM      2  C   UNL     1       4.130   5.958  18.168  0.00  0.00    +0.000 C 
ATOM      3  C   UNL     1       2.680   6.355  18.230  0.00  0.00    +0.000 C 
ATOM      4  C   UNL     1       3.057   4.982  17.731  0.00  0.00    +0.000 C 
BRANCH   4   5
ATOM      5  N   UNL     1       2.850   3.781  18.571  0.00  0.00    +0.000 NA
ATOM      6  C   UNL     1       1.514   3.714  19.164  0.00  0.00    +0.000 C 
ATOM      7  C   UNL     1       3.124   2.546  17.834  0.00  0.00    +0.000 C 
ENDBRANCH   4   5
ENDBRANCH   1   2
BRANCH   1   8
ATOM      8  O   UNL     1       6.450   6.149  17.489  0.00  0.00    +0.000 OA
BRANCH   8  11
ATOM      9  C   UNL     1       6.892   4.766  14.197  0.00  0.00    +0.000 C 
ATOM     10  N   UNL     1       6.447   5.518  15.339  0.00  0.00    +0.000 N 
ATOM     11  C   UNL     1       6.992   5.317  16.573  0.00  0.00    +0.000 C 
ATOM     12  O   UNL     1       7.863   4.483  16.800  0.00  0.00    +0.000 OA
ATOM     13  H   UNL     1       5.757   6.246  15.255  0.00  0.00    +0.000 HD
ENDBRANCH   8  11
ENDBRANCH   1   8
TORSDOF 4
ENDMDL
MODEL 8
REMARK VINA RESULT:      -4.7      2.926      3.605
REMARK  Name = 
REMARK  7 active torsions:
REMARK  status: ('A' for Active; 'I' for Inactive)
REMARK    1  A    between atoms: C_1  and  N_2
REMARK    2  A    between atoms: C_3  and  O_5
REMARK    3  A    between atoms: O_5  and  C_6
REMARK    4  A    between atoms: C_6  and  C_7
REMARK    5  A    between atoms: C_9  and  N_10
REMARK    6  A    between atoms: N_10  and  C_11
REMARK    7  A    between atoms: N_10  and  C_12
REMARK                            x       y       z     vdW  Elec       q    Type
REMARK                         _______ _______ _______ _____ _____    ______ ____
ROOT
ATOM      1  C   UNL     1       6.079   5.490  16.291  0.00  0.00    +0.000 C 
ENDROOT
BRANCH   1   2
ATOM      2  C   UNL     1       5.545   4.619  17.384  0.00  0.00    +0.000 C 
ATOM      3  C   UNL     1       5.586   5.002  18.839  0.00  0.00    +0.000 C 
ATOM      4  C   UNL     1       4.264   4.966  18.113  0.00  0.00    +0.000 C 
BRANCH   4   5
ATOM      5  N   UNL     1       3.296   3.869  18.342  0.00  0.00    +0.000 NA
ATOM      6  C   UNL     1       3.207   3.461  19.744  0.00  0.00    +0.000 C 
ATOM      7  C   UNL     1       1.962   4.205  17.841  0.00  0.00    +0.000 C 
ENDBRANCH   4   5
ENDBRANCH   1   2
BRANCH   1   8
ATOM      8  O   UNL     1       7.247   4.915  15.683  0.00  0.00    +0.000 OA
BRANCH   8  11
ATOM      9  C   UNL     1       6.079   3.428  12.622  0.00  0.00    +0.000 C 
ATOM     10  N   UNL     1       6.352   3.739  13.999  0.00  0.00    +0.000 N 
ATOM     11  C   UNL     1       7.154   4.788  14.341  0.00  0.00    +0.000 C 
ATOM     12  O   UNL     1       7.709   5.510  13.520  0.00  0.00    +0.000 OA
ATOM     13  H   UNL     1       5.924   3.225  14.751  0.00  0.00    +0.000 HD
ENDBRANCH   8  11
ENDBRANCH   1   8
TORSDOF 4
ENDMDL
MODEL 9
REMARK VINA RESULT:      -4.7      1.518      1.579
REMARK  Name = 
REMARK  7 active torsions:
REMARK  status: ('A' for Active; 'I' for Inactive)
REMARK    1  A    between atoms: C_1  and  N_2
REMARK    2  A    between atoms: C_3  and  O_5
REMARK    3  A    between atoms: O_5  and  C_6
REMARK    4  A    between atoms: C_6  and  C_7
REMARK    5  A    between atoms: C_9  and  N_10
REMARK    6  A    between atoms: N_10  and  C_11
REMARK    7  A    between atoms: N_10  and  C_12
REMARK                            x       y       z     vdW  Elec       q    Type
REMARK                         _______ _______ _______ _____ _____    ______ ____
ROOT
ATOM      1  C   UNL     1       4.218   5.932  17.517  0.00  0.00    +0.000 C 
ENDROOT
BRANCH   1   2
ATOM      2  C   UNL     1       3.196   4.840  17.488  0.00  0.00    +0.000 C 
ATOM      3  C   UNL     1       3.549   3.377  17.537  0.00  0.00    +0.000 C 
ATOM      4  C   UNL     1       2.880   4.024  18.725  0.00  0.00    +0.000 C 
BRANCH   4   5
ATOM      5  N   UNL     1       1.452   3.776  19.027  0.00  0.00    +0.000 NA
ATOM      6  C   UNL     1       1.042   2.393  18.780  0.00  0.00    +0.000 C 
ATOM      7  C   UNL     1       1.110   4.154  20.399  0.00  0.00    +0.000 C 
ENDBRANCH   4   5
ENDBRANCH   1   2
BRANCH   1   8
ATOM      8  O   UNL     1       5.232   5.730  16.519  0.00  0.00    +0.000 OA
BRANCH   8  11
ATOM      9  C   UNL     1       7.784   5.904  19.049  0.00  0.00    +0.000 C 
ATOM     10  N   UNL     1       6.540   5.788  18.337  0.00  0.00    +0.000 N 
ATOM     11  C   UNL     1       6.490   5.905  16.979  0.00  0.00    +0.000 C 
ATOM     12  O   UNL     1       7.474   6.138  16.284  0.00  0.00    +0.000 OA
ATOM     13  H   UNL     1       5.679   5.570  18.811  0.00  0.00    +0.000 HD
ENDBRANCH   8  11
ENDBRANCH   1   8
TORSDOF 4
ENDMDL
