MODEL 1
REMARK VINA RESULT:      -6.6      0.000      0.000
REMARK  Name = 
REMARK  5 active torsions:
REMARK  status: ('A' for Active; 'I' for Inactive)
REMARK    1  A    between atoms: C_1  and  S_2
REMARK    2  A    between atoms: S_2  and  C_3
REMARK    3  A    between atoms: C_3  and  C_4
REMARK    4  A    between atoms: C_4  and  C_5
REMARK    5  A    between atoms: C_11  and  C_12
REMARK                            x       y       z     vdW  Elec       q    Type
REMARK                         _______ _______ _______ _____ _____    ______ ____
ROOT
ATOM      1  C   UNL     1       6.916   5.000  15.028  0.00  0.00    +0.000 C 
ATOM      2  O   UNL     1       7.915   5.512  14.516  0.00  0.00    +0.000 OA
ATOM      3  N   UNL     1       6.407   5.440  16.243  0.00  0.00    +0.000 N 
ATOM      4  C   UNL     1       7.031   6.575  16.912  0.00  0.00    +0.000 C 
ATOM      5  C   UNL     1       7.608   6.162  18.259  0.00  0.00    +0.000 C 
ATOM      6  C   UNL     1       6.549   5.484  19.129  0.00  0.00    +0.000 C 
ATOM      7  C   UNL     1       5.869   4.322  18.390  0.00  0.00    +0.000 C 
ATOM      8  C   UNL     1       5.343   4.783  17.015  0.00  0.00    +0.000 C 
ENDROOT
BRANCH   7   9
ATOM      9  C   UNL     1       4.749   3.766  19.217  0.00  0.00    +0.000 A 
ATOM     10  N   UNL     1       3.644   4.390  19.561  0.00  0.00    +0.000 NA
ATOM     11  C   UNL     1       2.948   3.510  20.350  0.00  0.00    +0.000 A 
ATOM     12  C   UNL     1       3.635   2.333  20.485  0.00  0.00    +0.000 A 
ATOM     13  N   UNL     1       4.786   2.501  19.760  0.00  0.00    +0.000 N 
ATOM     14  H   UNL     1       5.529   1.831  19.655  0.00  0.00    +0.000 HD
ENDBRANCH   7   9
BRANCH   1  15
ATOM     15  C   UNL     1       6.146   3.917  14.299  0.00  0.00    +0.000 C 
BRANCH  15  16
ATOM     16  C   UNL     1       6.521   3.831  12.824  0.00  0.00    +0.000 C 
BRANCH  16  18
ATOM     17  C   UNL     1       5.874   1.575  11.339  0.00  0.00    +0.000 C 
ATOM     18  S   UNL     1       5.114   3.123  11.892  0.00  0.00    +0.000 S 
ENDBRANCH  16  18
ENDBRANCH  15  16
ENDBRANCH   1  15
TORSDOF 4
ENDMDL
MODEL 2
REMARK VINA RESULT:      -6.4      0.736      1.146
REMARK  Name = 
REMARK  5 active torsions:
REMARK  status: ('A' for Active; 'I' for Inactive)
REMARK    1  A    between atoms: C_1  and  S_2
REMARK    2  A    between atoms: S_2  and  C_3
REMARK    3  A    between atoms: C_3  and  C_4
REMARK    4  A    between atoms: C_4  and  C_5
REMARK    5  A    between atoms: C_11  and  C_12
REMARK                            x       y       z     vdW  Elec       q    Type
REMARK                         _______ _______ _______ _____ _____    ______ ____
ROOT
ATOM      1  C   UNL     1       6.872   4.991  14.941  0.00  0.00    +0.000 C 
ATOM      2  O   UNL     1       7.930   5.443  14.494  0.00  0.00    +0.000 OA
ATOM      3  N   UNL     1       6.344   5.421  16.151  0.00  0.00    +0.000 N 
ATOM      4  C   UNL     1       7.021   6.478  16.893  0.00  0.00    +0.000 C 
ATOM      5  C   UNL     1       7.504   5.970  18.245  0.00  0.00    +0.000 C 
ATOM      6  C   UNL     1       6.358   5.343  19.040  0.00  0.00    +0.000 C 
ATOM      7  C   UNL     1       5.625   4.267  18.224  0.00  0.00    +0.000 C 
ATOM      8  C   UNL     1       5.199   4.820  16.849  0.00  0.00    +0.000 C 
ENDROOT
BRANCH   7   9
ATOM      9  C   UNL     1       4.430   3.768  18.980  0.00  0.00    +0.000 A 
ATOM     10  N   UNL     1       4.365   2.679  19.711  0.00  0.00    +0.000 NA
ATOM     11  C   UNL     1       3.072   2.608  20.163  0.00  0.00    +0.000 A 
ATOM     12  C   UNL     1       2.340   3.672  19.705  0.00  0.00    +0.000 A 
ATOM     13  N   UNL     1       3.212   4.411  18.948  0.00  0.00    +0.000 N 
ATOM     14  H   UNL     1       2.999   5.257  18.448  0.00  0.00    +0.000 HD
ENDBRANCH   7   9
BRANCH   1  15
ATOM     15  C   UNL     1       6.056   4.000  14.135  0.00  0.00    +0.000 C 
BRANCH  15  16
ATOM     16  C   UNL     1       6.532   3.894  12.692  0.00  0.00    +0.000 C 
BRANCH  16  18
ATOM     17  C   UNL     1       4.167   3.295  11.365  0.00  0.00    +0.000 C 
ATOM     18  S   UNL     1       5.695   2.478  11.890  0.00  0.00    +0.000 S 
ENDBRANCH  16  18
ENDBRANCH  15  16
ENDBRANCH   1  15
TORSDOF 4
ENDMDL
MODEL 3
REMARK VINA RESULT:      -6.2      1.087      1.098
REMARK  Name = 
REMARK  5 active torsions:
REMARK  status: ('A' for Active; 'I' for Inactive)
REMARK    1  A    between atoms: C_1  and  S_2
REMARK    2  A    between atoms: S_2  and  C_3
REMARK    3  A    between atoms: C_3  and  C_4
REMARK    4  A    between atoms: C_4  and  C_5
REMARK    5  A    between atoms: C_11  and  C_12
REMARK                            x       y       z     vdW  Elec       q    Type
REMARK                         _______ _______ _______ _____ _____    ______ ____
ROOT
ATOM      1  C   UNL     1       6.631   4.940  14.866  0.00  0.00    +0.000 C 
ATOM      2  O   UNL     1       7.755   5.332  14.544  0.00  0.00    +0.000 OA
ATOM      3  N   UNL     1       6.026   5.338  16.051  0.00  0.00    +0.000 N 
ATOM      4  C   UNL     1       6.709   6.291  16.919  0.00  0.00    +0.000 C 
ATOM      5  C   UNL     1       7.026   5.666  18.271  0.00  0.00    +0.000 C 
ATOM      6  C   UNL     1       5.767   5.087  18.919  0.00  0.00    +0.000 C 
ATOM      7  C   UNL     1       5.035   4.124  17.972  0.00  0.00    +0.000 C 
ATOM      8  C   UNL     1       4.780   4.790  16.605  0.00  0.00    +0.000 C 
ENDROOT
BRANCH   7   9
ATOM      9  C   UNL     1       3.742   3.678  18.586  0.00  0.00    +0.000 A 
ATOM     10  N   UNL     1       2.575   4.272  18.472  0.00  0.00    +0.000 NA
ATOM     11  C   UNL     1       1.705   3.538  19.235  0.00  0.00    +0.000 A 
ATOM     12  C   UNL     1       2.348   2.479  19.819  0.00  0.00    +0.000 A 
ATOM     13  N   UNL     1       3.651   2.572  19.402  0.00  0.00    +0.000 N 
ATOM     14  H   UNL     1       4.405   1.958  19.656  0.00  0.00    +0.000 HD
ENDBRANCH   7   9
BRANCH   1  15
ATOM     15  C   UNL     1       5.820   4.067  13.928  0.00  0.00    +0.000 C 
BRANCH  15  16
ATOM     16  C   UNL     1       6.570   3.749  12.640  0.00  0.00    +0.000 C 
BRANCH  16  18
ATOM     17  C   UNL     1       4.150   3.287  11.357  0.00  0.00    +0.000 C 
ATOM     18  S   UNL     1       5.687   2.415  11.751  0.00  0.00    +0.000 S 
ENDBRANCH  16  18
ENDBRANCH  15  16
ENDBRANCH   1  15
TORSDOF 4
ENDMDL
MODEL 4
REMARK VINA RESULT:      -6.2      3.044      6.070
REMARK  Name = 
REMARK  5 active torsions:
REMARK  status: ('A' for Active; 'I' for Inactive)
REMARK    1  A    between atoms: C_1  and  S_2
REMARK    2  A    between atoms: S_2  and  C_3
REMARK    3  A    between atoms: C_3  and  C_4
REMARK    4  A    between atoms: C_4  and  C_5
REMARK    5  A    between atoms: C_11  and  C_12
REMARK                            x       y       z     vdW  Elec       q    Type
REMARK                         _______ _______ _______ _____ _____    ______ ____
ROOT
ATOM      1  C   UNL     1       3.680   4.943  18.676  0.00  0.00    +0.000 C 
ATOM      2  O   UNL     1       3.493   5.452  19.784  0.00  0.00    +0.000 OA
ATOM      3  N   UNL     1       4.955   4.757  18.159  0.00  0.00    +0.000 N 
ATOM      4  C   UNL     1       6.115   5.120  18.965  0.00  0.00    +0.000 C 
ATOM      5  C   UNL     1       6.917   6.229  18.298  0.00  0.00    +0.000 C 
ATOM      6  C   UNL     1       7.298   5.849  16.866  0.00  0.00    +0.000 C 
ATOM      7  C   UNL     1       6.071   5.423  16.047  0.00  0.00    +0.000 C 
ATOM      8  C   UNL     1       5.271   4.332  16.788  0.00  0.00    +0.000 C 
ENDROOT
BRANCH   7   9
ATOM      9  C   UNL     1       6.495   4.932  14.696  0.00  0.00    +0.000 A 
ATOM     10  N   UNL     1       7.504   5.379  13.981  0.00  0.00    +0.000 NA
ATOM     11  C   UNL     1       7.475   4.669  12.808  0.00  0.00    +0.000 A 
ATOM     12  C   UNL     1       6.437   3.775  12.809  0.00  0.00    +0.000 A 
ATOM     13  N   UNL     1       5.813   3.947  14.017  0.00  0.00    +0.000 N 
ATOM     14  H   UNL     1       4.998   3.456  14.343  0.00  0.00    +0.000 HD
ENDBRANCH   7   9
BRANCH   1  15
ATOM     15  C   UNL     1       2.514   4.414  17.865  0.00  0.00    +0.000 C 
BRANCH  15  16
ATOM     16  C   UNL     1       1.371   3.921  18.745  0.00  0.00    +0.000 C 
BRANCH  16  18
ATOM     17  C   UNL     1       1.578   2.631  21.196  0.00  0.00    +0.000 C 
ATOM     18  S   UNL     1       1.814   2.284  19.434  0.00  0.00    +0.000 S 
ENDBRANCH  16  18
ENDBRANCH  15  16
ENDBRANCH   1  15
TORSDOF 4
ENDMDL
MODEL 5
REMARK VINA RESULT:      -6.2      1.109      1.209
REMARK  Name = 
REMARK  5 active torsions:
REMARK  status: ('A' for Active; 'I' for Inactive)
REMARK    1  A    between atoms: C_1  and  S_2
REMARK    2  A    between atoms: S_2  and  C_3
REMARK    3  A    between atoms: C_3  and  C_4
REMARK    4  A    between atoms: C_4  and  C_5
REMARK    5  A    between atoms: C_11  and  C_12
REMARK                            x       y       z     vdW  Elec       q    Type
REMARK                         _______ _______ _______ _____ _____    ______ ____
ROOT
ATOM      1  C   UNL     1       6.554   4.746  15.262  0.00  0.00    +0.000 C 
ATOM      2  O   UNL     1       7.632   5.275  14.978  0.00  0.00    +0.000 OA
ATOM      3  N   UNL     1       5.812   5.142  16.367  0.00  0.00    +0.000 N 
ATOM      4  C   UNL     1       6.284   6.251  17.188  0.00  0.00    +0.000 C 
ATOM      5  C   UNL     1       6.585   5.789  18.607  0.00  0.00    +0.000 C 
ATOM      6  C   UNL     1       5.378   5.080  19.224  0.00  0.00    +0.000 C 
ATOM      7  C   UNL     1       4.865   3.948  18.322  0.00  0.00    +0.000 C 
ATOM      8  C   UNL     1       4.619   4.459  16.888  0.00  0.00    +0.000 C 
ENDROOT
BRANCH   7   9
ATOM      9  C   UNL     1       3.606   3.364  18.890  0.00  0.00    +0.000 A 
ATOM     10  N   UNL     1       3.263   3.325  20.159  0.00  0.00    +0.000 NA
ATOM     11  C   UNL     1       2.065   2.660  20.203  0.00  0.00    +0.000 A 
ATOM     12  C   UNL     1       1.669   2.291  18.943  0.00  0.00    +0.000 A 
ATOM     13  N   UNL     1       2.658   2.743  18.108  0.00  0.00    +0.000 N 
ATOM     14  H   UNL     1       2.693   2.628  17.109  0.00  0.00    +0.000 HD
ENDBRANCH   7   9
BRANCH   1  15
ATOM     15  C   UNL     1       5.950   3.692  14.356  0.00  0.00    +0.000 C 
BRANCH  15  16
ATOM     16  C   UNL     1       6.418   3.831  12.912  0.00  0.00    +0.000 C 
BRANCH  16  18
ATOM     17  C   UNL     1       5.924   1.591  11.347  0.00  0.00    +0.000 C 
ATOM     18  S   UNL     1       5.131   3.154  11.801  0.00  0.00    +0.000 S 
ENDBRANCH  16  18
ENDBRANCH  15  16
ENDBRANCH   1  15
TORSDOF 4
ENDMDL
MODEL 6
REMARK VINA RESULT:      -6.1      3.159      6.140
REMARK  Name = 
REMARK  5 active torsions:
REMARK  status: ('A' for Active; 'I' for Inactive)
REMARK    1  A    between atoms: C_1  and  S_2
REMARK    2  A    between atoms: S_2  and  C_3
REMARK    3  A    between atoms: C_3  and  C_4
REMARK    4  A    between atoms: C_4  and  C_5
REMARK    5  A    between atoms: C_11  and  C_12
REMARK                            x       y       z     vdW  Elec       q    Type
REMARK                         _______ _______ _______ _____ _____    ______ ____
ROOT
ATOM      1  C   UNL     1       3.814   5.069  18.779  0.00  0.00    +0.000 C 
ATOM      2  O   UNL     1       3.708   5.632  19.872  0.00  0.00    +0.000 OA
ATOM      3  N   UNL     1       5.047   4.878  18.169  0.00  0.00    +0.000 N 
ATOM      4  C   UNL     1       6.260   5.301  18.858  0.00  0.00    +0.000 C 
ATOM      5  C   UNL     1       6.982   6.387  18.072  0.00  0.00    +0.000 C 
ATOM      6  C   UNL     1       7.254   5.939  16.635  0.00  0.00    +0.000 C 
ATOM      7  C   UNL     1       5.974   5.451  15.942  0.00  0.00    +0.000 C 
ATOM      8  C   UNL     1       5.260   4.387  16.800  0.00  0.00    +0.000 C 
ENDROOT
BRANCH   7   9
ATOM      9  C   UNL     1       6.297   4.898  14.587  0.00  0.00    +0.000 A 
ATOM     10  N   UNL     1       5.642   3.954  13.949  0.00  0.00    +0.000 NA
ATOM     11  C   UNL     1       6.325   3.748  12.779  0.00  0.00    +0.000 A 
ATOM     12  C   UNL     1       7.410   4.581  12.699  0.00  0.00    +0.000 A 
ATOM     13  N   UNL     1       7.389   5.314  13.857  0.00  0.00    +0.000 N 
ATOM     14  H   UNL     1       8.055   6.015  14.133  0.00  0.00    +0.000 HD
ENDBRANCH   7   9
BRANCH   1  15
ATOM     15  C   UNL     1       2.598   4.479  18.094  0.00  0.00    +0.000 C 
BRANCH  15  16
ATOM     16  C   UNL     1       2.177   3.147  18.705  0.00  0.00    +0.000 C 
BRANCH  16  18
ATOM     17  C   UNL     1       1.766   2.890  21.439  0.00  0.00    +0.000 C 
ATOM     18  S   UNL     1       0.882   3.451  19.962  0.00  0.00    +0.000 S 
ENDBRANCH  16  18
ENDBRANCH  15  16
ENDBRANCH   1  15
TORSDOF 4
ENDMDL
MODEL 7
REMARK VINA RESULT:      -6.1      3.714      5.996
REMARK  Name = 
REMARK  5 active torsions:
REMARK  status: ('A' for Active; 'I' for Inactive)
REMARK    1  A    between atoms: C_1  and  S_2
REMARK    2  A    between atoms: S_2  and  C_3
REMARK    3  A    between atoms: C_3  and  C_4
REMARK    4  A    between atoms: C_4  and  C_5
REMARK    5  A    between atoms: C_11  and  C_12
REMARK                            x       y       z     vdW  Elec       q    Type
REMARK                         _______ _______ _______ _____ _____    ______ ____
ROOT
ATOM      1  C   UNL     1       2.027   4.962  20.489  0.00  0.00    +0.000 C 
ATOM      2  O   UNL     1       0.924   5.349  20.883  0.00  0.00    +0.000 OA
ATOM      3  N   UNL     1       2.902   5.803  19.814  0.00  0.00    +0.000 N 
ATOM      4  C   UNL     1       2.538   7.200  19.609  0.00  0.00    +0.000 C 
ATOM      5  C   UNL     1       2.413   7.519  18.126  0.00  0.00    +0.000 C 
ATOM      6  C   UNL     1       3.686   7.132  17.370  0.00  0.00    +0.000 C 
ATOM      7  C   UNL     1       4.081   5.672  17.637  0.00  0.00    +0.000 C 
ATOM      8  C   UNL     1       4.148   5.392  19.152  0.00  0.00    +0.000 C 
ENDROOT
BRANCH   7   9
ATOM      9  C   UNL     1       5.399   5.366  16.990  0.00  0.00    +0.000 A 
ATOM     10  N   UNL     1       5.885   5.919  15.902  0.00  0.00    +0.000 NA
ATOM     11  C   UNL     1       7.083   5.295  15.667  0.00  0.00    +0.000 A 
ATOM     12  C   UNL     1       7.333   4.351  16.629  0.00  0.00    +0.000 A 
ATOM     13  N   UNL     1       6.254   4.400  17.472  0.00  0.00    +0.000 N 
ATOM     14  H   UNL     1       6.104   3.825  18.284  0.00  0.00    +0.000 HD
ENDBRANCH   7   9
BRANCH   1  15
ATOM     15  C   UNL     1       2.512   3.562  20.808  0.00  0.00    +0.000 C 
BRANCH  15  16
ATOM     16  C   UNL     1       1.580   2.487  20.262  0.00  0.00    +0.000 C 
BRANCH  16  18
ATOM     17  C   UNL     1       3.127   1.990  18.009  0.00  0.00    +0.000 C 
ATOM     18  S   UNL     1       1.494   2.643  18.441  0.00  0.00    +0.000 S 
ENDBRANCH  16  18
ENDBRANCH  15  16
ENDBRANCH   1  15
TORSDOF 4
ENDMDL
MODEL 8
REMARK VINA RESULT:      -6.0      3.068      5.742
REMARK  Name = 
REMARK  5 active torsions:
REMARK  status: ('A' for Active; 'I' for Inactive)
REMARK    1  A    between atoms: C_1  and  S_2
REMARK    2  A    between atoms: S_2  and  C_3
REMARK    3  A    between atoms: C_3  and  C_4
REMARK    4  A    between atoms: C_4  and  C_5
REMARK    5  A    between atoms: C_11  and  C_12
REMARK                            x       y       z     vdW  Elec       q    Type
REMARK                         _______ _______ _______ _____ _____    ______ ____
ROOT
ATOM      1  C   UNL     1       3.581   5.346  18.732  0.00  0.00    +0.000 C 
ATOM      2  O   UNL     1       3.461   5.890  19.833  0.00  0.00    +0.000 OA
ATOM      3  N   UNL     1       4.825   5.026  18.203  0.00  0.00    +0.000 N 
ATOM      4  C   UNL     1       6.026   5.286  18.988  0.00  0.00    +0.000 C 
ATOM      5  C   UNL     1       6.924   6.299  18.292  0.00  0.00    +0.000 C 
ATOM      6  C   UNL     1       7.247   5.859  16.863  0.00  0.00    +0.000 C 
ATOM      7  C   UNL     1       5.972   5.543  16.067  0.00  0.00    +0.000 C 
ATOM      8  C   UNL     1       5.079   4.549  16.836  0.00  0.00    +0.000 C 
ENDROOT
BRANCH   7   9
ATOM      9  C   UNL     1       6.327   4.990  14.719  0.00  0.00    +0.000 A 
ATOM     10  N   UNL     1       5.692   4.040  14.069  0.00  0.00    +0.000 NA
ATOM     11  C   UNL     1       6.401   3.838  12.914  0.00  0.00    +0.000 A 
ATOM     12  C   UNL     1       7.482   4.678  12.855  0.00  0.00    +0.000 A 
ATOM     13  N   UNL     1       7.431   5.412  14.012  0.00  0.00    +0.000 N 
ATOM     14  H   UNL     1       8.087   6.118  14.300  0.00  0.00    +0.000 HD
ENDBRANCH   7   9
BRANCH   1  15
ATOM     15  C   UNL     1       2.358   4.921  17.944  0.00  0.00    +0.000 C 
BRANCH  15  16
ATOM     16  C   UNL     1       1.468   3.964  18.728  0.00  0.00    +0.000 C 
BRANCH  16  18
ATOM     17  C   UNL     1       3.025   1.767  18.048  0.00  0.00    +0.000 C 
ATOM     18  S   UNL     1       2.515   2.690  19.521  0.00  0.00    +0.000 S 
ENDBRANCH  16  18
ENDBRANCH  15  16
ENDBRANCH   1  15
TORSDOF 4
ENDMDL
MODEL 9
REMARK VINA RESULT:      -5.9      3.463      6.121
REMARK  Name = 
REMARK  5 active torsions:
REMARK  status: ('A' for Active; 'I' for Inactive)
REMARK    1  A    between atoms: C_1  and  S_2
REMARK    2  A    between atoms: S_2  and  C_3
REMARK    3  A    between atoms: C_3  and  C_4
REMARK    4  A    between atoms: C_4  and  C_5
REMARK    5  A    between atoms: C_11  and  C_12
REMARK                            x       y       z     vdW  Elec       q    Type
REMARK                         _______ _______ _______ _____ _____    ______ ____
ROOT
ATOM      1  C   UNL     1       4.204   3.226  18.259  0.00  0.00    +0.000 C 
ATOM      2  O   UNL     1       3.839   2.129  17.827  0.00  0.00    +0.000 OA
ATOM      3  N   UNL     1       4.720   4.208  17.423  0.00  0.00    +0.000 N 
ATOM      4  C   UNL     1       4.784   3.966  15.987  0.00  0.00    +0.000 C 
ATOM      5  C   UNL     1       6.226   3.974  15.497  0.00  0.00    +0.000 C 
ATOM      6  C   UNL     1       6.938   5.266  15.902  0.00  0.00    +0.000 C 
ATOM      7  C   UNL     1       6.818   5.529  17.411  0.00  0.00    +0.000 C 
ATOM      8  C   UNL     1       5.344   5.465  17.861  0.00  0.00    +0.000 C 
ENDROOT
BRANCH   7   9
ATOM      9  C   UNL     1       7.410   6.864  17.752  0.00  0.00    +0.000 A 
ATOM     10  N   UNL     1       7.224   7.992  17.105  0.00  0.00    +0.000 NA
ATOM     11  C   UNL     1       7.996   8.925  17.748  0.00  0.00    +0.000 A 
ATOM     12  C   UNL     1       8.660   8.358  18.804  0.00  0.00    +0.000 A 
ATOM     13  N   UNL     1       8.283   7.041  18.803  0.00  0.00    +0.000 N 
ATOM     14  H   UNL     1       8.597   6.329  19.441  0.00  0.00    +0.000 HD
ENDBRANCH   7   9
BRANCH   1  15
ATOM     15  C   UNL     1       4.018   3.580  19.721  0.00  0.00    +0.000 C 
BRANCH  15  16
ATOM     16  C   UNL     1       3.208   2.531  20.473  0.00  0.00    +0.000 C 
BRANCH  16  18
ATOM     17  C   UNL     1       1.581   4.782  20.415  0.00  0.00    +0.000 C 
ATOM     18  S   UNL     1       1.945   3.374  21.495  0.00  0.00    +0.000 S 
ENDBRANCH  16  18
ENDBRANCH  15  16
ENDBRANCH   1  15
TORSDOF 4
ENDMDL
