MODEL 1
REMARK VINA RESULT:      -8.4      0.000      0.000
REMARK  Name = 
REMARK  5 active torsions:
REMARK  status: ('A' for Active; 'I' for Inactive)
REMARK    1  A    between atoms: C_4  and  C_5
REMARK    2  A    between atoms: C_5  and  N_6
REMARK    3  A    between atoms: C_17  and  O_18
REMARK    4  A    between atoms: C_20  and  C_21
REMARK    5  A    between atoms: C_21  and  N_22
REMARK                            x       y       z     vdW  Elec       q    Type
REMARK                         _______ _______ _______ _____ _____    ______ ____
ROOT
ATOM      1  O   UNL     1       1.970  10.379  17.447  0.00  0.00    +0.000 OA
ATOM      2  C   UNL     1       2.008   9.425  18.200  0.00  0.00    +0.000 A 
ATOM      3  C   UNL     1       2.661   8.218  17.681  0.00  0.00    +0.000 A 
ATOM      4  C   UNL     1       2.779   7.117  18.424  0.00  0.00    +0.000 A 
ATOM      5  N   UNL     1       2.265   7.045  19.702  0.00  0.00    +0.000 NA
ATOM      6  C   UNL     1       1.673   8.096  20.173  0.00  0.00    +0.000 A 
ATOM      7  C   UNL     1       1.136   8.000  21.549  0.00  0.00    +0.000 A 
ATOM      8  C   UNL     1       0.495   9.025  22.118  0.00  0.00    +0.000 A 
ATOM      9  C   UNL     1       0.317  10.266  21.375  0.00  0.00    +0.000 A 
ATOM     10  C   UNL     1      -0.346  11.369  21.887  0.00  0.00    +0.000 A 
ATOM     11  C   UNL     1      -0.481  12.525  21.141  0.00  0.00    +0.000 A 
ATOM     12  C   UNL     1       0.056  12.596  19.864  0.00  0.00    +0.000 A 
ATOM     13  N   UNL     1       0.689  11.529  19.353  0.00  0.00    +0.000 NA
ATOM     14  C   UNL     1       0.826  10.391  20.075  0.00  0.00    +0.000 A 
ATOM     15  N   UNL     1       1.508   9.288  19.492  0.00  0.00    +0.000 N 
ENDROOT
BRANCH  10  16
ATOM     16  O   UNL     1      -0.910  11.440  23.137  0.00  0.00    +0.000 OA
ATOM     17  H   UNL     1      -1.238  12.322  23.325  0.00  0.00    +0.000 HD
ENDBRANCH  10  16
BRANCH   4  18
ATOM     18  C   UNL     1       3.423   5.845  17.871  0.00  0.00    +0.000 C 
BRANCH  18  19
ATOM     19  N   UNL     1       3.062   4.582  18.553  0.00  0.00    +0.000 NA
ATOM     20  C   UNL     1       2.166   3.762  17.720  0.00  0.00    +0.000 C 
ATOM     21  C   UNL     1       1.942   2.344  18.243  0.00  0.00    +0.000 C 
ATOM     22  C   UNL     1       3.257   1.654  18.570  0.00  0.00    +0.000 C 
ATOM     23  C   UNL     1       4.035   2.485  19.577  0.00  0.00    +0.000 C 
ATOM     24  C   UNL     1       4.266   3.911  19.076  0.00  0.00    +0.000 C 
ENDBRANCH  18  19
ENDBRANCH   4  18
BRANCH  12  25
ATOM     25  C   UNL     1      -0.021  13.837  18.981  0.00  0.00    +0.000 C 
BRANCH  25  26
ATOM     26  N   UNL     1       1.133  14.767  19.061  0.00  0.00    +0.000 NA
ATOM     27  C   UNL     1       2.274  14.260  18.276  0.00  0.00    +0.000 C 
ATOM     28  C   UNL     1       3.417  15.266  18.139  0.00  0.00    +0.000 C 
ATOM     29  C   UNL     1       2.918  16.626  17.674  0.00  0.00    +0.000 C 
ATOM     30  C   UNL     1       1.851  17.139  18.627  0.00  0.00    +0.000 C 
ATOM     31  C   UNL     1       0.700  16.143  18.759  0.00  0.00    +0.000 C 
ENDBRANCH  25  26
ENDBRANCH  12  25
TORSDOF 5
ENDMDL
MODEL 2
REMARK VINA RESULT:      -8.3      1.444      2.069
REMARK  Name = 
REMARK  5 active torsions:
REMARK  status: ('A' for Active; 'I' for Inactive)
REMARK    1  A    between atoms: C_4  and  C_5
REMARK    2  A    between atoms: C_5  and  N_6
REMARK    3  A    between atoms: C_17  and  O_18
REMARK    4  A    between atoms: C_20  and  C_21
REMARK    5  A    between atoms: C_21  and  N_22
REMARK                            x       y       z     vdW  Elec       q    Type
REMARK                         _______ _______ _______ _____ _____    ______ ____
ROOT
ATOM      1  O   UNL     1       2.069  10.064  17.449  0.00  0.00    +0.000 OA
ATOM      2  C   UNL     1       2.067   9.133  18.230  0.00  0.00    +0.000 A 
ATOM      3  C   UNL     1       2.774   7.922  17.798  0.00  0.00    +0.000 A 
ATOM      4  C   UNL     1       2.855   6.847  18.580  0.00  0.00    +0.000 A 
ATOM      5  N   UNL     1       2.250   6.802  19.820  0.00  0.00    +0.000 NA
ATOM      6  C   UNL     1       1.609   7.856  20.214  0.00  0.00    +0.000 A 
ATOM      7  C   UNL     1       0.975   7.791  21.550  0.00  0.00    +0.000 A 
ATOM      8  C   UNL     1       0.279   8.821  22.039  0.00  0.00    +0.000 A 
ATOM      9  C   UNL     1       0.136  10.036  21.248  0.00  0.00    +0.000 A 
ATOM     10  C   UNL     1      -0.579  11.142  21.677  0.00  0.00    +0.000 A 
ATOM     11  C   UNL     1      -0.677  12.273  20.889  0.00  0.00    +0.000 A 
ATOM     12  C   UNL     1      -0.050  12.316  19.652  0.00  0.00    +0.000 A 
ATOM     13  N   UNL     1       0.635  11.246  19.221  0.00  0.00    +0.000 NA
ATOM     14  C   UNL     1       0.737  10.132  19.985  0.00  0.00    +0.000 A 
ATOM     15  N   UNL     1       1.476   9.025  19.486  0.00  0.00    +0.000 N 
ENDROOT
BRANCH  10  16
ATOM     16  O   UNL     1      -1.233  11.240  22.880  0.00  0.00    +0.000 OA
ATOM     17  H   UNL     1      -0.660  11.590  23.565  0.00  0.00    +0.000 HD
ENDBRANCH  10  16
BRANCH   4  18
ATOM     18  C   UNL     1       3.557   5.570  18.114  0.00  0.00    +0.000 C 
BRANCH  18  19
ATOM     19  N   UNL     1       4.939   5.733  17.611  0.00  0.00    +0.000 NA
ATOM     20  C   UNL     1       5.924   5.584  18.696  0.00  0.00    +0.000 C 
ATOM     21  C   UNL     1       7.374   5.498  18.223  0.00  0.00    +0.000 C 
ATOM     22  C   UNL     1       7.540   4.468  17.115  0.00  0.00    +0.000 C 
ATOM     23  C   UNL     1       6.614   4.806  15.959  0.00  0.00    +0.000 C 
ATOM     24  C   UNL     1       5.157   4.904  16.412  0.00  0.00    +0.000 C 
ENDBRANCH  18  19
ENDBRANCH   4  18
BRANCH  12  25
ATOM     25  C   UNL     1      -0.082  13.530  18.729  0.00  0.00    +0.000 C 
BRANCH  25  26
ATOM     26  N   UNL     1       1.000  14.528  18.927  0.00  0.00    +0.000 NA
ATOM     27  C   UNL     1       2.228  14.122  18.221  0.00  0.00    +0.000 C 
ATOM     28  C   UNL     1       3.309  15.202  18.203  0.00  0.00    +0.000 C 
ATOM     29  C   UNL     1       2.759  16.543  17.739  0.00  0.00    +0.000 C 
ATOM     30  C   UNL     1       1.590  16.954  18.619  0.00  0.00    +0.000 C 
ATOM     31  C   UNL     1       0.500  15.883  18.631  0.00  0.00    +0.000 C 
ENDBRANCH  25  26
ENDBRANCH  12  25
TORSDOF 5
ENDMDL
MODEL 3
REMARK VINA RESULT:      -8.2      1.376      2.058
REMARK  Name = 
REMARK  5 active torsions:
REMARK  status: ('A' for Active; 'I' for Inactive)
REMARK    1  A    between atoms: C_4  and  C_5
REMARK    2  A    between atoms: C_5  and  N_6
REMARK    3  A    between atoms: C_17  and  O_18
REMARK    4  A    between atoms: C_20  and  C_21
REMARK    5  A    between atoms: C_21  and  N_22
REMARK                            x       y       z     vdW  Elec       q    Type
REMARK                         _______ _______ _______ _____ _____    ______ ____
ROOT
ATOM      1  O   UNL     1       2.153   9.851  17.297  0.00  0.00    +0.000 OA
ATOM      2  C   UNL     1       2.144   8.932  18.093  0.00  0.00    +0.000 A 
ATOM      3  C   UNL     1       2.705   7.661  17.620  0.00  0.00    +0.000 A 
ATOM      4  C   UNL     1       2.766   6.591  18.411  0.00  0.00    +0.000 A 
ATOM      5  N   UNL     1       2.276   6.611  19.701  0.00  0.00    +0.000 NA
ATOM      6  C   UNL     1       1.765   7.720  20.132  0.00  0.00    +0.000 A 
ATOM      7  C   UNL     1       1.252   7.723  21.521  0.00  0.00    +0.000 A 
ATOM      8  C   UNL     1       0.693   8.814  22.052  0.00  0.00    +0.000 A 
ATOM      9  C   UNL     1       0.581  10.028  21.255  0.00  0.00    +0.000 A 
ATOM     10  C   UNL     1       0.003  11.196  21.727  0.00  0.00    +0.000 A 
ATOM     11  C   UNL     1      -0.071  12.323  20.930  0.00  0.00    +0.000 A 
ATOM     12  C   UNL     1       0.442  12.299  19.642  0.00  0.00    +0.000 A 
ATOM     13  N   UNL     1       0.992  11.169  19.170  0.00  0.00    +0.000 NA
ATOM     14  C   UNL     1       1.069  10.059  19.942  0.00  0.00    +0.000 A 
ATOM     15  N   UNL     1       1.664   8.888  19.399  0.00  0.00    +0.000 N 
ENDROOT
BRANCH  10  16
ATOM     16  O   UNL     1      -0.527  11.362  22.982  0.00  0.00    +0.000 OA
ATOM     17  H   UNL     1      -0.486  10.550  23.492  0.00  0.00    +0.000 HD
ENDBRANCH  10  16
BRANCH   4  18
ATOM     18  C   UNL     1       3.313   5.254  17.907  0.00  0.00    +0.000 C 
BRANCH  18  19
ATOM     19  N   UNL     1       4.787   5.136  17.839  0.00  0.00    +0.000 NA
ATOM     20  C   UNL     1       5.331   5.885  16.694  0.00  0.00    +0.000 C 
ATOM     21  C   UNL     1       6.853   6.014  16.691  0.00  0.00    +0.000 C 
ATOM     22  C   UNL     1       7.375   6.505  18.033  0.00  0.00    +0.000 C 
ATOM     23  C   UNL     1       6.913   5.566  19.136  0.00  0.00    +0.000 C 
ATOM     24  C   UNL     1       5.392   5.418  19.153  0.00  0.00    +0.000 C 
ENDBRANCH  18  19
ENDBRANCH   4  18
BRANCH  12  25
ATOM     25  C   UNL     1       0.427  13.501  18.703  0.00  0.00    +0.000 C 
BRANCH  25  26
ATOM     26  N   UNL     1       1.549  14.461  18.856  0.00  0.00    +0.000 NA
ATOM     27  C   UNL     1       2.685  14.088  17.994  0.00  0.00    +0.000 C 
ATOM     28  C   UNL     1       3.786  15.147  17.940  0.00  0.00    +0.000 C 
ATOM     29  C   UNL     1       3.225  16.528  17.638  0.00  0.00    +0.000 C 
ATOM     30  C   UNL     1       2.167  16.893  18.667  0.00  0.00    +0.000 C 
ATOM     31  C   UNL     1       1.057  15.844  18.717  0.00  0.00    +0.000 C 
ENDBRANCH  25  26
ENDBRANCH  12  25
TORSDOF 5
ENDMDL
MODEL 4
REMARK VINA RESULT:      -8.1      0.682      1.084
REMARK  Name = 
REMARK  5 active torsions:
REMARK  status: ('A' for Active; 'I' for Inactive)
REMARK    1  A    between atoms: C_4  and  C_5
REMARK    2  A    between atoms: C_5  and  N_6
REMARK    3  A    between atoms: C_17  and  O_18
REMARK    4  A    between atoms: C_20  and  C_21
REMARK    5  A    between atoms: C_21  and  N_22
REMARK                            x       y       z     vdW  Elec       q    Type
REMARK                         _______ _______ _______ _____ _____    ______ ____
ROOT
ATOM      1  O   UNL     1       1.878  10.271  17.428  0.00  0.00    +0.000 OA
ATOM      2  C   UNL     1       1.958   9.329  18.191  0.00  0.00    +0.000 A 
ATOM      3  C   UNL     1       2.633   8.132  17.673  0.00  0.00    +0.000 A 
ATOM      4  C   UNL     1       2.797   7.045  18.427  0.00  0.00    +0.000 A 
ATOM      5  N   UNL     1       2.313   6.976  19.717  0.00  0.00    +0.000 NA
ATOM      6  C   UNL     1       1.703   8.017  20.187  0.00  0.00    +0.000 A 
ATOM      7  C   UNL     1       1.199   7.924  21.577  0.00  0.00    +0.000 A 
ATOM      8  C   UNL     1       0.543   8.939  22.146  0.00  0.00    +0.000 A 
ATOM      9  C   UNL     1       0.315  10.165  21.392  0.00  0.00    +0.000 A 
ATOM     10  C   UNL     1      -0.367  11.257  21.904  0.00  0.00    +0.000 A 
ATOM     11  C   UNL     1      -0.550  12.398  21.148  0.00  0.00    +0.000 A 
ATOM     12  C   UNL     1      -0.042  12.467  19.858  0.00  0.00    +0.000 A 
ATOM     13  N   UNL     1       0.608  11.410  19.346  0.00  0.00    +0.000 NA
ATOM     14  C   UNL     1       0.792  10.286  20.080  0.00  0.00    +0.000 A 
ATOM     15  N   UNL     1       1.490   9.195  19.495  0.00  0.00    +0.000 N 
ENDROOT
BRANCH  10  16
ATOM     16  O   UNL     1      -0.905  11.329  23.166  0.00  0.00    +0.000 OA
ATOM     17  H   UNL     1      -1.842  11.123  23.161  0.00  0.00    +0.000 HD
ENDBRANCH  10  16
BRANCH   4  18
ATOM     18  C   UNL     1       3.463   5.784  17.876  0.00  0.00    +0.000 C 
BRANCH  18  19
ATOM     19  N   UNL     1       3.110   4.513  18.547  0.00  0.00    +0.000 NA
ATOM     20  C   UNL     1       2.235   3.686  17.699  0.00  0.00    +0.000 C 
ATOM     21  C   UNL     1       2.021   2.263  18.213  0.00  0.00    +0.000 C 
ATOM     22  C   UNL     1       3.341   1.588  18.554  0.00  0.00    +0.000 C 
ATOM     23  C   UNL     1       4.096   2.424  19.575  0.00  0.00    +0.000 C 
ATOM     24  C   UNL     1       4.315   3.855  19.082  0.00  0.00    +0.000 C 
ENDBRANCH  18  19
ENDBRANCH   4  18
BRANCH  12  25
ATOM     25  C   UNL     1      -0.173  13.694  18.962  0.00  0.00    +0.000 C 
BRANCH  25  26
ATOM     26  N   UNL     1       1.033  14.552  18.852  0.00  0.00    +0.000 NA
ATOM     27  C   UNL     1       1.343  15.195  20.142  0.00  0.00    +0.000 C 
ATOM     28  C   UNL     1       2.689  15.919  20.157  0.00  0.00    +0.000 C 
ATOM     29  C   UNL     1       3.811  15.033  19.637  0.00  0.00    +0.000 C 
ATOM     30  C   UNL     1       3.474  14.537  18.240  0.00  0.00    +0.000 C 
ATOM     31  C   UNL     1       2.135  13.802  18.221  0.00  0.00    +0.000 C 
ENDBRANCH  25  26
ENDBRANCH  12  25
TORSDOF 5
ENDMDL
MODEL 5
REMARK VINA RESULT:      -8.1      0.779      1.240
REMARK  Name = 
REMARK  5 active torsions:
REMARK  status: ('A' for Active; 'I' for Inactive)
REMARK    1  A    between atoms: C_4  and  C_5
REMARK    2  A    between atoms: C_5  and  N_6
REMARK    3  A    between atoms: C_17  and  O_18
REMARK    4  A    between atoms: C_20  and  C_21
REMARK    5  A    between atoms: C_21  and  N_22
REMARK                            x       y       z     vdW  Elec       q    Type
REMARK                         _______ _______ _______ _____ _____    ______ ____
ROOT
ATOM      1  O   UNL     1       2.081  10.044  17.385  0.00  0.00    +0.000 OA
ATOM      2  C   UNL     1       2.087   9.112  18.164  0.00  0.00    +0.000 A 
ATOM      3  C   UNL     1       2.704   7.870  17.683  0.00  0.00    +0.000 A 
ATOM      4  C   UNL     1       2.786   6.788  18.458  0.00  0.00    +0.000 A 
ATOM      5  N   UNL     1       2.266   6.769  19.736  0.00  0.00    +0.000 NA
ATOM      6  C   UNL     1       1.705   7.851  20.173  0.00  0.00    +0.000 A 
ATOM      7  C   UNL     1       1.161   7.811  21.550  0.00  0.00    +0.000 A 
ATOM      8  C   UNL     1       0.550   8.871  22.086  0.00  0.00    +0.000 A 
ATOM      9  C   UNL     1       0.412  10.095  21.307  0.00  0.00    +0.000 A 
ATOM     10  C   UNL     1      -0.218  11.233  21.784  0.00  0.00    +0.000 A 
ATOM     11  C   UNL     1      -0.315  12.370  21.005  0.00  0.00    +0.000 A 
ATOM     12  C   UNL     1       0.229  12.388  19.729  0.00  0.00    +0.000 A 
ATOM     13  N   UNL     1       0.830  11.287  19.251  0.00  0.00    +0.000 NA
ATOM     14  C   UNL     1       0.929  10.166  20.006  0.00  0.00    +0.000 A 
ATOM     15  N   UNL     1       1.579   9.027  19.457  0.00  0.00    +0.000 N 
ENDROOT
BRANCH  10  16
ATOM     16  O   UNL     1      -0.783  11.357  23.029  0.00  0.00    +0.000 OA
ATOM     17  H   UNL     1      -0.267  11.936  23.594  0.00  0.00    +0.000 HD
ENDBRANCH  10  16
BRANCH   4  18
ATOM     18  C   UNL     1       3.392   5.482  17.945  0.00  0.00    +0.000 C 
BRANCH  18  19
ATOM     19  N   UNL     1       2.906   4.240  18.587  0.00  0.00    +0.000 NA
ATOM     20  C   UNL     1       3.296   4.184  20.006  0.00  0.00    +0.000 C 
ATOM     21  C   UNL     1       2.632   3.059  20.798  0.00  0.00    +0.000 C 
ATOM     22  C   UNL     1       1.125   3.041  20.588  0.00  0.00    +0.000 C 
ATOM     23  C   UNL     1       0.817   2.914  19.105  0.00  0.00    +0.000 C 
ATOM     24  C   UNL     1       1.477   4.027  18.292  0.00  0.00    +0.000 C 
ENDBRANCH  18  19
ENDBRANCH   4  18
BRANCH  12  25
ATOM     25  C   UNL     1       0.192  13.605  18.810  0.00  0.00    +0.000 C 
BRANCH  25  26
ATOM     26  N   UNL     1       1.351  14.527  18.905  0.00  0.00    +0.000 NA
ATOM     27  C   UNL     1       2.453  14.084  18.032  0.00  0.00    +0.000 C 
ATOM     28  C   UNL     1       3.590  15.099  17.917  0.00  0.00    +0.000 C 
ATOM     29  C   UNL     1       3.072  16.489  17.580  0.00  0.00    +0.000 C 
ATOM     30  C   UNL     1       2.052  16.927  18.618  0.00  0.00    +0.000 C 
ATOM     31  C   UNL     1       0.907  15.922  18.729  0.00  0.00    +0.000 C 
ENDBRANCH  25  26
ENDBRANCH  12  25
TORSDOF 5
ENDMDL
MODEL 6
REMARK VINA RESULT:      -8.0      1.571      2.348
REMARK  Name = 
REMARK  5 active torsions:
REMARK  status: ('A' for Active; 'I' for Inactive)
REMARK    1  A    between atoms: C_4  and  C_5
REMARK    2  A    between atoms: C_5  and  N_6
REMARK    3  A    between atoms: C_17  and  O_18
REMARK    4  A    between atoms: C_20  and  C_21
REMARK    5  A    between atoms: C_21  and  N_22
REMARK                            x       y       z     vdW  Elec       q    Type
REMARK                         _______ _______ _______ _____ _____    ______ ____
ROOT
ATOM      1  O   UNL     1       2.000  10.070  17.383  0.00  0.00    +0.000 OA
ATOM      2  C   UNL     1       2.033   9.150  18.176  0.00  0.00    +0.000 A 
ATOM      3  C   UNL     1       2.768   7.954  17.749  0.00  0.00    +0.000 A 
ATOM      4  C   UNL     1       2.887   6.890  18.544  0.00  0.00    +0.000 A 
ATOM      5  N   UNL     1       2.299   6.845  19.791  0.00  0.00    +0.000 NA
ATOM      6  C   UNL     1       1.634   7.886  20.180  0.00  0.00    +0.000 A 
ATOM      7  C   UNL     1       1.018   7.820  21.525  0.00  0.00    +0.000 A 
ATOM      8  C   UNL     1       0.300   8.837  22.010  0.00  0.00    +0.000 A 
ATOM      9  C   UNL     1       0.115  10.038  21.206  0.00  0.00    +0.000 A 
ATOM     10  C   UNL     1      -0.626  11.129  21.630  0.00  0.00    +0.000 A 
ATOM     11  C   UNL     1      -0.764  12.247  20.830  0.00  0.00    +0.000 A 
ATOM     12  C   UNL     1      -0.153  12.292  19.585  0.00  0.00    +0.000 A 
ATOM     13  N   UNL     1       0.556  11.235  19.158  0.00  0.00    +0.000 NA
ATOM     14  C   UNL     1       0.697  10.134  19.935  0.00  0.00    +0.000 A 
ATOM     15  N   UNL     1       1.460   9.041  19.440  0.00  0.00    +0.000 N 
ENDROOT
BRANCH  10  16
ATOM     16  O   UNL     1      -1.268  11.224  22.840  0.00  0.00    +0.000 OA
ATOM     17  H   UNL     1      -0.937  11.962  23.357  0.00  0.00    +0.000 HD
ENDBRANCH  10  16
BRANCH   4  18
ATOM     18  C   UNL     1       3.618   5.628  18.085  0.00  0.00    +0.000 C 
BRANCH  18  19
ATOM     19  N   UNL     1       5.053   5.787  17.758  0.00  0.00    +0.000 NA
ATOM     20  C   UNL     1       5.901   5.536  18.936  0.00  0.00    +0.000 C 
ATOM     21  C   UNL     1       7.395   5.443  18.628  0.00  0.00    +0.000 C 
ATOM     22  C   UNL     1       7.670   4.490  17.475  0.00  0.00    +0.000 C 
ATOM     23  C   UNL     1       6.891   4.933  16.247  0.00  0.00    +0.000 C 
ATOM     24  C   UNL     1       5.394   5.039  16.534  0.00  0.00    +0.000 C 
ENDBRANCH  18  19
ENDBRANCH   4  18
BRANCH  12  25
ATOM     25  C   UNL     1      -0.229  13.492  18.647  0.00  0.00    +0.000 C 
BRANCH  25  26
ATOM     26  N   UNL     1       0.948  14.397  18.651  0.00  0.00    +0.000 NA
ATOM     27  C   UNL     1       1.091  15.073  19.953  0.00  0.00    +0.000 C 
ATOM     28  C   UNL     1       2.398  15.852  20.098  0.00  0.00    +0.000 C 
ATOM     29  C   UNL     1       3.604  15.005  19.721  0.00  0.00    +0.000 C 
ATOM     30  C   UNL     1       3.439  14.472  18.307  0.00  0.00    +0.000 C 
ATOM     31  C   UNL     1       2.140  13.683  18.158  0.00  0.00    +0.000 C 
ENDBRANCH  25  26
ENDBRANCH  12  25
TORSDOF 5
ENDMDL
MODEL 7
REMARK VINA RESULT:      -7.9      1.364      1.547
REMARK  Name = 
REMARK  5 active torsions:
REMARK  status: ('A' for Active; 'I' for Inactive)
REMARK    1  A    between atoms: C_4  and  C_5
REMARK    2  A    between atoms: C_5  and  N_6
REMARK    3  A    between atoms: C_17  and  O_18
REMARK    4  A    between atoms: C_20  and  C_21
REMARK    5  A    between atoms: C_21  and  N_22
REMARK                            x       y       z     vdW  Elec       q    Type
REMARK                         _______ _______ _______ _____ _____    ______ ____
ROOT
ATOM      1  O   UNL     1       1.451  10.444  18.058  0.00  0.00    +0.000 OA
ATOM      2  C   UNL     1       1.420   9.678  19.000  0.00  0.00    +0.000 A 
ATOM      3  C   UNL     1       2.053   8.370  18.793  0.00  0.00    +0.000 A 
ATOM      4  C   UNL     1       2.097   7.457  19.763  0.00  0.00    +0.000 A 
ATOM      5  N   UNL     1       1.522   7.679  20.997  0.00  0.00    +0.000 NA
ATOM      6  C   UNL     1       0.947   8.822  21.195  0.00  0.00    +0.000 A 
ATOM      7  C   UNL     1       0.345   9.044  22.530  0.00  0.00    +0.000 A 
ATOM      8  C   UNL     1      -0.284  10.185  22.826  0.00  0.00    +0.000 A 
ATOM      9  C   UNL     1      -0.383  11.236  21.823  0.00  0.00    +0.000 A 
ATOM     10  C   UNL     1      -1.029  12.442  22.046  0.00  0.00    +0.000 A 
ATOM     11  C   UNL     1      -1.088  13.409  21.061  0.00  0.00    +0.000 A 
ATOM     12  C   UNL     1      -0.490  13.184  19.829  0.00  0.00    +0.000 A 
ATOM     13  N   UNL     1       0.127  12.015  19.597  0.00  0.00    +0.000 NA
ATOM     14  C   UNL     1       0.189  11.060  20.556  0.00  0.00    +0.000 A 
ATOM     15  N   UNL     1       0.857   9.840  20.263  0.00  0.00    +0.000 N 
ENDROOT
BRANCH  10  16
ATOM     16  O   UNL     1      -1.646  12.799  23.219  0.00  0.00    +0.000 OA
ATOM     17  H   UNL     1      -2.554  12.489  23.248  0.00  0.00    +0.000 HD
ENDBRANCH  10  16
BRANCH   4  18
ATOM     18  C   UNL     1       2.719   6.078  19.535  0.00  0.00    +0.000 C 
BRANCH  18  19
ATOM     19  N   UNL     1       1.816   4.918  19.707  0.00  0.00    +0.000 NA
ATOM     20  C   UNL     1       1.656   4.173  18.446  0.00  0.00    +0.000 C 
ATOM     21  C   UNL     1       0.938   2.833  18.594  0.00  0.00    +0.000 C 
ATOM     22  C   UNL     1       1.539   1.997  19.714  0.00  0.00    +0.000 C 
ATOM     23  C   UNL     1       1.496   2.779  21.016  0.00  0.00    +0.000 C 
ATOM     24  C   UNL     1       2.204   4.128  20.889  0.00  0.00    +0.000 C 
ENDBRANCH  18  19
ENDBRANCH   4  18
BRANCH  12  25
ATOM     25  C   UNL     1      -0.482  14.203  18.694  0.00  0.00    +0.000 C 
BRANCH  25  26
ATOM     26  N   UNL     1       0.187  15.496  18.984  0.00  0.00    +0.000 NA
ATOM     27  C   UNL     1       1.624  15.431  18.661  0.00  0.00    +0.000 C 
ATOM     28  C   UNL     1       2.329  16.785  18.732  0.00  0.00    +0.000 C 
ATOM     29  C   UNL     1       1.580  17.852  17.948  0.00  0.00    +0.000 C 
ATOM     30  C   UNL     1       0.150  17.955  18.450  0.00  0.00    +0.000 C 
ATOM     31  C   UNL     1      -0.565  16.606  18.371  0.00  0.00    +0.000 C 
ENDBRANCH  25  26
ENDBRANCH  12  25
TORSDOF 5
ENDMDL
MODEL 8
REMARK VINA RESULT:      -7.9      3.148      9.662
REMARK  Name = 
REMARK  5 active torsions:
REMARK  status: ('A' for Active; 'I' for Inactive)
REMARK    1  A    between atoms: C_4  and  C_5
REMARK    2  A    between atoms: C_5  and  N_6
REMARK    3  A    between atoms: C_17  and  O_18
REMARK    4  A    between atoms: C_20  and  C_21
REMARK    5  A    between atoms: C_21  and  N_22
REMARK                            x       y       z     vdW  Elec       q    Type
REMARK                         _______ _______ _______ _____ _____    ______ ____
ROOT
ATOM      1  O   UNL     1      -0.321   9.023  23.053  0.00  0.00    +0.000 OA
ATOM      2  C   UNL     1      -0.584  10.083  22.521  0.00  0.00    +0.000 A 
ATOM      3  C   UNL     1      -1.429  11.002  23.292  0.00  0.00    +0.000 A 
ATOM      4  C   UNL     1      -1.766  12.202  22.817  0.00  0.00    +0.000 A 
ATOM      5  N   UNL     1      -1.367  12.626  21.566  0.00  0.00    +0.000 NA
ATOM      6  C   UNL     1      -0.631  11.824  20.865  0.00  0.00    +0.000 A 
ATOM      7  C   UNL     1      -0.207  12.302  19.530  0.00  0.00    +0.000 A 
ATOM      8  C   UNL     1       0.541  11.541  18.725  0.00  0.00    +0.000 A 
ATOM      9  C   UNL     1       0.951  10.214  19.163  0.00  0.00    +0.000 A 
ATOM     10  C   UNL     1       1.714   9.359  18.384  0.00  0.00    +0.000 A 
ATOM     11  C   UNL     1       2.081   8.111  18.851  0.00  0.00    +0.000 A 
ATOM     12  C   UNL     1       1.692   7.700  20.118  0.00  0.00    +0.000 A 
ATOM     13  N   UNL     1       0.941   8.514  20.876  0.00  0.00    +0.000 NA
ATOM     14  C   UNL     1       0.575   9.739  20.427  0.00  0.00    +0.000 A 
ATOM     15  N   UNL     1      -0.217  10.567  21.268  0.00  0.00    +0.000 N 
ENDROOT
BRANCH  10  16
ATOM     16  O   UNL     1       2.178   9.644  17.124  0.00  0.00    +0.000 OA
ATOM     17  H   UNL     1       1.457   9.783  16.506  0.00  0.00    +0.000 HD
ENDBRANCH  10  16
BRANCH   4  18
ATOM     18  C   UNL     1      -2.680  13.144  23.601  0.00  0.00    +0.000 C 
BRANCH  18  19
ATOM     19  N   UNL     1      -4.110  13.134  23.217  0.00  0.00    +0.000 NA
ATOM     20  C   UNL     1      -4.952  12.607  24.305  0.00  0.00    +0.000 C 
ATOM     21  C   UNL     1      -6.453  12.788  24.083  0.00  0.00    +0.000 C 
ATOM     22  C   UNL     1      -6.793  14.220  23.700  0.00  0.00    +0.000 C 
ATOM     23  C   UNL     1      -6.011  14.617  22.458  0.00  0.00    +0.000 C 
ATOM     24  C   UNL     1      -4.506  14.438  22.656  0.00  0.00    +0.000 C 
ENDBRANCH  18  19
ENDBRANCH   4  18
BRANCH  12  25
ATOM     25  C   UNL     1       2.073   6.354  20.725  0.00  0.00    +0.000 C 
BRANCH  25  26
ATOM     26  N   UNL     1       1.960   5.178  19.825  0.00  0.00    +0.000 NA
ATOM     27  C   UNL     1       3.289   4.619  19.519  0.00  0.00    +0.000 C 
ATOM     28  C   UNL     1       3.234   3.284  18.775  0.00  0.00    +0.000 C 
ATOM     29  C   UNL     1       2.304   2.294  19.460  0.00  0.00    +0.000 C 
ATOM     30  C   UNL     1       0.917   2.900  19.598  0.00  0.00    +0.000 C 
ATOM     31  C   UNL     1       0.963   4.228  20.352  0.00  0.00    +0.000 C 
ENDBRANCH  25  26
ENDBRANCH  12  25
TORSDOF 5
ENDMDL
MODEL 9
REMARK VINA RESULT:      -7.8      1.506      2.342
REMARK  Name = 
REMARK  5 active torsions:
REMARK  status: ('A' for Active; 'I' for Inactive)
REMARK    1  A    between atoms: C_4  and  C_5
REMARK    2  A    between atoms: C_5  and  N_6
REMARK    3  A    between atoms: C_17  and  O_18
REMARK    4  A    between atoms: C_20  and  C_21
REMARK    5  A    between atoms: C_21  and  N_22
REMARK                            x       y       z     vdW  Elec       q    Type
REMARK                         _______ _______ _______ _____ _____    ______ ____
ROOT
ATOM      1  O   UNL     1       2.091   9.813  17.286  0.00  0.00    +0.000 OA
ATOM      2  C   UNL     1       2.098   8.914  18.104  0.00  0.00    +0.000 A 
ATOM      3  C   UNL     1       2.662   7.635  17.655  0.00  0.00    +0.000 A 
ATOM      4  C   UNL     1       2.740   6.585  18.472  0.00  0.00    +0.000 A 
ATOM      5  N   UNL     1       2.265   6.633  19.766  0.00  0.00    +0.000 NA
ATOM      6  C   UNL     1       1.752   7.749  20.177  0.00  0.00    +0.000 A 
ATOM      7  C   UNL     1       1.256   7.782  21.571  0.00  0.00    +0.000 A 
ATOM      8  C   UNL     1       0.695   8.882  22.083  0.00  0.00    +0.000 A 
ATOM      9  C   UNL     1       0.566  10.076  21.258  0.00  0.00    +0.000 A 
ATOM     10  C   UNL     1      -0.014  11.251  21.708  0.00  0.00    +0.000 A 
ATOM     11  C   UNL     1      -0.106  12.358  20.885  0.00  0.00    +0.000 A 
ATOM     12  C   UNL     1       0.391  12.306  19.591  0.00  0.00    +0.000 A 
ATOM     13  N   UNL     1       0.943  11.169  19.140  0.00  0.00    +0.000 NA
ATOM     14  C   UNL     1       1.038  10.078  19.938  0.00  0.00    +0.000 A 
ATOM     15  N   UNL     1       1.634   8.898  19.416  0.00  0.00    +0.000 N 
ENDROOT
BRANCH  10  16
ATOM     16  O   UNL     1      -0.531  11.444  22.965  0.00  0.00    +0.000 OA
ATOM     17  H   UNL     1       0.078  11.930  23.525  0.00  0.00    +0.000 HD
ENDBRANCH  10  16
BRANCH   4  18
ATOM     18  C   UNL     1       3.290   5.240  17.993  0.00  0.00    +0.000 C 
BRANCH  18  19
ATOM     19  N   UNL     1       4.763   5.132  17.902  0.00  0.00    +0.000 NA
ATOM     20  C   UNL     1       5.281   5.864  16.733  0.00  0.00    +0.000 C 
ATOM     21  C   UNL     1       6.802   6.005  16.701  0.00  0.00    +0.000 C 
ATOM     22  C   UNL     1       7.342   6.526  18.024  0.00  0.00    +0.000 C 
ATOM     23  C   UNL     1       6.908   5.606  19.153  0.00  0.00    +0.000 C 
ATOM     24  C   UNL     1       5.389   5.445  19.199  0.00  0.00    +0.000 C 
ENDBRANCH  18  19
ENDBRANCH   4  18
BRANCH  12  25
ATOM     25  C   UNL     1       0.357  13.484  18.624  0.00  0.00    +0.000 C 
BRANCH  25  26
ATOM     26  N   UNL     1       1.535  14.387  18.656  0.00  0.00    +0.000 NA
ATOM     27  C   UNL     1       1.680  15.020  19.979  0.00  0.00    +0.000 C 
ATOM     28  C   UNL     1       2.988  15.793  20.148  0.00  0.00    +0.000 C 
ATOM     29  C   UNL     1       4.193  14.957  19.742  0.00  0.00    +0.000 C 
ATOM     30  C   UNL     1       4.026  14.471  18.311  0.00  0.00    +0.000 C 
ATOM     31  C   UNL     1       2.726  13.688  18.138  0.00  0.00    +0.000 C 
ENDBRANCH  25  26
ENDBRANCH  12  25
TORSDOF 5
ENDMDL
