MODEL 1
REMARK VINA RESULT:      -8.4      0.000      0.000
REMARK  Name = 
REMARK  6 active torsions:
REMARK  status: ('A' for Active; 'I' for Inactive)
REMARK    1  A    between atoms: C_2  and  C_3
REMARK    2  A    between atoms: C_21  and  C_22
REMARK    3  A    between atoms: C_22  and  O_23
REMARK    4  A    between atoms: C_22  and  C_24
REMARK    5  A    between atoms: C_24  and  C_25
REMARK    6  A    between atoms: C_25  and  C_26
REMARK                            x       y       z     vdW  Elec       q    Type
REMARK                         _______ _______ _______ _____ _____    ______ ____
ROOT
ATOM      1  O   UNL     1       2.549  12.654  17.945  0.00  0.00    +0.000 OA
ATOM      2  C   UNL     1       1.869  13.148  18.846  0.00  0.00    +0.000 C 
ATOM      3  N   UNL     1       0.578  12.690  19.145  0.00  0.00    +0.000 N 
ATOM      4  C   UNL     1      -0.363  13.271  20.109  0.00  0.00    +0.000 C 
ATOM      5  C   UNL     1      -0.399  12.481  21.425  0.00  0.00    +0.000 C 
ATOM      6  O   UNL     1      -1.042  11.214  21.253  0.00  0.00    +0.000 OA
ATOM      7  C   UNL     1      -0.117  10.276  20.862  0.00  0.00    +0.000 A 
ATOM      8  C   UNL     1       0.239   9.304  21.794  0.00  0.00    +0.000 A 
ATOM      9  C   UNL     1       1.129   8.293  21.434  0.00  0.00    +0.000 A 
ATOM     10  C   UNL     1       1.649   8.232  20.132  0.00  0.00    +0.000 A 
ATOM     11  C   UNL     1       1.294   9.235  19.212  0.00  0.00    +0.000 A 
ATOM     12  C   UNL     1       0.431  10.282  19.573  0.00  0.00    +0.000 A 
ATOM     13  C   UNL     1       0.147  11.397  18.594  0.00  0.00    +0.000 C 
ENDROOT
BRANCH   2  14
ATOM     14  C   UNL     1       2.497  14.272  19.613  0.00  0.00    +0.000 A 
ATOM     15  C   UNL     1       2.320  15.601  19.232  0.00  0.00    +0.000 A 
ATOM     16  C   UNL     1       2.924  16.616  19.938  0.00  0.00    +0.000 A 
ATOM     17  N   UNL     1       3.624  16.400  21.054  0.00  0.00    +0.000 NA
ATOM     18  C   UNL     1       3.725  15.111  21.493  0.00  0.00    +0.000 A 
ATOM     19  N   UNL     1       4.403  14.943  22.714  0.00  0.00    +0.000 N 
ATOM     20  C   UNL     1       4.933  15.935  23.498  0.00  0.00    +0.000 A 
ATOM     21  N   UNL     1       5.497  15.397  24.552  0.00  0.00    +0.000 NA
ATOM     22  N   UNL     1       5.304  14.045  24.421  0.00  0.00    +0.000 NA
ATOM     23  N   UNL     1       4.640  13.757  23.307  0.00  0.00    +0.000 NA
ATOM     24  C   UNL     1       3.184  14.022  20.806  0.00  0.00    +0.000 A 
ENDBRANCH   2  14
BRANCH  10  25
ATOM     25  C   UNL     1       2.590   7.106  19.756  0.00  0.00    +0.000 C 
BRANCH  25  26
ATOM     26  O   UNL     1       2.257   5.941  20.512  0.00  0.00    +0.000 OA
ATOM     27  H   UNL     1       2.965   5.795  21.161  0.00  0.00    +0.000 HD
ENDBRANCH  25  26
BRANCH  25  28
ATOM     28  C   UNL     1       2.567   6.744  18.268  0.00  0.00    +0.000 C 
BRANCH  28  29
ATOM     29  C   UNL     1       3.408   5.507  17.944  0.00  0.00    +0.000 C 
BRANCH  29  30
ATOM     30  C   UNL     1       4.878   5.824  18.040  0.00  0.00    +0.000 A 
ATOM     31  C   UNL     1       5.666   5.222  19.032  0.00  0.00    +0.000 A 
ATOM     32  C   UNL     1       7.014   5.557  19.160  0.00  0.00    +0.000 A 
ATOM     33  C   UNL     1       7.586   6.495  18.302  0.00  0.00    +0.000 A 
ATOM     34  C   UNL     1       6.810   7.097  17.312  0.00  0.00    +0.000 A 
ATOM     35  C   UNL     1       5.462   6.765  17.181  0.00  0.00    +0.000 A 
ENDBRANCH  29  30
ENDBRANCH  28  29
ENDBRANCH  25  28
ENDBRANCH  10  25
TORSDOF 6
ENDMDL
MODEL 2
REMARK VINA RESULT:      -8.4      2.174      3.036
REMARK  Name = 
REMARK  6 active torsions:
REMARK  status: ('A' for Active; 'I' for Inactive)
REMARK    1  A    between atoms: C_2  and  C_3
REMARK    2  A    between atoms: C_21  and  C_22
REMARK    3  A    between atoms: C_22  and  O_23
REMARK    4  A    between atoms: C_22  and  C_24
REMARK    5  A    between atoms: C_24  and  C_25
REMARK    6  A    between atoms: C_25  and  C_26
REMARK                            x       y       z     vdW  Elec       q    Type
REMARK                         _______ _______ _______ _____ _____    ______ ____
ROOT
ATOM      1  O   UNL     1      -0.310  13.687  18.170  0.00  0.00    +0.000 OA
ATOM      2  C   UNL     1      -0.482  13.786  19.386  0.00  0.00    +0.000 C 
ATOM      3  N   UNL     1      -1.269  12.875  20.106  0.00  0.00    +0.000 N 
ATOM      4  C   UNL     1      -1.638  12.958  21.524  0.00  0.00    +0.000 C 
ATOM      5  C   UNL     1      -0.782  12.027  22.395  0.00  0.00    +0.000 C 
ATOM      6  O   UNL     1      -1.120  10.654  22.177  0.00  0.00    +0.000 OA
ATOM      7  C   UNL     1      -0.376  10.155  21.135  0.00  0.00    +0.000 A 
ATOM      8  C   UNL     1       0.630   9.244  21.449  0.00  0.00    +0.000 A 
ATOM      9  C   UNL     1       1.379   8.661  20.427  0.00  0.00    +0.000 A 
ATOM     10  C   UNL     1       1.110   8.965  19.084  0.00  0.00    +0.000 A 
ATOM     11  C   UNL     1       0.104   9.903  18.790  0.00  0.00    +0.000 A 
ATOM     12  C   UNL     1      -0.630  10.529  19.809  0.00  0.00    +0.000 A 
ATOM     13  C   UNL     1      -1.634  11.604  19.466  0.00  0.00    +0.000 C 
ENDROOT
BRANCH   2  14
ATOM     14  C   UNL     1       0.197  14.938  20.063  0.00  0.00    +0.000 A 
ATOM     15  C   UNL     1      -0.311  16.233  19.978  0.00  0.00    +0.000 A 
ATOM     16  C   UNL     1       0.342  17.281  20.589  0.00  0.00    +0.000 A 
ATOM     17  N   UNL     1       1.423  17.108  21.353  0.00  0.00    +0.000 NA
ATOM     18  C   UNL     1       1.875  15.831  21.523  0.00  0.00    +0.000 A 
ATOM     19  N   UNL     1       2.967  15.692  22.400  0.00  0.00    +0.000 N 
ATOM     20  C   UNL     1       3.582  16.694  23.104  0.00  0.00    +0.000 A 
ATOM     21  N   UNL     1       4.566  16.186  23.806  0.00  0.00    +0.000 NA
ATOM     22  N   UNL     1       4.552  14.840  23.537  0.00  0.00    +0.000 NA
ATOM     23  N   UNL     1       3.583  14.528  22.682  0.00  0.00    +0.000 NA
ATOM     24  C   UNL     1       1.299  14.723  20.897  0.00  0.00    +0.000 A 
ENDBRANCH   2  14
BRANCH  10  25
ATOM     25  C   UNL     1       1.917   8.295  17.991  0.00  0.00    +0.000 C 
BRANCH  25  26
ATOM     26  O   UNL     1       2.536   9.297  17.182  0.00  0.00    +0.000 OA
ATOM     27  H   UNL     1       3.357   9.569  17.622  0.00  0.00    +0.000 HD
ENDBRANCH  25  26
BRANCH  25  28
ATOM     28  C   UNL     1       3.002   7.346  18.508  0.00  0.00    +0.000 C 
BRANCH  28  29
ATOM     29  C   UNL     1       2.994   5.990  17.798  0.00  0.00    +0.000 C 
BRANCH  29  30
ATOM     30  C   UNL     1       2.276   4.959  18.631  0.00  0.00    +0.000 A 
ATOM     31  C   UNL     1       1.665   3.857  18.015  0.00  0.00    +0.000 A 
ATOM     32  C   UNL     1       0.951   2.932  18.776  0.00  0.00    +0.000 A 
ATOM     33  C   UNL     1       0.839   3.099  20.155  0.00  0.00    +0.000 A 
ATOM     34  C   UNL     1       1.444   4.192  20.776  0.00  0.00    +0.000 A 
ATOM     35  C   UNL     1       2.159   5.119  20.017  0.00  0.00    +0.000 A 
ENDBRANCH  29  30
ENDBRANCH  28  29
ENDBRANCH  25  28
ENDBRANCH  10  25
TORSDOF 6
ENDMDL
MODEL 3
REMARK VINA RESULT:      -8.1      1.038      1.337
REMARK  Name = 
REMARK  6 active torsions:
REMARK  status: ('A' for Active; 'I' for Inactive)
REMARK    1  A    between atoms: C_2  and  C_3
REMARK    2  A    between atoms: C_21  and  C_22
REMARK    3  A    between atoms: C_22  and  O_23
REMARK    4  A    between atoms: C_22  and  C_24
REMARK    5  A    between atoms: C_24  and  C_25
REMARK    6  A    between atoms: C_25  and  C_26
REMARK                            x       y       z     vdW  Elec       q    Type
REMARK                         _______ _______ _______ _____ _____    ______ ____
ROOT
ATOM      1  O   UNL     1       2.310  12.539  17.819  0.00  0.00    +0.000 OA
ATOM      2  C   UNL     1       1.699  13.117  18.720  0.00  0.00    +0.000 C 
ATOM      3  N   UNL     1       0.421  12.715  19.133  0.00  0.00    +0.000 N 
ATOM      4  C   UNL     1      -0.444  13.391  20.106  0.00  0.00    +0.000 C 
ATOM      5  C   UNL     1      -0.411  12.703  21.479  0.00  0.00    +0.000 C 
ATOM      6  O   UNL     1      -1.089  11.443  21.446  0.00  0.00    +0.000 OA
ATOM      7  C   UNL     1      -0.211  10.456  21.070  0.00  0.00    +0.000 A 
ATOM      8  C   UNL     1       0.186   9.548  22.051  0.00  0.00    +0.000 A 
ATOM      9  C   UNL     1       1.030   8.491  21.714  0.00  0.00    +0.000 A 
ATOM     10  C   UNL     1       1.464   8.319  20.391  0.00  0.00    +0.000 A 
ATOM     11  C   UNL     1       1.070   9.258  19.421  0.00  0.00    +0.000 A 
ATOM     12  C   UNL     1       0.254  10.350  19.753  0.00  0.00    +0.000 A 
ATOM     13  C   UNL     1      -0.071  11.396  18.711  0.00  0.00    +0.000 C 
ENDROOT
BRANCH   2  14
ATOM     14  C   UNL     1       2.397  14.280  19.358  0.00  0.00    +0.000 A 
ATOM     15  C   UNL     1       2.339  15.556  18.802  0.00  0.00    +0.000 A 
ATOM     16  C   UNL     1       3.007  16.606  19.392  0.00  0.00    +0.000 A 
ATOM     17  N   UNL     1       3.658  16.484  20.551  0.00  0.00    +0.000 NA
ATOM     18  C   UNL     1       3.642  15.260  21.155  0.00  0.00    +0.000 A 
ATOM     19  N   UNL     1       4.274  15.202  22.412  0.00  0.00    +0.000 N 
ATOM     20  C   UNL     1       4.864  16.244  23.079  0.00  0.00    +0.000 A 
ATOM     21  N   UNL     1       5.355  15.806  24.213  0.00  0.00    +0.000 NA
ATOM     22  N   UNL     1       5.055  14.468  24.251  0.00  0.00    +0.000 NA
ATOM     23  N   UNL     1       4.398  14.089  23.160  0.00  0.00    +0.000 NA
ATOM     24  C   UNL     1       3.031  14.136  20.596  0.00  0.00    +0.000 A 
ENDBRANCH   2  14
BRANCH  10  25
ATOM     25  C   UNL     1       2.356   7.145  20.044  0.00  0.00    +0.000 C 
BRANCH  25  26
ATOM     26  O   UNL     1       2.005   6.029  20.864  0.00  0.00    +0.000 OA
ATOM     27  H   UNL     1       1.149   6.223  21.280  0.00  0.00    +0.000 HD
ENDBRANCH  25  26
BRANCH  25  28
ATOM     28  C   UNL     1       2.280   6.715  18.576  0.00  0.00    +0.000 C 
BRANCH  28  29
ATOM     29  C   UNL     1       2.751   5.276  18.353  0.00  0.00    +0.000 C 
BRANCH  29  30
ATOM     30  C   UNL     1       3.894   5.238  17.371  0.00  0.00    +0.000 A 
ATOM     31  C   UNL     1       4.563   6.420  17.022  0.00  0.00    +0.000 A 
ATOM     32  C   UNL     1       5.583   6.398  16.071  0.00  0.00    +0.000 A 
ATOM     33  C   UNL     1       5.942   5.197  15.460  0.00  0.00    +0.000 A 
ATOM     34  C   UNL     1       5.283   4.017  15.802  0.00  0.00    +0.000 A 
ATOM     35  C   UNL     1       4.263   4.037  16.752  0.00  0.00    +0.000 A 
ENDBRANCH  29  30
ENDBRANCH  28  29
ENDBRANCH  25  28
ENDBRANCH  10  25
TORSDOF 6
ENDMDL
MODEL 4
REMARK VINA RESULT:      -8.1      1.419      2.217
REMARK  Name = 
REMARK  6 active torsions:
REMARK  status: ('A' for Active; 'I' for Inactive)
REMARK    1  A    between atoms: C_2  and  C_3
REMARK    2  A    between atoms: C_21  and  C_22
REMARK    3  A    between atoms: C_22  and  O_23
REMARK    4  A    between atoms: C_22  and  C_24
REMARK    5  A    between atoms: C_24  and  C_25
REMARK    6  A    between atoms: C_25  and  C_26
REMARK                            x       y       z     vdW  Elec       q    Type
REMARK                         _______ _______ _______ _____ _____    ______ ____
ROOT
ATOM      1  O   UNL     1       2.223  12.922  17.859  0.00  0.00    +0.000 OA
ATOM      2  C   UNL     1       1.560  13.433  18.763  0.00  0.00    +0.000 C 
ATOM      3  N   UNL     1       0.279  12.974  19.100  0.00  0.00    +0.000 N 
ATOM      4  C   UNL     1      -0.644  13.573  20.071  0.00  0.00    +0.000 C 
ATOM      5  C   UNL     1      -0.646  12.813  21.406  0.00  0.00    +0.000 C 
ATOM      6  O   UNL     1      -1.285  11.539  21.278  0.00  0.00    +0.000 OA
ATOM      7  C   UNL     1      -0.364  10.598  20.887  0.00  0.00    +0.000 A 
ATOM      8  C   UNL     1       0.019   9.649  21.834  0.00  0.00    +0.000 A 
ATOM      9  C   UNL     1       0.906   8.635  21.477  0.00  0.00    +0.000 A 
ATOM     10  C   UNL     1       1.398   8.547  20.166  0.00  0.00    +0.000 A 
ATOM     11  C   UNL     1       1.017   9.526  19.232  0.00  0.00    +0.000 A 
ATOM     12  C   UNL     1       0.156  10.576  19.587  0.00  0.00    +0.000 A 
ATOM     13  C   UNL     1      -0.157  11.667  18.589  0.00  0.00    +0.000 C 
ENDROOT
BRANCH   2  14
ATOM     14  C   UNL     1       2.198  14.578  19.490  0.00  0.00    +0.000 A 
ATOM     15  C   UNL     1       2.030  15.894  19.063  0.00  0.00    +0.000 A 
ATOM     16  C   UNL     1       2.644  16.929  19.733  0.00  0.00    +0.000 A 
ATOM     17  N   UNL     1       3.344  16.746  20.855  0.00  0.00    +0.000 NA
ATOM     18  C   UNL     1       3.435  15.472  21.337  0.00  0.00    +0.000 A 
ATOM     19  N   UNL     1       4.114  15.341  22.563  0.00  0.00    +0.000 N 
ATOM     20  C   UNL     1       4.653  16.355  23.311  0.00  0.00    +0.000 A 
ATOM     21  N   UNL     1       5.214  15.850  24.382  0.00  0.00    +0.000 NA
ATOM     22  N   UNL     1       5.010  14.495  24.299  0.00  0.00    +0.000 NA
ATOM     23  N   UNL     1       4.342  14.174  23.196  0.00  0.00    +0.000 NA
ATOM     24  C   UNL     1       2.885  14.364  20.689  0.00  0.00    +0.000 A 
ENDBRANCH   2  14
BRANCH  10  25
ATOM     25  C   UNL     1       2.338   7.418  19.795  0.00  0.00    +0.000 C 
BRANCH  25  26
ATOM     26  O   UNL     1       2.159   6.336  20.711  0.00  0.00    +0.000 OA
ATOM     27  H   UNL     1       3.010   6.173  21.149  0.00  0.00    +0.000 HD
ENDBRANCH  25  26
BRANCH  25  28
ATOM     28  C   UNL     1       2.145   6.888  18.371  0.00  0.00    +0.000 C 
BRANCH  28  29
ATOM     29  C   UNL     1       3.315   6.023  17.896  0.00  0.00    +0.000 C 
BRANCH  29  30
ATOM     30  C   UNL     1       2.954   4.561  17.957  0.00  0.00    +0.000 A 
ATOM     31  C   UNL     1       1.626   4.172  18.187  0.00  0.00    +0.000 A 
ATOM     32  C   UNL     1       1.297   2.821  18.301  0.00  0.00    +0.000 A 
ATOM     33  C   UNL     1       2.290   1.849  18.189  0.00  0.00    +0.000 A 
ATOM     34  C   UNL     1       3.612   2.227  17.960  0.00  0.00    +0.000 A 
ATOM     35  C   UNL     1       3.944   3.576  17.845  0.00  0.00    +0.000 A 
ENDBRANCH  29  30
ENDBRANCH  28  29
ENDBRANCH  25  28
ENDBRANCH  10  25
TORSDOF 6
ENDMDL
MODEL 5
REMARK VINA RESULT:      -8.0      4.070      6.537
REMARK  Name = 
REMARK  6 active torsions:
REMARK  status: ('A' for Active; 'I' for Inactive)
REMARK    1  A    between atoms: C_2  and  C_3
REMARK    2  A    between atoms: C_21  and  C_22
REMARK    3  A    between atoms: C_22  and  O_23
REMARK    4  A    between atoms: C_22  and  C_24
REMARK    5  A    between atoms: C_24  and  C_25
REMARK    6  A    between atoms: C_25  and  C_26
REMARK                            x       y       z     vdW  Elec       q    Type
REMARK                         _______ _______ _______ _____ _____    ______ ____
ROOT
ATOM      1  O   UNL     1      -0.484   9.007  21.710  0.00  0.00    +0.000 OA
ATOM      2  C   UNL     1      -0.126   9.605  20.694  0.00  0.00    +0.000 C 
ATOM      3  N   UNL     1       1.195   9.556  20.226  0.00  0.00    +0.000 N 
ATOM      4  C   UNL     1       1.762  10.314  19.105  0.00  0.00    +0.000 C 
ATOM      5  C   UNL     1       1.887   9.457  17.837  0.00  0.00    +0.000 C 
ATOM      6  O   UNL     1       2.927   8.482  17.968  0.00  0.00    +0.000 OA
ATOM      7  C   UNL     1       2.419   7.340  18.539  0.00  0.00    +0.000 A 
ATOM      8  C   UNL     1       2.286   6.222  17.717  0.00  0.00    +0.000 A 
ATOM      9  C   UNL     1       1.832   5.019  18.255  0.00  0.00    +0.000 A 
ATOM     10  C   UNL     1       1.531   4.917  19.621  0.00  0.00    +0.000 A 
ATOM     11  C   UNL     1       1.651   6.062  20.429  0.00  0.00    +0.000 A 
ATOM     12  C   UNL     1       2.069   7.291  19.894  0.00  0.00    +0.000 A 
ATOM     13  C   UNL     1       2.094   8.525  20.765  0.00  0.00    +0.000 C 
ENDROOT
BRANCH   2  14
ATOM     14  C   UNL     1      -1.180  10.394  19.979  0.00  0.00    +0.000 A 
ATOM     15  C   UNL     1      -1.762  11.521  20.557  0.00  0.00    +0.000 A 
ATOM     16  C   UNL     1      -2.745  12.218  19.891  0.00  0.00    +0.000 A 
ATOM     17  N   UNL     1      -3.125  11.916  18.647  0.00  0.00    +0.000 NA
ATOM     18  C   UNL     1      -2.494  10.872  18.033  0.00  0.00    +0.000 A 
ATOM     19  N   UNL     1      -2.873  10.644  16.697  0.00  0.00    +0.000 N 
ATOM     20  C   UNL     1      -3.774  11.374  15.966  0.00  0.00    +0.000 A 
ATOM     21  N   UNL     1      -3.875  10.857  14.766  0.00  0.00    +0.000 NA
ATOM     22  N   UNL     1      -3.012   9.790  14.752  0.00  0.00    +0.000 NA
ATOM     23  N   UNL     1      -2.397   9.651  15.921  0.00  0.00    +0.000 NA
ATOM     24  C   UNL     1      -1.525  10.086  18.659  0.00  0.00    +0.000 A 
ENDBRANCH   2  14
BRANCH  10  25
ATOM     25  C   UNL     1       1.067   3.591  20.188  0.00  0.00    +0.000 C 
BRANCH  25  26
ATOM     26  O   UNL     1      -0.210   3.265  19.639  0.00  0.00    +0.000 OA
ATOM     27  H   UNL     1      -0.195   3.493  18.695  0.00  0.00    +0.000 HD
ENDBRANCH  25  26
BRANCH  25  28
ATOM     28  C   UNL     1       2.026   2.427  19.916  0.00  0.00    +0.000 C 
BRANCH  28  29
ATOM     29  C   UNL     1       3.458   2.720  20.369  0.00  0.00    +0.000 C 
BRANCH  29  30
ATOM     30  C   UNL     1       4.269   3.288  19.232  0.00  0.00    +0.000 A 
ATOM     31  C   UNL     1       5.145   4.360  19.458  0.00  0.00    +0.000 A 
ATOM     32  C   UNL     1       5.854   4.925  18.398  0.00  0.00    +0.000 A 
ATOM     33  C   UNL     1       5.692   4.428  17.105  0.00  0.00    +0.000 A 
ATOM     34  C   UNL     1       4.824   3.362  16.873  0.00  0.00    +0.000 A 
ATOM     35  C   UNL     1       4.115   2.794  17.930  0.00  0.00    +0.000 A 
ENDBRANCH  29  30
ENDBRANCH  28  29
ENDBRANCH  25  28
ENDBRANCH  10  25
TORSDOF 6
ENDMDL
MODEL 6
REMARK VINA RESULT:      -8.0      1.749      2.695
REMARK  Name = 
REMARK  6 active torsions:
REMARK  status: ('A' for Active; 'I' for Inactive)
REMARK    1  A    between atoms: C_2  and  C_3
REMARK    2  A    between atoms: C_21  and  C_22
REMARK    3  A    between atoms: C_22  and  O_23
REMARK    4  A    between atoms: C_22  and  C_24
REMARK    5  A    between atoms: C_24  and  C_25
REMARK    6  A    between atoms: C_25  and  C_26
REMARK                            x       y       z     vdW  Elec       q    Type
REMARK                         _______ _______ _______ _____ _____    ______ ____
ROOT
ATOM      1  O   UNL     1       2.060  12.743  17.643  0.00  0.00    +0.000 OA
ATOM      2  C   UNL     1       1.568  12.978  18.748  0.00  0.00    +0.000 C 
ATOM      3  N   UNL     1       0.426  12.311  19.215  0.00  0.00    +0.000 N 
ATOM      4  C   UNL     1      -0.312  12.587  20.453  0.00  0.00    +0.000 C 
ATOM      5  C   UNL     1       0.029  11.579  21.560  0.00  0.00    +0.000 C 
ATOM      6  O   UNL     1      -0.524  10.289  21.279  0.00  0.00    +0.000 OA
ATOM      7  C   UNL     1       0.362   9.563  20.520  0.00  0.00    +0.000 A 
ATOM      8  C   UNL     1       1.009   8.497  21.141  0.00  0.00    +0.000 A 
ATOM      9  C   UNL     1       1.874   7.689  20.406  0.00  0.00    +0.000 A 
ATOM     10  C   UNL     1       2.081   7.926  19.039  0.00  0.00    +0.000 A 
ATOM     11  C   UNL     1       1.436   9.020  18.435  0.00  0.00    +0.000 A 
ATOM     12  C   UNL     1       0.593   9.867  19.172  0.00  0.00    +0.000 A 
ATOM     13  C   UNL     1      -0.007  11.090  18.520  0.00  0.00    +0.000 C 
ENDROOT
BRANCH   2  14
ATOM     14  C   UNL     1       2.257  14.022  19.575  0.00  0.00    +0.000 A 
ATOM     15  C   UNL     1       1.991  15.378  19.400  0.00  0.00    +0.000 A 
ATOM     16  C   UNL     1       2.653  16.322  20.155  0.00  0.00    +0.000 A 
ATOM     17  N   UNL     1       3.498  15.995  21.135  0.00  0.00    +0.000 NA
ATOM     18  C   UNL     1       3.693  14.666  21.381  0.00  0.00    +0.000 A 
ATOM     19  N   UNL     1       4.530  14.374  22.474  0.00  0.00    +0.000 N 
ATOM     20  C   UNL     1       5.128  15.280  23.311  0.00  0.00    +0.000 A 
ATOM     21  N   UNL     1       5.840  14.637  24.204  0.00  0.00    +0.000 NA
ATOM     22  N   UNL     1       5.672  13.305  23.918  0.00  0.00    +0.000 NA
ATOM     23  N   UNL     1       4.877  13.133  22.867  0.00  0.00    +0.000 NA
ATOM     24  C   UNL     1       3.100  13.652  20.627  0.00  0.00    +0.000 A 
ENDBRANCH   2  14
BRANCH  10  25
ATOM     25  C   UNL     1       3.003   7.016  18.253  0.00  0.00    +0.000 C 
BRANCH  25  26
ATOM     26  O   UNL     1       3.695   7.784  17.267  0.00  0.00    +0.000 OA
ATOM     27  H   UNL     1       3.981   8.614  17.683  0.00  0.00    +0.000 HD
ENDBRANCH  25  26
BRANCH  25  28
ATOM     28  C   UNL     1       4.037   6.283  19.113  0.00  0.00    +0.000 C 
BRANCH  28  29
ATOM     29  C   UNL     1       4.124   4.789  18.793  0.00  0.00    +0.000 C 
BRANCH  29  30
ATOM     30  C   UNL     1       2.866   4.079  19.225  0.00  0.00    +0.000 A 
ATOM     31  C   UNL     1       2.498   4.056  20.578  0.00  0.00    +0.000 A 
ATOM     32  C   UNL     1       1.366   3.353  20.988  0.00  0.00    +0.000 A 
ATOM     33  C   UNL     1       0.594   2.665  20.054  0.00  0.00    +0.000 A 
ATOM     34  C   UNL     1       0.952   2.683  18.706  0.00  0.00    +0.000 A 
ATOM     35  C   UNL     1       2.083   3.386  18.293  0.00  0.00    +0.000 A 
ENDBRANCH  29  30
ENDBRANCH  28  29
ENDBRANCH  25  28
ENDBRANCH  10  25
TORSDOF 6
ENDMDL
MODEL 7
REMARK VINA RESULT:      -7.9      4.230      8.303
REMARK  Name = 
REMARK  6 active torsions:
REMARK  status: ('A' for Active; 'I' for Inactive)
REMARK    1  A    between atoms: C_2  and  C_3
REMARK    2  A    between atoms: C_21  and  C_22
REMARK    3  A    between atoms: C_22  and  O_23
REMARK    4  A    between atoms: C_22  and  C_24
REMARK    5  A    between atoms: C_24  and  C_25
REMARK    6  A    between atoms: C_25  and  C_26
REMARK                            x       y       z     vdW  Elec       q    Type
REMARK                         _______ _______ _______ _____ _____    ______ ____
ROOT
ATOM      1  O   UNL     1      -1.031  11.693  18.644  0.00  0.00    +0.000 OA
ATOM      2  C   UNL     1      -0.657  11.608  19.815  0.00  0.00    +0.000 C 
ATOM      3  N   UNL     1      -0.820  12.659  20.729  0.00  0.00    +0.000 N 
ATOM      4  C   UNL     1      -0.314  12.717  22.105  0.00  0.00    +0.000 C 
ATOM      5  C   UNL     1      -1.414  12.415  23.133  0.00  0.00    +0.000 C 
ATOM      6  O   UNL     1      -2.355  13.489  23.219  0.00  0.00    +0.000 OA
ATOM      7  C   UNL     1      -3.350  13.305  22.289  0.00  0.00    +0.000 A 
ATOM      8  C   UNL     1      -4.610  12.947  22.765  0.00  0.00    +0.000 A 
ATOM      9  C   UNL     1      -5.671  12.804  21.873  0.00  0.00    +0.000 A 
ATOM     10  C   UNL     1      -5.488  13.042  20.503  0.00  0.00    +0.000 A 
ATOM     11  C   UNL     1      -4.204  13.381  20.040  0.00  0.00    +0.000 A 
ATOM     12  C   UNL     1      -3.117  13.489  20.920  0.00  0.00    +0.000 A 
ATOM     13  C   UNL     1      -1.731  13.758  20.380  0.00  0.00    +0.000 C 
ENDROOT
BRANCH   2  14
ATOM     14  C   UNL     1      -0.015  10.314  20.217  0.00  0.00    +0.000 A 
ATOM     15  C   UNL     1      -0.406   9.637  21.370  0.00  0.00    +0.000 A 
ATOM     16  C   UNL     1       0.213   8.461  21.732  0.00  0.00    +0.000 A 
ATOM     17  N   UNL     1       1.137   7.870  20.972  0.00  0.00    +0.000 NA
ATOM     18  C   UNL     1       1.460   8.475  19.791  0.00  0.00    +0.000 A 
ATOM     19  N   UNL     1       2.379   7.773  18.988  0.00  0.00    +0.000 N 
ATOM     20  C   UNL     1       2.943   6.555  19.265  0.00  0.00    +0.000 A 
ATOM     21  N   UNL     1       3.757   6.226  18.292  0.00  0.00    +0.000 NA
ATOM     22  N   UNL     1       3.688   7.258  17.391  0.00  0.00    +0.000 NA
ATOM     23  N   UNL     1       2.853   8.206  17.804  0.00  0.00    +0.000 NA
ATOM     24  C   UNL     1       0.915   9.692  19.378  0.00  0.00    +0.000 A 
ENDBRANCH   2  14
BRANCH  10  25
ATOM     25  C   UNL     1      -6.665  12.910  19.558  0.00  0.00    +0.000 C 
BRANCH  25  26
ATOM     26  O   UNL     1      -6.847  14.142  18.858  0.00  0.00    +0.000 OA
ATOM     27  H   UNL     1      -6.751  13.962  17.909  0.00  0.00    +0.000 HD
ENDBRANCH  25  26
BRANCH  25  28
ATOM     28  C   UNL     1      -6.517  11.783  18.531  0.00  0.00    +0.000 C 
BRANCH  28  29
ATOM     29  C   UNL     1      -5.800  12.233  17.255  0.00  0.00    +0.000 C 
BRANCH  29  30
ATOM     30  C   UNL     1      -4.622  11.338  16.965  0.00  0.00    +0.000 A 
ATOM     31  C   UNL     1      -3.944  11.440  15.741  0.00  0.00    +0.000 A 
ATOM     32  C   UNL     1      -2.891  10.575  15.445  0.00  0.00    +0.000 A 
ATOM     33  C   UNL     1      -2.506   9.602  16.366  0.00  0.00    +0.000 A 
ATOM     34  C   UNL     1      -3.173   9.495  17.586  0.00  0.00    +0.000 A 
ATOM     35  C   UNL     1      -4.227  10.358  17.884  0.00  0.00    +0.000 A 
ENDBRANCH  29  30
ENDBRANCH  28  29
ENDBRANCH  25  28
ENDBRANCH  10  25
TORSDOF 6
ENDMDL
MODEL 8
REMARK VINA RESULT:      -7.9      4.409      7.636
REMARK  Name = 
REMARK  6 active torsions:
REMARK  status: ('A' for Active; 'I' for Inactive)
REMARK    1  A    between atoms: C_2  and  C_3
REMARK    2  A    between atoms: C_21  and  C_22
REMARK    3  A    between atoms: C_22  and  O_23
REMARK    4  A    between atoms: C_22  and  C_24
REMARK    5  A    between atoms: C_24  and  C_25
REMARK    6  A    between atoms: C_25  and  C_26
REMARK                            x       y       z     vdW  Elec       q    Type
REMARK                         _______ _______ _______ _____ _____    ______ ____
ROOT
ATOM      1  O   UNL     1      -3.833  11.808  23.894  0.00  0.00    +0.000 OA
ATOM      2  C   UNL     1      -3.820  12.789  23.148  0.00  0.00    +0.000 C 
ATOM      3  N   UNL     1      -2.668  13.565  22.955  0.00  0.00    +0.000 N 
ATOM      4  C   UNL     1      -2.564  14.812  22.189  0.00  0.00    +0.000 C 
ATOM      5  C   UNL     1      -1.948  14.584  20.801  0.00  0.00    +0.000 C 
ATOM      6  O   UNL     1      -0.551  14.287  20.895  0.00  0.00    +0.000 OA
ATOM      7  C   UNL     1      -0.377  12.934  21.056  0.00  0.00    +0.000 A 
ATOM      8  C   UNL     1       0.148  12.225  19.976  0.00  0.00    +0.000 A 
ATOM      9  C   UNL     1       0.401  10.860  20.102  0.00  0.00    +0.000 A 
ATOM     10  C   UNL     1       0.154  10.198  21.314  0.00  0.00    +0.000 A 
ATOM     11  C   UNL     1      -0.396  10.926  22.384  0.00  0.00    +0.000 A 
ATOM     12  C   UNL     1      -0.694  12.292  22.260  0.00  0.00    +0.000 A 
ATOM     13  C   UNL     1      -1.375  13.023  23.394  0.00  0.00    +0.000 C 
ENDROOT
BRANCH   2  14
ATOM     14  C   UNL     1      -5.107  13.112  22.452  0.00  0.00    +0.000 A 
ATOM     15  C   UNL     1      -6.167  13.714  23.128  0.00  0.00    +0.000 A 
ATOM     16  C   UNL     1      -7.349  13.982  22.474  0.00  0.00    +0.000 A 
ATOM     17  N   UNL     1      -7.513  13.769  21.167  0.00  0.00    +0.000 NA
ATOM     18  C   UNL     1      -6.449  13.269  20.473  0.00  0.00    +0.000 A 
ATOM     19  N   UNL     1      -6.645  13.137  19.085  0.00  0.00    +0.000 N 
ATOM     20  C   UNL     1      -7.768  13.484  18.382  0.00  0.00    +0.000 A 
ATOM     21  N   UNL     1      -7.586  13.206  17.114  0.00  0.00    +0.000 NA
ATOM     22  N   UNL     1      -6.319  12.684  17.031  0.00  0.00    +0.000 NA
ATOM     23  N   UNL     1      -5.737  12.637  18.225  0.00  0.00    +0.000 NA
ATOM     24  C   UNL     1      -5.236  12.924  21.073  0.00  0.00    +0.000 A 
ENDBRANCH   2  14
BRANCH  10  25
ATOM     25  C   UNL     1       0.466   8.720  21.435  0.00  0.00    +0.000 C 
BRANCH  25  26
ATOM     26  O   UNL     1      -0.753   7.995  21.602  0.00  0.00    +0.000 OA
ATOM     27  H   UNL     1      -0.957   7.970  22.552  0.00  0.00    +0.000 HD
ENDBRANCH  25  26
BRANCH  25  28
ATOM     28  C   UNL     1       1.217   8.141  20.233  0.00  0.00    +0.000 C 
BRANCH  28  29
ATOM     29  C   UNL     1       2.241   7.075  20.631  0.00  0.00    +0.000 C 
BRANCH  29  30
ATOM     30  C   UNL     1       1.951   5.772  19.930  0.00  0.00    +0.000 A 
ATOM     31  C   UNL     1       2.292   5.606  18.580  0.00  0.00    +0.000 A 
ATOM     32  C   UNL     1       1.973   4.424  17.913  0.00  0.00    +0.000 A 
ATOM     33  C   UNL     1       1.310   3.399  18.586  0.00  0.00    +0.000 A 
ATOM     34  C   UNL     1       0.968   3.555  19.929  0.00  0.00    +0.000 A 
ATOM     35  C   UNL     1       1.286   4.736  20.599  0.00  0.00    +0.000 A 
ENDBRANCH  29  30
ENDBRANCH  28  29
ENDBRANCH  25  28
ENDBRANCH  10  25
TORSDOF 6
ENDMDL
MODEL 9
REMARK VINA RESULT:      -7.8      1.247      1.351
REMARK  Name = 
REMARK  6 active torsions:
REMARK  status: ('A' for Active; 'I' for Inactive)
REMARK    1  A    between atoms: C_2  and  C_3
REMARK    2  A    between atoms: C_21  and  C_22
REMARK    3  A    between atoms: C_22  and  O_23
REMARK    4  A    between atoms: C_22  and  C_24
REMARK    5  A    between atoms: C_24  and  C_25
REMARK    6  A    between atoms: C_25  and  C_26
REMARK                            x       y       z     vdW  Elec       q    Type
REMARK                         _______ _______ _______ _____ _____    ______ ____
ROOT
ATOM      1  O   UNL     1       2.175  12.914  17.751  0.00  0.00    +0.000 OA
ATOM      2  C   UNL     1       1.664  13.184  18.839  0.00  0.00    +0.000 C 
ATOM      3  N   UNL     1       0.468  12.592  19.270  0.00  0.00    +0.000 N 
ATOM      4  C   UNL     1      -0.290  12.918  20.483  0.00  0.00    +0.000 C 
ATOM      5  C   UNL     1      -0.050  11.895  21.602  0.00  0.00    +0.000 C 
ATOM      6  O   UNL     1      -0.673  10.642  21.305  0.00  0.00    +0.000 OA
ATOM      7  C   UNL     1       0.190   9.858  20.577  0.00  0.00    +0.000 A 
ATOM      8  C   UNL     1       0.748   8.756  21.220  0.00  0.00    +0.000 A 
ATOM      9  C   UNL     1       1.584   7.893  20.514  0.00  0.00    +0.000 A 
ATOM     10  C   UNL     1       1.849   8.111  19.154  0.00  0.00    +0.000 A 
ATOM     11  C   UNL     1       1.293   9.242  18.528  0.00  0.00    +0.000 A 
ATOM     12  C   UNL     1       0.483  10.142  19.236  0.00  0.00    +0.000 A 
ATOM     13  C   UNL     1      -0.018  11.398  18.563  0.00  0.00    +0.000 C 
ENDROOT
BRANCH   2  14
ATOM     14  C   UNL     1       2.390  14.186  19.685  0.00  0.00    +0.000 A 
ATOM     15  C   UNL     1       2.169  15.554  19.542  0.00  0.00    +0.000 A 
ATOM     16  C   UNL     1       2.864  16.458  20.315  0.00  0.00    +0.000 A 
ATOM     17  N   UNL     1       3.702  16.082  21.284  0.00  0.00    +0.000 NA
ATOM     18  C   UNL     1       3.854  14.742  21.499  0.00  0.00    +0.000 A 
ATOM     19  N   UNL     1       4.685  14.397  22.582  0.00  0.00    +0.000 N 
ATOM     20  C   UNL     1       5.315  15.264  23.436  0.00  0.00    +0.000 A 
ATOM     21  N   UNL     1       6.009  14.578  24.311  0.00  0.00    +0.000 NA
ATOM     22  N   UNL     1       5.796  13.259  23.996  0.00  0.00    +0.000 NA
ATOM     23  N   UNL     1       4.992  13.137  22.945  0.00  0.00    +0.000 NA
ATOM     24  C   UNL     1       3.224  13.765  20.725  0.00  0.00    +0.000 A 
ENDBRANCH   2  14
BRANCH  10  25
ATOM     25  C   UNL     1       2.737   7.142  18.401  0.00  0.00    +0.000 C 
BRANCH  25  26
ATOM     26  O   UNL     1       3.746   7.874  17.702  0.00  0.00    +0.000 OA
ATOM     27  H   UNL     1       3.645   8.812  17.931  0.00  0.00    +0.000 HD
ENDBRANCH  25  26
BRANCH  25  28
ATOM     28  C   UNL     1       3.419   6.099  19.291  0.00  0.00    +0.000 C 
BRANCH  28  29
ATOM     29  C   UNL     1       3.494   4.717  18.637  0.00  0.00    +0.000 C 
BRANCH  29  30
ATOM     30  C   UNL     1       4.762   4.577  17.834  0.00  0.00    +0.000 A 
ATOM     31  C   UNL     1       6.003   4.860  18.422  0.00  0.00    +0.000 A 
ATOM     32  C   UNL     1       7.173   4.787  17.667  0.00  0.00    +0.000 A 
ATOM     33  C   UNL     1       7.114   4.435  16.319  0.00  0.00    +0.000 A 
ATOM     34  C   UNL     1       5.884   4.151  15.727  0.00  0.00    +0.000 A 
ATOM     35  C   UNL     1       4.713   4.223  16.480  0.00  0.00    +0.000 A 
ENDBRANCH  29  30
ENDBRANCH  28  29
ENDBRANCH  25  28
ENDBRANCH  10  25
TORSDOF 6
ENDMDL
