MODEL 1
REMARK VINA RESULT:      -5.2      0.000      0.000
REMARK  Name = 
REMARK  3 active torsions:
REMARK  status: ('A' for Active; 'I' for Inactive)
REMARK    1  A    between atoms: C_2  and  O_3
REMARK    2  A    between atoms: C_2  and  C_4
REMARK    3  A    between atoms: C_5  and  C_6
REMARK                            x       y       z     vdW  Elec       q    Type
REMARK                         _______ _______ _______ _____ _____    ______ ____
ROOT
ATOM      1  C   UNL     1       5.759   4.620  17.245  0.00  0.00    +0.000 C 
ATOM      2  C   UNL     1       4.835   3.805  16.712  0.00  0.00    +0.000 C 
ENDROOT
BRANCH   2   3
ATOM      3  C   UNL     1       3.582   3.585  17.360  0.00  0.00    +0.000 A 
ATOM      4  C   UNL     1       2.514   4.442  17.579  0.00  0.00    +0.000 A 
ATOM      5  C   UNL     1       1.446   3.836  18.303  0.00  0.00    +0.000 A 
ATOM      6  C   UNL     1       1.717   2.525  18.613  0.00  0.00    +0.000 A 
ATOM      7  S   UNL     1       3.234   2.026  18.010  0.00  0.00    +0.000 S 
ENDBRANCH   2   3
BRANCH   1   9
ATOM      8  O   UNL     1       7.281   5.671  15.790  0.00  0.00    +0.000 OA
ATOM      9  C   UNL     1       7.100   4.869  16.693  0.00  0.00    +0.000 C 
BRANCH   9  10
ATOM     10  O   UNL     1       8.088   4.124  17.221  0.00  0.00    +0.000 OA
ATOM     11  H   UNL     1       8.990   4.429  17.020  0.00  0.00    +0.000 HD
ENDBRANCH   9  10
ENDBRANCH   1   9
TORSDOF 3
ENDMDL
MODEL 2
REMARK VINA RESULT:      -5.1      0.544      1.152
REMARK  Name = 
REMARK  3 active torsions:
REMARK  status: ('A' for Active; 'I' for Inactive)
REMARK    1  A    between atoms: C_2  and  O_3
REMARK    2  A    between atoms: C_2  and  C_4
REMARK    3  A    between atoms: C_5  and  C_6
REMARK                            x       y       z     vdW  Elec       q    Type
REMARK                         _______ _______ _______ _____ _____    ______ ____
ROOT
ATOM      1  C   UNL     1       5.776   4.324  16.610  0.00  0.00    +0.000 C 
ATOM      2  C   UNL     1       5.197   4.144  17.808  0.00  0.00    +0.000 C 
ENDROOT
BRANCH   2   3
ATOM      3  C   UNL     1       3.803   3.859  17.920  0.00  0.00    +0.000 A 
ATOM      4  C   UNL     1       2.697   4.682  17.774  0.00  0.00    +0.000 A 
ATOM      5  C   UNL     1       1.461   4.008  18.000  0.00  0.00    +0.000 A 
ATOM      6  C   UNL     1       1.650   2.681  18.305  0.00  0.00    +0.000 A 
ATOM      7  S   UNL     1       3.302   2.250  18.288  0.00  0.00    +0.000 S 
ENDBRANCH   2   3
BRANCH   1   9
ATOM      8  O   UNL     1       8.077   4.237  17.092  0.00  0.00    +0.000 OA
ATOM      9  C   UNL     1       7.186   4.680  16.386  0.00  0.00    +0.000 C 
BRANCH   9  10
ATOM     10  O   UNL     1       7.408   5.555  15.387  0.00  0.00    +0.000 OA
ATOM     11  H   UNL     1       8.338   5.648  15.116  0.00  0.00    +0.000 HD
ENDBRANCH   9  10
ENDBRANCH   1   9
TORSDOF 3
ENDMDL
MODEL 3
REMARK VINA RESULT:      -4.9      2.122      2.247
REMARK  Name = 
REMARK  3 active torsions:
REMARK  status: ('A' for Active; 'I' for Inactive)
REMARK    1  A    between atoms: C_2  and  O_3
REMARK    2  A    between atoms: C_2  and  C_4
REMARK    3  A    between atoms: C_5  and  C_6
REMARK                            x       y       z     vdW  Elec       q    Type
REMARK                         _______ _______ _______ _____ _____    ______ ____
ROOT
ATOM      1  C   UNL     1       6.246   5.102  18.881  0.00  0.00    +0.000 C 
ATOM      2  C   UNL     1       4.993   5.525  19.115  0.00  0.00    +0.000 C 
ENDROOT
BRANCH   2   3
ATOM      3  C   UNL     1       3.867   4.839  18.568  0.00  0.00    +0.000 A 
ATOM      4  C   UNL     1       2.599   5.297  18.245  0.00  0.00    +0.000 A 
ATOM      5  C   UNL     1       1.742   4.273  17.745  0.00  0.00    +0.000 A 
ATOM      6  C   UNL     1       2.380   3.056  17.686  0.00  0.00    +0.000 A 
ATOM      7  S   UNL     1       4.003   3.159  18.204  0.00  0.00    +0.000 S 
ENDBRANCH   2   3
BRANCH   1   9
ATOM      8  O   UNL     1       8.041   6.608  18.667  0.00  0.00    +0.000 OA
ATOM      9  C   UNL     1       7.474   5.766  19.345  0.00  0.00    +0.000 C 
BRANCH   9  10
ATOM     10  O   UNL     1       7.943   5.346  20.535  0.00  0.00    +0.000 OA
ATOM     11  H   UNL     1       8.121   6.051  21.182  0.00  0.00    +0.000 HD
ENDBRANCH   9  10
ENDBRANCH   1   9
TORSDOF 3
ENDMDL
MODEL 4
REMARK VINA RESULT:      -4.9      1.084      1.320
REMARK  Name = 
REMARK  3 active torsions:
REMARK  status: ('A' for Active; 'I' for Inactive)
REMARK    1  A    between atoms: C_2  and  O_3
REMARK    2  A    between atoms: C_2  and  C_4
REMARK    3  A    between atoms: C_5  and  C_6
REMARK                            x       y       z     vdW  Elec       q    Type
REMARK                         _______ _______ _______ _____ _____    ______ ____
ROOT
ATOM      1  C   UNL     1       5.769   4.845  17.229  0.00  0.00    +0.000 C 
ATOM      2  C   UNL     1       5.001   3.798  16.889  0.00  0.00    +0.000 C 
ENDROOT
BRANCH   2   3
ATOM      3  C   UNL     1       3.703   3.619  17.457  0.00  0.00    +0.000 A 
ATOM      4  C   UNL     1       2.973   2.465  17.697  0.00  0.00    +0.000 A 
ATOM      5  C   UNL     1       1.687   2.721  18.257  0.00  0.00    +0.000 A 
ATOM      6  C   UNL     1       1.467   4.066  18.440  0.00  0.00    +0.000 A 
ATOM      7  S   UNL     1       2.812   5.004  17.968  0.00  0.00    +0.000 S 
ENDBRANCH   2   3
BRANCH   1   9
ATOM      8  O   UNL     1       7.415   6.072  16.078  0.00  0.00    +0.000 OA
ATOM      9  C   UNL     1       7.139   5.091  16.751  0.00  0.00    +0.000 C 
BRANCH   9  10
ATOM     10  O   UNL     1       8.040   4.143  17.069  0.00  0.00    +0.000 OA
ATOM     11  H   UNL     1       8.648   4.375  17.792  0.00  0.00    +0.000 HD
ENDBRANCH   9  10
ENDBRANCH   1   9
TORSDOF 3
ENDMDL
MODEL 5
REMARK VINA RESULT:      -4.8      2.022      2.340
REMARK  Name = 
REMARK  3 active torsions:
REMARK  status: ('A' for Active; 'I' for Inactive)
REMARK    1  A    between atoms: C_2  and  O_3
REMARK    2  A    between atoms: C_2  and  C_4
REMARK    3  A    between atoms: C_5  and  C_6
REMARK                            x       y       z     vdW  Elec       q    Type
REMARK                         _______ _______ _______ _____ _____    ______ ____
ROOT
ATOM      1  C   UNL     1       5.483   4.842  15.350  0.00  0.00    +0.000 C 
ATOM      2  C   UNL     1       5.037   4.031  16.323  0.00  0.00    +0.000 C 
ENDROOT
BRANCH   2   3
ATOM      3  C   UNL     1       3.940   4.409  17.154  0.00  0.00    +0.000 A 
ATOM      4  C   UNL     1       2.738   3.767  17.412  0.00  0.00    +0.000 A 
ATOM      5  C   UNL     1       1.885   4.502  18.287  0.00  0.00    +0.000 A 
ATOM      6  C   UNL     1       2.460   5.685  18.688  0.00  0.00    +0.000 A 
ATOM      7  S   UNL     1       4.023   5.890  18.034  0.00  0.00    +0.000 S 
ENDBRANCH   2   3
BRANCH   1   9
ATOM      8  O   UNL     1       7.620   5.305  14.481  0.00  0.00    +0.000 OA
ATOM      9  C   UNL     1       6.639   4.578  14.479  0.00  0.00    +0.000 C 
BRANCH   9  10
ATOM     10  O   UNL     1       6.514   3.517  13.660  0.00  0.00    +0.000 OA
ATOM     11  H   UNL     1       7.125   3.504  12.903  0.00  0.00    +0.000 HD
ENDBRANCH   9  10
ENDBRANCH   1   9
TORSDOF 3
ENDMDL
MODEL 6
REMARK VINA RESULT:      -4.8      1.321      1.459
REMARK  Name = 
REMARK  3 active torsions:
REMARK  status: ('A' for Active; 'I' for Inactive)
REMARK    1  A    between atoms: C_2  and  O_3
REMARK    2  A    between atoms: C_2  and  C_4
REMARK    3  A    between atoms: C_5  and  C_6
REMARK                            x       y       z     vdW  Elec       q    Type
REMARK                         _______ _______ _______ _____ _____    ______ ____
ROOT
ATOM      1  C   UNL     1       5.821   4.449  17.383  0.00  0.00    +0.000 C 
ATOM      2  C   UNL     1       4.740   5.240  17.482  0.00  0.00    +0.000 C 
ENDROOT
BRANCH   2   3
ATOM      3  C   UNL     1       3.504   4.741  17.991  0.00  0.00    +0.000 A 
ATOM      4  C   UNL     1       2.556   3.911  17.411  0.00  0.00    +0.000 A 
ATOM      5  C   UNL     1       1.430   3.670  18.251  0.00  0.00    +0.000 A 
ATOM      6  C   UNL     1       1.546   4.315  19.460  0.00  0.00    +0.000 A 
ATOM      7  S   UNL     1       3.014   5.177  19.586  0.00  0.00    +0.000 S 
ENDBRANCH   2   3
BRANCH   1   9
ATOM      8  O   UNL     1       7.216   5.742  15.997  0.00  0.00    +0.000 OA
ATOM      9  C   UNL     1       7.121   4.845  16.819  0.00  0.00    +0.000 C 
BRANCH   9  10
ATOM     10  O   UNL     1       8.176   4.120  17.238  0.00  0.00    +0.000 OA
ATOM     11  H   UNL     1       8.158   3.180  16.989  0.00  0.00    +0.000 HD
ENDBRANCH   9  10
ENDBRANCH   1   9
TORSDOF 3
ENDMDL
MODEL 7
REMARK VINA RESULT:      -4.8      2.285      2.446
REMARK  Name = 
REMARK  3 active torsions:
REMARK  status: ('A' for Active; 'I' for Inactive)
REMARK    1  A    between atoms: C_2  and  O_3
REMARK    2  A    between atoms: C_2  and  C_4
REMARK    3  A    between atoms: C_5  and  C_6
REMARK                            x       y       z     vdW  Elec       q    Type
REMARK                         _______ _______ _______ _____ _____    ______ ____
ROOT
ATOM      1  C   UNL     1       6.141   5.112  18.976  0.00  0.00    +0.000 C 
ATOM      2  C   UNL     1       4.926   5.578  19.308  0.00  0.00    +0.000 C 
ENDROOT
BRANCH   2   3
ATOM      3  C   UNL     1       3.738   4.910  18.883  0.00  0.00    +0.000 A 
ATOM      4  C   UNL     1       3.314   4.536  17.617  0.00  0.00    +0.000 A 
ATOM      5  C   UNL     1       2.034   3.909  17.616  0.00  0.00    +0.000 A 
ATOM      6  C   UNL     1       1.512   3.808  18.883  0.00  0.00    +0.000 A 
ATOM      7  S   UNL     1       2.571   4.439  20.063  0.00  0.00    +0.000 S 
ENDBRANCH   2   3
BRANCH   1   9
ATOM      8  O   UNL     1       7.963   6.538  18.546  0.00  0.00    +0.000 OA
ATOM      9  C   UNL     1       7.423   5.754  19.309  0.00  0.00    +0.000 C 
BRANCH   9  10
ATOM     10  O   UNL     1       7.969   5.378  20.481  0.00  0.00    +0.000 OA
ATOM     11  H   UNL     1       8.921   5.558  20.571  0.00  0.00    +0.000 HD
ENDBRANCH   9  10
ENDBRANCH   1   9
TORSDOF 3
ENDMDL
MODEL 8
REMARK VINA RESULT:      -4.7      1.388      1.677
REMARK  Name = 
REMARK  3 active torsions:
REMARK  status: ('A' for Active; 'I' for Inactive)
REMARK    1  A    between atoms: C_2  and  O_3
REMARK    2  A    between atoms: C_2  and  C_4
REMARK    3  A    between atoms: C_5  and  C_6
REMARK                            x       y       z     vdW  Elec       q    Type
REMARK                         _______ _______ _______ _____ _____    ______ ____
ROOT
ATOM      1  C   UNL     1       5.688   3.952  15.827  0.00  0.00    +0.000 C 
ATOM      2  C   UNL     1       4.846   4.534  16.696  0.00  0.00    +0.000 C 
ENDROOT
BRANCH   2   3
ATOM      3  C   UNL     1       3.939   3.758  17.479  0.00  0.00    +0.000 A 
ATOM      4  C   UNL     1       2.695   3.232  17.165  0.00  0.00    +0.000 A 
ATOM      5  C   UNL     1       2.090   2.535  18.250  0.00  0.00    +0.000 A 
ATOM      6  C   UNL     1       2.890   2.534  19.368  0.00  0.00    +0.000 A 
ATOM      7  S   UNL     1       4.367   3.344  19.097  0.00  0.00    +0.000 S 
ENDBRANCH   2   3
BRANCH   1   9
ATOM      8  O   UNL     1       6.690   4.391  13.743  0.00  0.00    +0.000 OA
ATOM      9  C   UNL     1       6.618   4.659  14.932  0.00  0.00    +0.000 C 
BRANCH   9  10
ATOM     10  O   UNL     1       7.404   5.577  15.525  0.00  0.00    +0.000 OA
ATOM     11  H   UNL     1       6.936   6.235  16.068  0.00  0.00    +0.000 HD
ENDBRANCH   9  10
ENDBRANCH   1   9
TORSDOF 3
ENDMDL
MODEL 9
REMARK VINA RESULT:      -4.7      1.132      1.228
REMARK  Name = 
REMARK  3 active torsions:
REMARK  status: ('A' for Active; 'I' for Inactive)
REMARK    1  A    between atoms: C_2  and  O_3
REMARK    2  A    between atoms: C_2  and  C_4
REMARK    3  A    between atoms: C_5  and  C_6
REMARK                            x       y       z     vdW  Elec       q    Type
REMARK                         _______ _______ _______ _____ _____    ______ ____
ROOT
ATOM      1  C   UNL     1       5.805   4.553  17.280  0.00  0.00    +0.000 C 
ATOM      2  C   UNL     1       5.302   4.407  18.516  0.00  0.00    +0.000 C 
ENDROOT
BRANCH   2   3
ATOM      3  C   UNL     1       3.908   4.185  18.725  0.00  0.00    +0.000 A 
ATOM      4  C   UNL     1       3.042   4.702  19.676  0.00  0.00    +0.000 A 
ATOM      5  C   UNL     1       1.714   4.196  19.561  0.00  0.00    +0.000 A 
ATOM      6  C   UNL     1       1.592   3.310  18.518  0.00  0.00    +0.000 A 
ATOM      7  S   UNL     1       3.061   3.115  17.670  0.00  0.00    +0.000 S 
ENDBRANCH   2   3
BRANCH   1   9
ATOM      8  O   UNL     1       7.515   5.712  16.153  0.00  0.00    +0.000 OA
ATOM      9  C   UNL     1       7.210   4.845  16.956  0.00  0.00    +0.000 C 
BRANCH   9  10
ATOM     10  O   UNL     1       8.118   4.062  17.570  0.00  0.00    +0.000 OA
ATOM     11  H   UNL     1       7.769   3.507  18.288  0.00  0.00    +0.000 HD
ENDBRANCH   9  10
ENDBRANCH   1   9
TORSDOF 3
ENDMDL
