MODEL 1
REMARK VINA RESULT:      -7.0      0.000      0.000
REMARK  Name = 
REMARK  6 active torsions:
REMARK  status: ('A' for Active; 'I' for Inactive)
REMARK    1  A    between atoms: O_1  and  N_2
REMARK    2  A    between atoms: C_3  and  C_4
REMARK    3  A    between atoms: N_8  and  C_9
REMARK    4  A    between atoms: C_9  and  C_10
REMARK    5  A    between atoms: C_10  and  C_11
REMARK    6  A    between atoms: C_11  and  N_12
REMARK                            x       y       z     vdW  Elec       q    Type
REMARK                         _______ _______ _______ _____ _____    ______ ____
ROOT
ATOM      1  C   UNL     1       7.084   5.448  17.231  0.00  0.00    +0.000 A 
ATOM      2  N   UNL     1       7.648   4.557  16.435  0.00  0.00    +0.000 NA
ATOM      3  C   UNL     1       6.875   4.512  15.309  0.00  0.00    +0.000 A 
ATOM      4  C   UNL     1       5.839   5.397  15.405  0.00  0.00    +0.000 A 
ATOM      5  N   UNL     1       5.952   5.981  16.636  0.00  0.00    +0.000 N 
ENDROOT
BRANCH   1   7
ATOM      6  N   UNL     1       7.338   5.091  19.595  0.00  0.00    +0.000 NA
ATOM      7  C   UNL     1       7.661   5.739  18.513  0.00  0.00    +0.000 C 
BRANCH   6   8
ATOM      8  O   UNL     1       8.084   5.567  20.688  0.00  0.00    +0.000 OA
ATOM      9  H   UNL     1       7.922   6.530  20.691  0.00  0.00    +0.000 HD
ENDBRANCH   6   8
ENDBRANCH   1   7
BRANCH   5  10
ATOM     10  C   UNL     1       5.063   6.964  17.220  0.00  0.00    +0.000 C 
BRANCH  10  11
ATOM     11  C   UNL     1       3.728   6.401  17.697  0.00  0.00    +0.000 C 
BRANCH  11  12
ATOM     12  C   UNL     1       3.834   5.780  19.078  0.00  0.00    +0.000 C 
BRANCH  12  13
ATOM     13  N   UNL     1       2.743   4.794  19.224  0.00  0.00    +0.000 N 
ATOM     14  C   UNL     1       2.075   4.707  20.400  0.00  0.00    +0.000 A 
ATOM     15  C   UNL     1       1.086   3.749  20.582  0.00  0.00    +0.000 A 
ATOM     16  C   UNL     1       0.806   2.857  19.547  0.00  0.00    +0.000 A 
ATOM     17  C   UNL     1       1.500   2.954  18.365  0.00  0.00    +0.000 A 
ATOM     18  C   UNL     1       2.481   3.925  18.224  0.00  0.00    +0.000 A 
ENDBRANCH  12  13
ENDBRANCH  11  12
ENDBRANCH  10  11
ENDBRANCH   5  10
TORSDOF 6
ENDMDL
MODEL 2
REMARK VINA RESULT:      -6.9      1.305      1.870
REMARK  Name = 
REMARK  6 active torsions:
REMARK  status: ('A' for Active; 'I' for Inactive)
REMARK    1  A    between atoms: O_1  and  N_2
REMARK    2  A    between atoms: C_3  and  C_4
REMARK    3  A    between atoms: N_8  and  C_9
REMARK    4  A    between atoms: C_9  and  C_10
REMARK    5  A    between atoms: C_10  and  C_11
REMARK    6  A    between atoms: C_11  and  N_12
REMARK                            x       y       z     vdW  Elec       q    Type
REMARK                         _______ _______ _______ _____ _____    ______ ____
ROOT
ATOM      1  C   UNL     1       6.608   4.978  17.217  0.00  0.00    +0.000 A 
ATOM      2  N   UNL     1       7.623   4.835  16.382  0.00  0.00    +0.000 NA
ATOM      3  C   UNL     1       7.074   4.723  15.136  0.00  0.00    +0.000 A 
ATOM      4  C   UNL     1       5.713   4.819  15.202  0.00  0.00    +0.000 A 
ATOM      5  N   UNL     1       5.407   4.959  16.527  0.00  0.00    +0.000 N 
ENDROOT
BRANCH   1   7
ATOM      6  N   UNL     1       8.042   5.261  19.127  0.00  0.00    +0.000 NA
ATOM      7  C   UNL     1       6.848   5.127  18.625  0.00  0.00    +0.000 C 
BRANCH   6   8
ATOM      8  O   UNL     1       7.968   5.421  20.522  0.00  0.00    +0.000 OA
ATOM      9  H   UNL     1       7.040   5.210  20.742  0.00  0.00    +0.000 HD
ENDBRANCH   6   8
ENDBRANCH   1   7
BRANCH   5  10
ATOM     10  C   UNL     1       4.085   5.062  17.112  0.00  0.00    +0.000 C 
BRANCH  10  11
ATOM     11  C   UNL     1       3.276   3.770  17.068  0.00  0.00    +0.000 C 
BRANCH  11  12
ATOM     12  C   UNL     1       3.786   2.745  18.066  0.00  0.00    +0.000 C 
BRANCH  12  13
ATOM     13  N   UNL     1       2.891   2.761  19.241  0.00  0.00    +0.000 N 
ATOM     14  C   UNL     1       1.577   3.047  19.076  0.00  0.00    +0.000 A 
ATOM     15  C   UNL     1       0.727   3.127  20.172  0.00  0.00    +0.000 A 
ATOM     16  C   UNL     1       1.249   2.933  21.450  0.00  0.00    +0.000 A 
ATOM     17  C   UNL     1       2.586   2.652  21.600  0.00  0.00    +0.000 A 
ATOM     18  C   UNL     1       3.401   2.583  20.479  0.00  0.00    +0.000 A 
ENDBRANCH  12  13
ENDBRANCH  11  12
ENDBRANCH  10  11
ENDBRANCH   5  10
TORSDOF 6
ENDMDL
MODEL 3
REMARK VINA RESULT:      -6.9      0.729      1.316
REMARK  Name = 
REMARK  6 active torsions:
REMARK  status: ('A' for Active; 'I' for Inactive)
REMARK    1  A    between atoms: O_1  and  N_2
REMARK    2  A    between atoms: C_3  and  C_4
REMARK    3  A    between atoms: N_8  and  C_9
REMARK    4  A    between atoms: C_9  and  C_10
REMARK    5  A    between atoms: C_10  and  C_11
REMARK    6  A    between atoms: C_11  and  N_12
REMARK                            x       y       z     vdW  Elec       q    Type
REMARK                         _______ _______ _______ _____ _____    ______ ____
ROOT
ATOM      1  C   UNL     1       6.998   5.324  16.974  0.00  0.00    +0.000 A 
ATOM      2  N   UNL     1       7.706   4.660  16.077  0.00  0.00    +0.000 NA
ATOM      3  C   UNL     1       6.913   4.558  14.970  0.00  0.00    +0.000 A 
ATOM      4  C   UNL     1       5.716   5.180  15.179  0.00  0.00    +0.000 A 
ATOM      5  N   UNL     1       5.753   5.652  16.462  0.00  0.00    +0.000 N 
ENDROOT
BRANCH   1   7
ATOM      6  N   UNL     1       7.109   5.060  19.361  0.00  0.00    +0.000 NA
ATOM      7  C   UNL     1       7.554   5.608  18.267  0.00  0.00    +0.000 C 
BRANCH   6   8
ATOM      8  O   UNL     1       7.863   5.497  20.465  0.00  0.00    +0.000 OA
ATOM      9  H   UNL     1       8.652   4.921  20.463  0.00  0.00    +0.000 HD
ENDBRANCH   6   8
ENDBRANCH   1   7
BRANCH   5  10
ATOM     10  C   UNL     1       4.699   6.354  17.165  0.00  0.00    +0.000 C 
BRANCH  10  11
ATOM     11  C   UNL     1       3.542   5.467  17.614  0.00  0.00    +0.000 C 
BRANCH  11  12
ATOM     12  C   UNL     1       2.903   5.973  18.895  0.00  0.00    +0.000 C 
BRANCH  12  13
ATOM     13  N   UNL     1       2.338   4.814  19.616  0.00  0.00    +0.000 N 
ATOM     14  C   UNL     1       1.447   4.007  18.990  0.00  0.00    +0.000 A 
ATOM     15  C   UNL     1       0.857   2.947  19.665  0.00  0.00    +0.000 A 
ATOM     16  C   UNL     1       1.172   2.738  21.008  0.00  0.00    +0.000 A 
ATOM     17  C   UNL     1       2.069   3.571  21.630  0.00  0.00    +0.000 A 
ATOM     18  C   UNL     1       2.636   4.620  20.919  0.00  0.00    +0.000 A 
ENDBRANCH  12  13
ENDBRANCH  11  12
ENDBRANCH  10  11
ENDBRANCH   5  10
TORSDOF 6
ENDMDL
MODEL 4
REMARK VINA RESULT:      -6.9      0.827      1.339
REMARK  Name = 
REMARK  6 active torsions:
REMARK  status: ('A' for Active; 'I' for Inactive)
REMARK    1  A    between atoms: O_1  and  N_2
REMARK    2  A    between atoms: C_3  and  C_4
REMARK    3  A    between atoms: N_8  and  C_9
REMARK    4  A    between atoms: C_9  and  C_10
REMARK    5  A    between atoms: C_10  and  C_11
REMARK    6  A    between atoms: C_11  and  N_12
REMARK                            x       y       z     vdW  Elec       q    Type
REMARK                         _______ _______ _______ _____ _____    ______ ____
ROOT
ATOM      1  C   UNL     1       7.184   5.382  17.364  0.00  0.00    +0.000 A 
ATOM      2  N   UNL     1       7.681   4.439  16.583  0.00  0.00    +0.000 NA
ATOM      3  C   UNL     1       6.923   4.451  15.446  0.00  0.00    +0.000 A 
ATOM      4  C   UNL     1       5.966   5.422  15.519  0.00  0.00    +0.000 A 
ATOM      5  N   UNL     1       6.110   6.006  16.747  0.00  0.00    +0.000 N 
ENDROOT
BRANCH   1   7
ATOM      6  N   UNL     1       7.280   5.137  19.754  0.00  0.00    +0.000 NA
ATOM      7  C   UNL     1       7.766   5.634  18.652  0.00  0.00    +0.000 C 
BRANCH   6   8
ATOM      8  O   UNL     1       8.071   5.523  20.850  0.00  0.00    +0.000 OA
ATOM      9  H   UNL     1       8.385   6.419  20.621  0.00  0.00    +0.000 HD
ENDBRANCH   6   8
ENDBRANCH   1   7
BRANCH   5  10
ATOM     10  C   UNL     1       5.301   7.066  17.310  0.00  0.00    +0.000 C 
BRANCH  10  11
ATOM     11  C   UNL     1       3.883   6.646  17.683  0.00  0.00    +0.000 C 
BRANCH  11  12
ATOM     12  C   UNL     1       3.845   5.865  18.985  0.00  0.00    +0.000 C 
BRANCH  12  13
ATOM     13  N   UNL     1       3.262   4.536  18.708  0.00  0.00    +0.000 N 
ATOM     14  C   UNL     1       4.079   3.497  18.411  0.00  0.00    +0.000 A 
ATOM     15  C   UNL     1       3.552   2.253  18.088  0.00  0.00    +0.000 A 
ATOM     16  C   UNL     1       2.168   2.092  18.048  0.00  0.00    +0.000 A 
ATOM     17  C   UNL     1       1.354   3.159  18.342  0.00  0.00    +0.000 A 
ATOM     18  C   UNL     1       1.920   4.386  18.659  0.00  0.00    +0.000 A 
ENDBRANCH  12  13
ENDBRANCH  11  12
ENDBRANCH  10  11
ENDBRANCH   5  10
TORSDOF 6
ENDMDL
MODEL 5
REMARK VINA RESULT:      -6.6      0.924      1.154
REMARK  Name = 
REMARK  6 active torsions:
REMARK  status: ('A' for Active; 'I' for Inactive)
REMARK    1  A    between atoms: O_1  and  N_2
REMARK    2  A    between atoms: C_3  and  C_4
REMARK    3  A    between atoms: N_8  and  C_9
REMARK    4  A    between atoms: C_9  and  C_10
REMARK    5  A    between atoms: C_10  and  C_11
REMARK    6  A    between atoms: C_11  and  N_12
REMARK                            x       y       z     vdW  Elec       q    Type
REMARK                         _______ _______ _______ _____ _____    ______ ____
ROOT
ATOM      1  C   UNL     1       7.041   4.846  17.296  0.00  0.00    +0.000 A 
ATOM      2  N   UNL     1       7.716   4.719  16.167  0.00  0.00    +0.000 NA
ATOM      3  C   UNL     1       6.803   4.358  15.218  0.00  0.00    +0.000 A 
ATOM      4  C   UNL     1       5.552   4.281  15.762  0.00  0.00    +0.000 A 
ATOM      5  N   UNL     1       5.698   4.568  17.091  0.00  0.00    +0.000 N 
ENDROOT
BRANCH   1   7
ATOM      6  N   UNL     1       7.188   5.080  19.684  0.00  0.00    +0.000 NA
ATOM      7  C   UNL     1       7.718   5.227  18.504  0.00  0.00    +0.000 C 
BRANCH   6   8
ATOM      8  O   UNL     1       8.089   5.506  20.676  0.00  0.00    +0.000 OA
ATOM      9  H   UNL     1       8.511   4.683  20.991  0.00  0.00    +0.000 HD
ENDBRANCH   6   8
ENDBRANCH   1   7
BRANCH   5  10
ATOM     10  C   UNL     1       4.661   4.579  18.101  0.00  0.00    +0.000 C 
BRANCH  10  11
ATOM     11  C   UNL     1       3.999   5.936  18.311  0.00  0.00    +0.000 C 
BRANCH  11  12
ATOM     12  C   UNL     1       2.486   5.851  18.227  0.00  0.00    +0.000 C 
BRANCH  12  13
ATOM     13  N   UNL     1       2.028   4.833  19.195  0.00  0.00    +0.000 N 
ATOM     14  C   UNL     1       2.402   4.931  20.494  0.00  0.00    +0.000 A 
ATOM     15  C   UNL     1       2.035   3.955  21.411  0.00  0.00    +0.000 A 
ATOM     16  C   UNL     1       1.295   2.857  20.974  0.00  0.00    +0.000 A 
ATOM     17  C   UNL     1       0.932   2.769  19.652  0.00  0.00    +0.000 A 
ATOM     18  C   UNL     1       1.321   3.765  18.767  0.00  0.00    +0.000 A 
ENDBRANCH  12  13
ENDBRANCH  11  12
ENDBRANCH  10  11
ENDBRANCH   5  10
TORSDOF 6
ENDMDL
MODEL 6
REMARK VINA RESULT:      -6.6      1.571      1.781
REMARK  Name = 
REMARK  6 active torsions:
REMARK  status: ('A' for Active; 'I' for Inactive)
REMARK    1  A    between atoms: O_1  and  N_2
REMARK    2  A    between atoms: C_3  and  C_4
REMARK    3  A    between atoms: N_8  and  C_9
REMARK    4  A    between atoms: C_9  and  C_10
REMARK    5  A    between atoms: C_10  and  C_11
REMARK    6  A    between atoms: C_11  and  N_12
REMARK                            x       y       z     vdW  Elec       q    Type
REMARK                         _______ _______ _______ _____ _____    ______ ____
ROOT
ATOM      1  C   UNL     1       7.024   5.679  16.705  0.00  0.00    +0.000 A 
ATOM      2  N   UNL     1       7.446   5.535  15.461  0.00  0.00    +0.000 NA
ATOM      3  C   UNL     1       6.773   4.458  14.956  0.00  0.00    +0.000 A 
ATOM      4  C   UNL     1       5.916   3.949  15.889  0.00  0.00    +0.000 A 
ATOM      5  N   UNL     1       6.086   4.707  17.014  0.00  0.00    +0.000 N 
ENDROOT
BRANCH   1   7
ATOM      6  N   UNL     1       7.699   7.955  17.086  0.00  0.00    +0.000 NA
ATOM      7  C   UNL     1       7.541   6.740  17.524  0.00  0.00    +0.000 C 
BRANCH   6   8
ATOM      8  O   UNL     1       8.187   8.782  18.113  0.00  0.00    +0.000 OA
ATOM      9  H   UNL     1       7.739   8.459  18.919  0.00  0.00    +0.000 HD
ENDBRANCH   6   8
ENDBRANCH   1   7
BRANCH   5  10
ATOM     10  C   UNL     1       5.425   4.534  18.291  0.00  0.00    +0.000 C 
BRANCH  10  11
ATOM     11  C   UNL     1       4.442   5.645  18.646  0.00  0.00    +0.000 C 
BRANCH  11  12
ATOM     12  C   UNL     1       3.132   5.508  17.891  0.00  0.00    +0.000 C 
BRANCH  12  13
ATOM     13  N   UNL     1       2.248   4.609  18.663  0.00  0.00    +0.000 N 
ATOM     14  C   UNL     1       2.085   4.813  19.993  0.00  0.00    +0.000 A 
ATOM     15  C   UNL     1       1.307   3.947  20.751  0.00  0.00    +0.000 A 
ATOM     16  C   UNL     1       0.716   2.847  20.130  0.00  0.00    +0.000 A 
ATOM     17  C   UNL     1       0.899   2.650  18.783  0.00  0.00    +0.000 A 
ATOM     18  C   UNL     1       1.685   3.539  18.062  0.00  0.00    +0.000 A 
ENDBRANCH  12  13
ENDBRANCH  11  12
ENDBRANCH  10  11
ENDBRANCH   5  10
TORSDOF 6
ENDMDL
MODEL 7
REMARK VINA RESULT:      -6.4      2.108      2.841
REMARK  Name = 
REMARK  6 active torsions:
REMARK  status: ('A' for Active; 'I' for Inactive)
REMARK    1  A    between atoms: O_1  and  N_2
REMARK    2  A    between atoms: C_3  and  C_4
REMARK    3  A    between atoms: N_8  and  C_9
REMARK    4  A    between atoms: C_9  and  C_10
REMARK    5  A    between atoms: C_10  and  C_11
REMARK    6  A    between atoms: C_11  and  N_12
REMARK                            x       y       z     vdW  Elec       q    Type
REMARK                         _______ _______ _______ _____ _____    ______ ____
ROOT
ATOM      1  C   UNL     1       6.956   5.155  16.537  0.00  0.00    +0.000 A 
ATOM      2  N   UNL     1       7.909   4.525  17.201  0.00  0.00    +0.000 NA
ATOM      3  C   UNL     1       7.688   4.790  18.523  0.00  0.00    +0.000 A 
ATOM      4  C   UNL     1       6.579   5.573  18.675  0.00  0.00    +0.000 A 
ATOM      5  N   UNL     1       6.119   5.829  17.413  0.00  0.00    +0.000 N 
ENDROOT
BRANCH   1   7
ATOM      6  N   UNL     1       7.855   5.512  14.336  0.00  0.00    +0.000 NA
ATOM      7  C   UNL     1       6.899   5.075  15.104  0.00  0.00    +0.000 C 
BRANCH   6   8
ATOM      8  O   UNL     1       7.541   5.271  12.986  0.00  0.00    +0.000 OA
ATOM      9  H   UNL     1       8.304   4.765  12.646  0.00  0.00    +0.000 HD
ENDBRANCH   6   8
ENDBRANCH   1   7
BRANCH   5  10
ATOM     10  C   UNL     1       4.983   6.648  17.048  0.00  0.00    +0.000 C 
BRANCH  10  11
ATOM     11  C   UNL     1       3.687   6.282  17.763  0.00  0.00    +0.000 C 
BRANCH  11  12
ATOM     12  C   UNL     1       3.301   4.831  17.534  0.00  0.00    +0.000 C 
BRANCH  12  13
ATOM     13  N   UNL     1       2.536   4.367  18.709  0.00  0.00    +0.000 N 
ATOM     14  C   UNL     1       2.887   4.794  19.947  0.00  0.00    +0.000 A 
ATOM     15  C   UNL     1       2.222   4.325  21.072  0.00  0.00    +0.000 A 
ATOM     16  C   UNL     1       1.202   3.387  20.915  0.00  0.00    +0.000 A 
ATOM     17  C   UNL     1       0.864   2.959  19.654  0.00  0.00    +0.000 A 
ATOM     18  C   UNL     1       1.555   3.451  18.556  0.00  0.00    +0.000 A 
ENDBRANCH  12  13
ENDBRANCH  11  12
ENDBRANCH  10  11
ENDBRANCH   5  10
TORSDOF 6
ENDMDL
MODEL 8
REMARK VINA RESULT:      -6.4      1.176      1.569
REMARK  Name = 
REMARK  6 active torsions:
REMARK  status: ('A' for Active; 'I' for Inactive)
REMARK    1  A    between atoms: O_1  and  N_2
REMARK    2  A    between atoms: C_3  and  C_4
REMARK    3  A    between atoms: N_8  and  C_9
REMARK    4  A    between atoms: C_9  and  C_10
REMARK    5  A    between atoms: C_10  and  C_11
REMARK    6  A    between atoms: C_11  and  N_12
REMARK                            x       y       z     vdW  Elec       q    Type
REMARK                         _______ _______ _______ _____ _____    ______ ____
ROOT
ATOM      1  C   UNL     1       6.945   5.104  16.967  0.00  0.00    +0.000 A 
ATOM      2  N   UNL     1       7.613   4.479  16.014  0.00  0.00    +0.000 NA
ATOM      3  C   UNL     1       6.985   4.796  14.842  0.00  0.00    +0.000 A 
ATOM      4  C   UNL     1       5.936   5.639  15.074  0.00  0.00    +0.000 A 
ATOM      5  N   UNL     1       5.889   5.823  16.428  0.00  0.00    +0.000 N 
ENDROOT
BRANCH   1   7
ATOM      6  N   UNL     1       7.845   5.977  19.020  0.00  0.00    +0.000 NA
ATOM      7  C   UNL     1       7.357   4.980  18.338  0.00  0.00    +0.000 C 
BRANCH   6   8
ATOM      8  O   UNL     1       8.126   5.571  20.336  0.00  0.00    +0.000 OA
ATOM      9  H   UNL     1       8.902   4.985  20.250  0.00  0.00    +0.000 HD
ENDBRANCH   6   8
ENDBRANCH   1   7
BRANCH   5  10
ATOM     10  C   UNL     1       4.925   6.609  17.170  0.00  0.00    +0.000 C 
BRANCH  10  11
ATOM     11  C   UNL     1       3.721   5.818  17.671  0.00  0.00    +0.000 C 
BRANCH  11  12
ATOM     12  C   UNL     1       3.347   6.192  19.094  0.00  0.00    +0.000 C 
BRANCH  12  13
ATOM     13  N   UNL     1       3.143   4.944  19.859  0.00  0.00    +0.000 N 
ATOM     14  C   UNL     1       3.828   3.828  19.512  0.00  0.00    +0.000 A 
ATOM     15  C   UNL     1       3.610   2.628  20.176  0.00  0.00    +0.000 A 
ATOM     16  C   UNL     1       2.654   2.579  21.191  0.00  0.00    +0.000 A 
ATOM     17  C   UNL     1       1.962   3.718  21.524  0.00  0.00    +0.000 A 
ATOM     18  C   UNL     1       2.210   4.896  20.834  0.00  0.00    +0.000 A 
ENDBRANCH  12  13
ENDBRANCH  11  12
ENDBRANCH  10  11
ENDBRANCH   5  10
TORSDOF 6
ENDMDL
MODEL 9
REMARK VINA RESULT:      -6.4      1.334      1.814
REMARK  Name = 
REMARK  6 active torsions:
REMARK  status: ('A' for Active; 'I' for Inactive)
REMARK    1  A    between atoms: O_1  and  N_2
REMARK    2  A    between atoms: C_3  and  C_4
REMARK    3  A    between atoms: N_8  and  C_9
REMARK    4  A    between atoms: C_9  and  C_10
REMARK    5  A    between atoms: C_10  and  C_11
REMARK    6  A    between atoms: C_11  and  N_12
REMARK                            x       y       z     vdW  Elec       q    Type
REMARK                         _______ _______ _______ _____ _____    ______ ____
ROOT
ATOM      1  C   UNL     1       6.814   5.957  16.589  0.00  0.00    +0.000 A 
ATOM      2  N   UNL     1       7.463   5.320  15.631  0.00  0.00    +0.000 NA
ATOM      3  C   UNL     1       6.582   4.412  15.116  0.00  0.00    +0.000 A 
ATOM      4  C   UNL     1       5.375   4.505  15.748  0.00  0.00    +0.000 A 
ATOM      5  N   UNL     1       5.521   5.472  16.704  0.00  0.00    +0.000 N 
ENDROOT
BRANCH   1   7
ATOM      6  N   UNL     1       8.050   6.777  18.482  0.00  0.00    +0.000 NA
ATOM      7  C   UNL     1       7.467   6.994  17.338  0.00  0.00    +0.000 C 
BRANCH   6   8
ATOM      8  O   UNL     1       8.631   7.963  18.964  0.00  0.00    +0.000 OA
ATOM      9  H   UNL     1       7.985   8.304  19.613  0.00  0.00    +0.000 HD
ENDBRANCH   6   8
ENDBRANCH   1   7
BRANCH   5  10
ATOM     10  C   UNL     1       4.527   5.909  17.663  0.00  0.00    +0.000 C 
BRANCH  10  11
ATOM     11  C   UNL     1       4.779   5.438  19.091  0.00  0.00    +0.000 C 
BRANCH  11  12
ATOM     12  C   UNL     1       4.666   3.929  19.220  0.00  0.00    +0.000 C 
BRANCH  12  13
ATOM     13  N   UNL     1       3.251   3.595  19.483  0.00  0.00    +0.000 N 
ATOM     14  C   UNL     1       2.561   2.852  18.584  0.00  0.00    +0.000 A 
ATOM     15  C   UNL     1       1.214   2.576  18.779  0.00  0.00    +0.000 A 
ATOM     16  C   UNL     1       0.571   3.095  19.903  0.00  0.00    +0.000 A 
ATOM     17  C   UNL     1       1.283   3.853  20.800  0.00  0.00    +0.000 A 
ATOM     18  C   UNL     1       2.627   4.108  20.566  0.00  0.00    +0.000 A 
ENDBRANCH  12  13
ENDBRANCH  11  12
ENDBRANCH  10  11
ENDBRANCH   5  10
TORSDOF 6
ENDMDL
