MODEL 1
REMARK VINA RESULT:      -7.2      0.000      0.000
REMARK  Name = 
REMARK  5 active torsions:
REMARK  status: ('A' for Active; 'I' for Inactive)
REMARK    1  A    between atoms: C_1  and  O_2
REMARK    2  A    between atoms: O_2  and  N_3
REMARK    3  A    between atoms: C_5  and  C_6
REMARK    4  A    between atoms: C_7  and  O_8
REMARK    5  A    between atoms: N_9  and  C_10
REMARK                            x       y       z     vdW  Elec       q    Type
REMARK                         _______ _______ _______ _____ _____    ______ ____
ROOT
ATOM      1  C   UNL     1       3.687   5.806  18.089  0.00  0.00    +0.000 A 
ATOM      2  C   UNL     1       3.367   4.959  19.136  0.00  0.00    +0.000 A 
ATOM      3  N   UNL     1       2.541   5.635  20.005  0.00  0.00    +0.000 N 
ATOM      4  C   UNL     1       2.028   5.051  21.227  0.00  0.00    +0.000 C 
ATOM      5  C   UNL     1       2.261   6.909  19.531  0.00  0.00    +0.000 A 
ATOM      6  C   UNL     1       1.453   7.968  19.998  0.00  0.00    +0.000 A 
ATOM      7 BR   UNL     1       0.410   7.898  21.578  0.00  0.00    +0.000 Br
ATOM      8  C   UNL     1       1.392   9.154  19.254  0.00  0.00    +0.000 A 
ATOM      9  C   UNL     1       2.116   9.300  18.080  0.00  0.00    +0.000 A 
ATOM     10  C   UNL     1       2.917   8.257  17.618  0.00  0.00    +0.000 A 
ATOM     11  C   UNL     1       2.998   7.040  18.338  0.00  0.00    +0.000 A 
ENDROOT
BRANCH   1  14
ATOM     12  N   UNL     1       6.372   7.122  17.297  0.00  0.00    +0.000 NA
ATOM     13  C   UNL     1       5.879   6.131  16.623  0.00  0.00    +0.000 C 
ATOM     14  C   UNL     1       4.548   5.490  16.968  0.00  0.00    +0.000 C 
ATOM     15  N   UNL     1       4.238   4.561  16.103  0.00  0.00    +0.000 NA
ATOM     16  C   UNL     1       5.290   4.527  15.168  0.00  0.00    +0.000 A 
ATOM     17  C   UNL     1       5.340   3.732  14.037  0.00  0.00    +0.000 A 
ATOM     18  C   UNL     1       6.460   3.826  13.203  0.00  0.00    +0.000 A 
ATOM     19  C   UNL     1       7.521   4.693  13.517  0.00  0.00    +0.000 A 
ATOM     20  C   UNL     1       7.464   5.501  14.655  0.00  0.00    +0.000 A 
ATOM     21  C   UNL     1       6.333   5.410  15.446  0.00  0.00    +0.000 A 
BRANCH  12  23
ATOM     22  C   UNL     1       8.146   8.552  17.621  0.00  0.00    +0.000 C 
ATOM     23  O   UNL     1       7.621   7.511  16.802  0.00  0.00    +0.000 OA
ENDBRANCH  12  23
ENDBRANCH   1  14
BRANCH   2  24
ATOM     24  O   UNL     1       3.723   3.705  19.405  0.00  0.00    +0.000 OA
ATOM     25  H   UNL     1       3.298   3.435  20.247  0.00  0.00    +0.000 HD
ENDBRANCH   2  24
TORSDOF 3
ENDMDL
MODEL 2
REMARK VINA RESULT:      -7.2      2.951      5.039
REMARK  Name = 
REMARK  5 active torsions:
REMARK  status: ('A' for Active; 'I' for Inactive)
REMARK    1  A    between atoms: C_1  and  O_2
REMARK    2  A    between atoms: O_2  and  N_3
REMARK    3  A    between atoms: C_5  and  C_6
REMARK    4  A    between atoms: C_7  and  O_8
REMARK    5  A    between atoms: N_9  and  C_10
REMARK                            x       y       z     vdW  Elec       q    Type
REMARK                         _______ _______ _______ _____ _____    ______ ____
ROOT
ATOM      1  C   UNL     1       1.231   8.773  19.813  0.00  0.00    +0.000 A 
ATOM      2  C   UNL     1       1.164   9.038  21.170  0.00  0.00    +0.000 A 
ATOM      3  N   UNL     1       0.216  10.013  21.377  0.00  0.00    +0.000 N 
ATOM      4  C   UNL     1      -0.100  10.547  22.686  0.00  0.00    +0.000 C 
ATOM      5  C   UNL     1      -0.391  10.374  20.182  0.00  0.00    +0.000 A 
ATOM      6  C   UNL     1      -1.430  11.270  19.846  0.00  0.00    +0.000 A 
ATOM      7 BR   UNL     1      -2.379  12.322  21.104  0.00  0.00    +0.000 Br
ATOM      8  C   UNL     1      -1.809  11.395  18.504  0.00  0.00    +0.000 A 
ATOM      9  C   UNL     1      -1.177  10.664  17.509  0.00  0.00    +0.000 A 
ATOM     10  C   UNL     1      -0.149   9.780  17.837  0.00  0.00    +0.000 A 
ATOM     11  C   UNL     1       0.257   9.620  19.185  0.00  0.00    +0.000 A 
ENDROOT
BRANCH   1  14
ATOM     12  N   UNL     1       1.800   5.838  20.607  0.00  0.00    +0.000 NA
ATOM     13  C   UNL     1       2.347   6.375  19.562  0.00  0.00    +0.000 C 
ATOM     14  C   UNL     1       2.114   7.822  19.170  0.00  0.00    +0.000 C 
ATOM     15  N   UNL     1       2.826   8.144  18.123  0.00  0.00    +0.000 NA
ATOM     16  C   UNL     1       3.549   6.989  17.770  0.00  0.00    +0.000 A 
ATOM     17  C   UNL     1       4.486   6.901  16.755  0.00  0.00    +0.000 A 
ATOM     18  C   UNL     1       5.124   5.674  16.538  0.00  0.00    +0.000 A 
ATOM     19  C   UNL     1       4.807   4.550  17.321  0.00  0.00    +0.000 A 
ATOM     20  C   UNL     1       3.868   4.643  18.350  0.00  0.00    +0.000 A 
ATOM     21  C   UNL     1       3.274   5.875  18.561  0.00  0.00    +0.000 A 
BRANCH  12  23
ATOM     22  C   UNL     1       0.996   3.685  20.481  0.00  0.00    +0.000 C 
ATOM     23  O   UNL     1       2.144   4.489  20.734  0.00  0.00    +0.000 OA
ENDBRANCH  12  23
ENDBRANCH   1  14
BRANCH   2  24
ATOM     24  O   UNL     1       1.834   8.538  22.206  0.00  0.00    +0.000 OA
ATOM     25  H   UNL     1       1.545   9.007  23.018  0.00  0.00    +0.000 HD
ENDBRANCH   2  24
TORSDOF 3
ENDMDL
MODEL 3
REMARK VINA RESULT:      -7.2      3.264      7.403
REMARK  Name = 
REMARK  5 active torsions:
REMARK  status: ('A' for Active; 'I' for Inactive)
REMARK    1  A    between atoms: C_1  and  O_2
REMARK    2  A    between atoms: O_2  and  N_3
REMARK    3  A    between atoms: C_5  and  C_6
REMARK    4  A    between atoms: C_7  and  O_8
REMARK    5  A    between atoms: N_9  and  C_10
REMARK                            x       y       z     vdW  Elec       q    Type
REMARK                         _______ _______ _______ _____ _____    ______ ____
ROOT
ATOM      1  C   UNL     1       2.170   6.640  19.522  0.00  0.00    +0.000 A 
ATOM      2  C   UNL     1       3.127   6.733  18.526  0.00  0.00    +0.000 A 
ATOM      3  N   UNL     1       3.518   5.461  18.177  0.00  0.00    +0.000 N 
ATOM      4  C   UNL     1       4.526   5.188  17.174  0.00  0.00    +0.000 C 
ATOM      5  C   UNL     1       2.800   4.511  18.892  0.00  0.00    +0.000 A 
ATOM      6  C   UNL     1       2.777   3.099  18.886  0.00  0.00    +0.000 A 
ATOM      7 BR   UNL     1       3.843   2.019  17.751  0.00  0.00    +0.000 Br
ATOM      8  C   UNL     1       1.907   2.432  19.758  0.00  0.00    +0.000 A 
ATOM      9  C   UNL     1       1.083   3.136  20.624  0.00  0.00    +0.000 A 
ATOM     10  C   UNL     1       1.106   4.530  20.634  0.00  0.00    +0.000 A 
ATOM     11  C   UNL     1       1.966   5.239  19.761  0.00  0.00    +0.000 A 
ENDROOT
BRANCH   1  14
ATOM     12  N   UNL     1       1.611   9.475  18.417  0.00  0.00    +0.000 NA
ATOM     13  C   UNL     1       1.218   9.120  19.599  0.00  0.00    +0.000 C 
ATOM     14  C   UNL     1       1.510   7.749  20.180  0.00  0.00    +0.000 C 
ATOM     15  N   UNL     1       1.071   7.657  21.407  0.00  0.00    +0.000 NA
ATOM     16  C   UNL     1       0.490   8.904  21.711  0.00  0.00    +0.000 A 
ATOM     17  C   UNL     1      -0.039   9.271  22.935  0.00  0.00    +0.000 A 
ATOM     18  C   UNL     1      -0.573  10.557  23.074  0.00  0.00    +0.000 A 
ATOM     19  C   UNL     1      -0.590  11.451  21.988  0.00  0.00    +0.000 A 
ATOM     20  C   UNL     1      -0.047  11.080  20.755  0.00  0.00    +0.000 A 
ATOM     21  C   UNL     1       0.500   9.814  20.655  0.00  0.00    +0.000 A 
BRANCH  12  23
ATOM     22  C   UNL     1       2.329  11.624  18.011  0.00  0.00    +0.000 C 
ATOM     23  O   UNL     1       1.192  10.771  18.101  0.00  0.00    +0.000 OA
ENDBRANCH  12  23
ENDBRANCH   1  14
BRANCH   2  24
ATOM     24  O   UNL     1       3.682   7.783  17.924  0.00  0.00    +0.000 OA
ATOM     25  H   UNL     1       3.170   7.982  17.112  0.00  0.00    +0.000 HD
ENDBRANCH   2  24
TORSDOF 3
ENDMDL
MODEL 4
REMARK VINA RESULT:      -7.1      2.356      3.708
REMARK  Name = 
REMARK  5 active torsions:
REMARK  status: ('A' for Active; 'I' for Inactive)
REMARK    1  A    between atoms: C_1  and  O_2
REMARK    2  A    between atoms: O_2  and  N_3
REMARK    3  A    between atoms: C_5  and  C_6
REMARK    4  A    between atoms: C_7  and  O_8
REMARK    5  A    between atoms: N_9  and  C_10
REMARK                            x       y       z     vdW  Elec       q    Type
REMARK                         _______ _______ _______ _____ _____    ______ ____
ROOT
ATOM      1  C   UNL     1       2.395   7.483  19.132  0.00  0.00    +0.000 A 
ATOM      2  C   UNL     1       1.802   7.110  20.325  0.00  0.00    +0.000 A 
ATOM      3  N   UNL     1       1.063   8.172  20.795  0.00  0.00    +0.000 N 
ATOM      4  C   UNL     1       0.323   8.134  22.040  0.00  0.00    +0.000 C 
ATOM      5  C   UNL     1       1.112   9.238  19.908  0.00  0.00    +0.000 A 
ATOM      6  C   UNL     1       0.512  10.516  19.884  0.00  0.00    +0.000 A 
ATOM      7 BR   UNL     1      -0.666  11.166  21.219  0.00  0.00    +0.000 Br
ATOM      8  C   UNL     1       0.779  11.371  18.808  0.00  0.00    +0.000 A 
ATOM      9  C   UNL     1       1.625  10.984  17.779  0.00  0.00    +0.000 A 
ATOM     10  C   UNL     1       2.221   9.724  17.800  0.00  0.00    +0.000 A 
ATOM     11  C   UNL     1       1.968   8.828  18.868  0.00  0.00    +0.000 A 
ENDROOT
BRANCH   1  14
ATOM     12  N   UNL     1       1.913   4.612  18.086  0.00  0.00    +0.000 NA
ATOM     13  C   UNL     1       2.990   5.269  17.789  0.00  0.00    +0.000 C 
ATOM     14  C   UNL     1       3.268   6.663  18.318  0.00  0.00    +0.000 C 
ATOM     15  N   UNL     1       4.445   7.082  17.934  0.00  0.00    +0.000 NA
ATOM     16  C   UNL     1       5.002   6.042  17.167  0.00  0.00    +0.000 A 
ATOM     17  C   UNL     1       6.273   6.033  16.620  0.00  0.00    +0.000 A 
ATOM     18  C   UNL     1       6.677   4.912  15.886  0.00  0.00    +0.000 A 
ATOM     19  C   UNL     1       5.806   3.826  15.692  0.00  0.00    +0.000 A 
ATOM     20  C   UNL     1       4.527   3.833  16.253  0.00  0.00    +0.000 A 
ATOM     21  C   UNL     1       4.164   4.941  16.998  0.00  0.00    +0.000 A 
BRANCH  12  23
ATOM     22  C   UNL     1       1.735   2.343  18.432  0.00  0.00    +0.000 C 
ATOM     23  O   UNL     1       1.876   3.367  17.451  0.00  0.00    +0.000 OA
ENDBRANCH  12  23
ENDBRANCH   1  14
BRANCH   2  24
ATOM     24  O   UNL     1       1.851   5.979  21.026  0.00  0.00    +0.000 OA
ATOM     25  H   UNL     1       2.674   5.501  20.787  0.00  0.00    +0.000 HD
ENDBRANCH   2  24
TORSDOF 3
ENDMDL
MODEL 5
REMARK VINA RESULT:      -7.1      3.034      5.415
REMARK  Name = 
REMARK  5 active torsions:
REMARK  status: ('A' for Active; 'I' for Inactive)
REMARK    1  A    between atoms: C_1  and  O_2
REMARK    2  A    between atoms: O_2  and  N_3
REMARK    3  A    between atoms: C_5  and  C_6
REMARK    4  A    between atoms: C_7  and  O_8
REMARK    5  A    between atoms: N_9  and  C_10
REMARK                            x       y       z     vdW  Elec       q    Type
REMARK                         _______ _______ _______ _____ _____    ______ ____
ROOT
ATOM      1  C   UNL     1       1.053   8.981  19.453  0.00  0.00    +0.000 A 
ATOM      2  C   UNL     1       0.275   9.804  18.657  0.00  0.00    +0.000 A 
ATOM      3  N   UNL     1      -0.546  10.549  19.472  0.00  0.00    +0.000 N 
ATOM      4  C   UNL     1      -1.510  11.504  18.966  0.00  0.00    +0.000 C 
ATOM      5  C   UNL     1      -0.297  10.272  20.809  0.00  0.00    +0.000 A 
ATOM      6  C   UNL     1      -0.813  10.778  22.023  0.00  0.00    +0.000 A 
ATOM      7 BR   UNL     1      -2.129  12.137  22.139  0.00  0.00    +0.000 Br
ATOM      8  C   UNL     1      -0.326  10.265  23.232  0.00  0.00    +0.000 A 
ATOM      9  C   UNL     1       0.641   9.272  23.251  0.00  0.00    +0.000 A 
ATOM     10  C   UNL     1       1.150   8.769  22.055  0.00  0.00    +0.000 A 
ATOM     11  C   UNL     1       0.689   9.268  20.813  0.00  0.00    +0.000 A 
ENDROOT
BRANCH   1  14
ATOM     12  N   UNL     1       1.683   6.169  20.579  0.00  0.00    +0.000 NA
ATOM     13  C   UNL     1       2.302   6.637  19.542  0.00  0.00    +0.000 C 
ATOM     14  C   UNL     1       2.038   8.026  18.990  0.00  0.00    +0.000 C 
ATOM     15  N   UNL     1       2.833   8.289  17.986  0.00  0.00    +0.000 NA
ATOM     16  C   UNL     1       3.641   7.149  17.816  0.00  0.00    +0.000 A 
ATOM     17  C   UNL     1       4.675   7.022  16.905  0.00  0.00    +0.000 A 
ATOM     18  C   UNL     1       5.389   5.819  16.869  0.00  0.00    +0.000 A 
ATOM     19  C   UNL     1       5.052   4.755  17.725  0.00  0.00    +0.000 A 
ATOM     20  C   UNL     1       4.015   4.890  18.650  0.00  0.00    +0.000 A 
ATOM     21  C   UNL     1       3.345   6.100  18.684  0.00  0.00    +0.000 A 
BRANCH  12  23
ATOM     22  C   UNL     1       1.013   3.967  20.553  0.00  0.00    +0.000 C 
ATOM     23  O   UNL     1       2.078   4.860  20.869  0.00  0.00    +0.000 OA
ENDBRANCH  12  23
ENDBRANCH   1  14
BRANCH   2  24
ATOM     24  O   UNL     1       0.206   9.953  17.336  0.00  0.00    +0.000 OA
ATOM     25  H   UNL     1      -0.643  10.393  17.117  0.00  0.00    +0.000 HD
ENDBRANCH   2  24
TORSDOF 3
ENDMDL
MODEL 6
REMARK VINA RESULT:      -7.1      1.757      2.290
REMARK  Name = 
REMARK  5 active torsions:
REMARK  status: ('A' for Active; 'I' for Inactive)
REMARK    1  A    between atoms: C_1  and  O_2
REMARK    2  A    between atoms: O_2  and  N_3
REMARK    3  A    between atoms: C_5  and  C_6
REMARK    4  A    between atoms: C_7  and  O_8
REMARK    5  A    between atoms: N_9  and  C_10
REMARK                            x       y       z     vdW  Elec       q    Type
REMARK                         _______ _______ _______ _____ _____    ______ ____
ROOT
ATOM      1  C   UNL     1       4.332   3.960  17.055  0.00  0.00    +0.000 A 
ATOM      2  C   UNL     1       4.008   2.715  17.566  0.00  0.00    +0.000 A 
ATOM      3  N   UNL     1       3.189   2.892  18.657  0.00  0.00    +0.000 N 
ATOM      4  C   UNL     1       2.675   1.794  19.449  0.00  0.00    +0.000 C 
ATOM      5  C   UNL     1       2.918   4.238  18.857  0.00  0.00    +0.000 A 
ATOM      6  C   UNL     1       2.118   4.945  19.782  0.00  0.00    +0.000 A 
ATOM      7 BR   UNL     1       1.078   4.127  21.138  0.00  0.00    +0.000 Br
ATOM      8  C   UNL     1       2.063   6.343  19.702  0.00  0.00    +0.000 A 
ATOM      9  C   UNL     1       2.785   7.033  18.740  0.00  0.00    +0.000 A 
ATOM     10  C   UNL     1       3.578   6.338  17.827  0.00  0.00    +0.000 A 
ATOM     11  C   UNL     1       3.652   4.925  17.872  0.00  0.00    +0.000 A 
ENDROOT
BRANCH   1  14
ATOM     12  N   UNL     1       6.606   6.040  16.793  0.00  0.00    +0.000 NA
ATOM     13  C   UNL     1       6.320   5.225  15.828  0.00  0.00    +0.000 C 
ATOM     14  C   UNL     1       5.187   4.220  15.915  0.00  0.00    +0.000 C 
ATOM     15  N   UNL     1       5.056   3.564  14.793  0.00  0.00    +0.000 NA
ATOM     16  C   UNL     1       6.043   4.069  13.925  0.00  0.00    +0.000 A 
ATOM     17  C   UNL     1       6.218   3.704  12.602  0.00  0.00    +0.000 A 
ATOM     18  C   UNL     1       7.247   4.310  11.872  0.00  0.00    +0.000 A 
ATOM     19  C   UNL     1       8.097   5.255  12.474  0.00  0.00    +0.000 A 
ATOM     20  C   UNL     1       7.912   5.629  13.806  0.00  0.00    +0.000 A 
ATOM     21  C   UNL     1       6.870   5.035  14.496  0.00  0.00    +0.000 A 
BRANCH  12  23
ATOM     22  C   UNL     1       7.785   7.917  17.415  0.00  0.00    +0.000 C 
ATOM     23  O   UNL     1       7.708   6.842  16.483  0.00  0.00    +0.000 OA
ENDBRANCH  12  23
ENDBRANCH   1  14
BRANCH   2  24
ATOM     24  O   UNL     1       4.357   1.485  17.195  0.00  0.00    +0.000 OA
ATOM     25  H   UNL     1       5.050   1.160  17.808  0.00  0.00    +0.000 HD
ENDBRANCH   2  24
TORSDOF 3
ENDMDL
MODEL 7
REMARK VINA RESULT:      -7.1      2.031      3.401
REMARK  Name = 
REMARK  5 active torsions:
REMARK  status: ('A' for Active; 'I' for Inactive)
REMARK    1  A    between atoms: C_1  and  O_2
REMARK    2  A    between atoms: O_2  and  N_3
REMARK    3  A    between atoms: C_5  and  C_6
REMARK    4  A    between atoms: C_7  and  O_8
REMARK    5  A    between atoms: N_9  and  C_10
REMARK                            x       y       z     vdW  Elec       q    Type
REMARK                         _______ _______ _______ _____ _____    ______ ____
ROOT
ATOM      1  C   UNL     1       4.179   4.602  17.363  0.00  0.00    +0.000 A 
ATOM      2  C   UNL     1       3.627   5.670  18.048  0.00  0.00    +0.000 A 
ATOM      3  N   UNL     1       2.852   5.177  19.073  0.00  0.00    +0.000 N 
ATOM      4  C   UNL     1       2.108   6.024  19.982  0.00  0.00    +0.000 C 
ATOM      5  C   UNL     1       2.915   3.791  19.115  0.00  0.00    +0.000 A 
ATOM      6  C   UNL     1       2.360   2.816  19.973  0.00  0.00    +0.000 A 
ATOM      7 BR   UNL     1       1.269   3.209  21.472  0.00  0.00    +0.000 Br
ATOM      8  C   UNL     1       2.632   1.464  19.727  0.00  0.00    +0.000 A 
ATOM      9  C   UNL     1       3.424   1.075  18.657  0.00  0.00    +0.000 A 
ATOM     10  C   UNL     1       3.971   2.036  17.807  0.00  0.00    +0.000 A 
ATOM     11  C   UNL     1       3.725   3.413  18.028  0.00  0.00    +0.000 A 
ENDROOT
BRANCH   1  14
ATOM     12  N   UNL     1       6.626   6.441  16.920  0.00  0.00    +0.000 NA
ATOM     13  C   UNL     1       6.262   5.572  16.030  0.00  0.00    +0.000 C 
ATOM     14  C   UNL     1       5.046   4.684  16.205  0.00  0.00    +0.000 C 
ATOM     15  N   UNL     1       4.849   3.945  15.145  0.00  0.00    +0.000 NA
ATOM     16  C   UNL     1       5.870   4.283  14.236  0.00  0.00    +0.000 A 
ATOM     17  C   UNL     1       6.003   3.788  12.951  0.00  0.00    +0.000 A 
ATOM     18  C   UNL     1       7.076   4.234  12.170  0.00  0.00    +0.000 A 
ATOM     19  C   UNL     1       8.010   5.149  12.687  0.00  0.00    +0.000 A 
ATOM     20  C   UNL     1       7.869   5.653  13.982  0.00  0.00    +0.000 A 
ATOM     21  C   UNL     1       6.783   5.218  14.720  0.00  0.00    +0.000 A 
BRANCH  12  23
ATOM     22  C   UNL     1       8.039   8.178  17.451  0.00  0.00    +0.000 C 
ATOM     23  O   UNL     1       7.793   7.111  16.541  0.00  0.00    +0.000 OA
ENDBRANCH  12  23
ENDBRANCH   1  14
BRANCH   2  24
ATOM     24  O   UNL     1       3.720   6.985  17.865  0.00  0.00    +0.000 OA
ATOM     25  H   UNL     1       4.053   7.392  18.693  0.00  0.00    +0.000 HD
ENDBRANCH   2  24
TORSDOF 3
ENDMDL
MODEL 8
REMARK VINA RESULT:      -7.0      3.649      7.987
REMARK  Name = 
REMARK  5 active torsions:
REMARK  status: ('A' for Active; 'I' for Inactive)
REMARK    1  A    between atoms: C_1  and  O_2
REMARK    2  A    between atoms: O_2  and  N_3
REMARK    3  A    between atoms: C_5  and  C_6
REMARK    4  A    between atoms: C_7  and  O_8
REMARK    5  A    between atoms: N_9  and  C_10
REMARK                            x       y       z     vdW  Elec       q    Type
REMARK                         _______ _______ _______ _____ _____    ______ ____
ROOT
ATOM      1  C   UNL     1       2.003   7.695  19.433  0.00  0.00    +0.000 A 
ATOM      2  C   UNL     1       2.751   7.961  18.300  0.00  0.00    +0.000 A 
ATOM      3  N   UNL     1       3.437   6.820  17.952  0.00  0.00    +0.000 N 
ATOM      4  C   UNL     1       4.336   6.751  16.819  0.00  0.00    +0.000 C 
ATOM      5  C   UNL     1       3.123   5.775  18.809  0.00  0.00    +0.000 A 
ATOM      6  C   UNL     1       3.501   4.416  18.869  0.00  0.00    +0.000 A 
ATOM      7 BR   UNL     1       4.667   3.577  17.633  0.00  0.00    +0.000 Br
ATOM      8  C   UNL     1       2.983   3.613  19.894  0.00  0.00    +0.000 A 
ATOM      9  C   UNL     1       2.118   4.134  20.844  0.00  0.00    +0.000 A 
ATOM     10  C   UNL     1       1.745   5.476  20.788  0.00  0.00    +0.000 A 
ATOM     11  C   UNL     1       2.241   6.317  19.763  0.00  0.00    +0.000 A 
ENDROOT
BRANCH   1  14
ATOM     12  N   UNL     1       0.206   9.917  18.250  0.00  0.00    +0.000 NA
ATOM     13  C   UNL     1       0.251   9.690  19.525  0.00  0.00    +0.000 C 
ATOM     14  C   UNL     1       1.150   8.631  20.135  0.00  0.00    +0.000 C 
ATOM     15  N   UNL     1       1.067   8.642  21.440  0.00  0.00    +0.000 NA
ATOM     16  C   UNL     1       0.155   9.663  21.767  0.00  0.00    +0.000 A 
ATOM     17  C   UNL     1      -0.179  10.068  23.047  0.00  0.00    +0.000 A 
ATOM     18  C   UNL     1      -1.102  11.109  23.200  0.00  0.00    +0.000 A 
ATOM     19  C   UNL     1      -1.693  11.717  22.078  0.00  0.00    +0.000 A 
ATOM     20  C   UNL     1      -1.348  11.313  20.787  0.00  0.00    +0.000 A 
ATOM     21  C   UNL     1      -0.411  10.302  20.665  0.00  0.00    +0.000 A 
BRANCH  12  23
ATOM     22  C   UNL     1      -1.808  10.340  17.220  0.00  0.00    +0.000 C 
ATOM     23  O   UNL     1      -0.720  10.916  17.936  0.00  0.00    +0.000 OA
ENDBRANCH  12  23
ENDBRANCH   1  14
BRANCH   2  24
ATOM     24  O   UNL     1       2.898   9.067  17.573  0.00  0.00    +0.000 OA
ATOM     25  H   UNL     1       2.140   9.662  17.756  0.00  0.00    +0.000 HD
ENDBRANCH   2  24
TORSDOF 3
ENDMDL
MODEL 9
REMARK VINA RESULT:      -6.9      2.766      5.195
REMARK  Name = 
REMARK  5 active torsions:
REMARK  status: ('A' for Active; 'I' for Inactive)
REMARK    1  A    between atoms: C_1  and  O_2
REMARK    2  A    between atoms: O_2  and  N_3
REMARK    3  A    between atoms: C_5  and  C_6
REMARK    4  A    between atoms: C_7  and  O_8
REMARK    5  A    between atoms: N_9  and  C_10
REMARK                            x       y       z     vdW  Elec       q    Type
REMARK                         _______ _______ _______ _____ _____    ______ ____
ROOT
ATOM      1  C   UNL     1       1.545   8.286  19.805  0.00  0.00    +0.000 A 
ATOM      2  C   UNL     1       1.533   9.151  18.724  0.00  0.00    +0.000 A 
ATOM      3  N   UNL     1       0.874  10.301  19.094  0.00  0.00    +0.000 N 
ATOM      4  C   UNL     1       0.659  11.415  18.195  0.00  0.00    +0.000 C 
ATOM      5  C   UNL     1       0.485  10.240  20.425  0.00  0.00    +0.000 A 
ATOM      6  C   UNL     1      -0.164  11.145  21.294  0.00  0.00    +0.000 A 
ATOM      7 BR   UNL     1      -0.723  12.886  20.797  0.00  0.00    +0.000 Br
ATOM      8  C   UNL     1      -0.410  10.756  22.617  0.00  0.00    +0.000 A 
ATOM      9  C   UNL     1      -0.034   9.503  23.077  0.00  0.00    +0.000 A 
ATOM     10  C   UNL     1       0.605   8.607  22.221  0.00  0.00    +0.000 A 
ATOM     11  C   UNL     1       0.878   8.967  20.879  0.00  0.00    +0.000 A 
ENDROOT
BRANCH   1  14
ATOM     12  N   UNL     1       3.954   7.208  18.192  0.00  0.00    +0.000 NA
ATOM     13  C   UNL     1       3.331   6.468  19.054  0.00  0.00    +0.000 C 
ATOM     14  C   UNL     1       2.125   6.959  19.832  0.00  0.00    +0.000 C 
ATOM     15  N   UNL     1       1.635   6.009  20.585  0.00  0.00    +0.000 NA
ATOM     16  C   UNL     1       2.442   4.877  20.363  0.00  0.00    +0.000 A 
ATOM     17  C   UNL     1       2.238   3.621  20.906  0.00  0.00    +0.000 A 
ATOM     18  C   UNL     1       3.132   2.597  20.577  0.00  0.00    +0.000 A 
ATOM     19  C   UNL     1       4.226   2.841  19.727  0.00  0.00    +0.000 A 
ATOM     20  C   UNL     1       4.425   4.107  19.172  0.00  0.00    +0.000 A 
ATOM     21  C   UNL     1       3.509   5.094  19.492  0.00  0.00    +0.000 A 
BRANCH  12  23
ATOM     22  C   UNL     1       4.942   6.570  16.213  0.00  0.00    +0.000 C 
ATOM     23  O   UNL     1       5.049   6.540  17.633  0.00  0.00    +0.000 OA
ENDBRANCH  12  23
ENDBRANCH   1  14
BRANCH   2  24
ATOM     24  O   UNL     1       2.012   9.033  17.488  0.00  0.00    +0.000 OA
ATOM     25  H   UNL     1       2.609   9.791  17.312  0.00  0.00    +0.000 HD
ENDBRANCH   2  24
TORSDOF 3
ENDMDL
