MODEL 1
REMARK VINA RESULT:      -9.4      0.000      0.000
REMARK  Name = 
REMARK  8 active torsions:
REMARK  status: ('A' for Active; 'I' for Inactive)
REMARK    1  A    between atoms: C_1  and  C_2
REMARK    2  A    between atoms: C_8  and  N_9
REMARK    3  A    between atoms: C_10  and  C_12
REMARK    4  A    between atoms: N_21  and  C_22
REMARK    5  A    between atoms: C_24  and  C_25
REMARK    6  A    between atoms: C_24  and  C_26
REMARK    7  A    between atoms: C_28  and  C_29
REMARK    8  A    between atoms: C_28  and  C_30
REMARK                            x       y       z     vdW  Elec       q    Type
REMARK                         _______ _______ _______ _____ _____    ______ ____
ROOT
ATOM      1  C   UNL     1      -2.205  12.184  21.386  0.00  0.00    +0.000 A 
ATOM      2  C   UNL     1      -2.633  12.525  20.097  0.00  0.00    +0.000 A 
ATOM      3  C   UNL     1      -2.014  11.979  18.952  0.00  0.00    +0.000 A 
ATOM      4  C   UNL     1      -0.925  11.088  19.093  0.00  0.00    +0.000 A 
ATOM      5  N   UNL     1      -0.176  10.494  18.079  0.00  0.00    +0.000 NA
ATOM      6  C   UNL     1       0.731   9.697  18.601  0.00  0.00    +0.000 A 
ATOM      7  N   UNL     1       1.619   8.958  17.844  0.00  0.00    +0.000 N 
ATOM      8  C   UNL     1       2.357   7.893  18.316  0.00  0.00    +0.000 C 
ATOM      9  O   UNL     1       2.298   7.420  19.450  0.00  0.00    +0.000 OA
ATOM     10  N   UNL     1       3.240   7.385  17.392  0.00  0.00    +0.000 N 
ATOM     11  S   UNL     1       0.810   9.694  20.306  0.00  0.00    +0.000 S 
ATOM     12  C   UNL     1      -0.527  10.760  20.389  0.00  0.00    +0.000 A 
ATOM     13  C   UNL     1      -1.147  11.279  21.542  0.00  0.00    +0.000 A 
ATOM     14  H   UNL     1       1.583   9.136  16.855  0.00  0.00    +0.000 HD
ATOM     15  H   UNL     1       3.015   7.493  16.413  0.00  0.00    +0.000 HD
ENDROOT
BRANCH  10  16
ATOM     16  C   UNL     1       4.107   6.248  17.753  0.00  0.00    +0.000 C 
ATOM     17  C   UNL     1       5.263   6.114  16.765  0.00  0.00    +0.000 C 
ATOM     18  C   UNL     1       6.174   4.911  17.075  0.00  0.00    +0.000 C 
ATOM     19  C   UNL     1       7.093   4.689  15.853  0.00  0.00    +0.000 C 
ATOM     20  C   UNL     1       7.102   5.180  18.274  0.00  0.00    +0.000 C 
ATOM     21  N   UNL     1       5.398   3.677  17.240  0.00  0.00    +0.000 NA
ATOM     22  C   UNL     1       4.192   3.703  18.081  0.00  0.00    +0.000 C 
ATOM     23  C   UNL     1       3.393   2.436  17.700  0.00  0.00    +0.000 C 
ATOM     24  C   UNL     1       4.518   3.579  19.581  0.00  0.00    +0.000 C 
ATOM     25  C   UNL     1       3.310   4.937  17.794  0.00  0.00    +0.000 C 
ATOM     26  H   UNL     1       6.007   2.903  17.513  0.00  0.00    +0.000 HD
ENDBRANCH  10  16
BRANCH   1  28
ATOM     27  N   UNL     1      -2.671  14.278  22.591  0.00  0.00    +0.000 N 
ATOM     28  C   UNL     1      -2.800  12.893  22.572  0.00  0.00    +0.000 C 
ATOM     29  O   UNL     1      -3.404  12.219  23.398  0.00  0.00    +0.000 OA
ATOM     30  H   UNL     1      -2.425  14.706  21.707  0.00  0.00    +0.000 HD
BRANCH  27  38
ATOM     31  C   UNL     1      -1.604  15.351  25.206  0.00  0.00    +0.000 C 
ATOM     32  C   UNL     1      -2.970  15.645  24.654  0.00  0.00    +0.000 A 
ATOM     33  C   UNL     1      -3.765  16.577  25.359  0.00  0.00    +0.000 A 
ATOM     34  C   UNL     1      -5.015  16.978  24.886  0.00  0.00    +0.000 A 
ATOM     35  C   UNL     1      -5.489  16.464  23.689  0.00  0.00    +0.000 A 
ATOM     36  C   UNL     1      -4.707  15.564  22.960  0.00  0.00    +0.000 A 
ATOM     37 CL   UNL     1      -5.356  14.962  21.470  0.00  0.00    +0.000 Cl
ATOM     38  C   UNL     1      -3.448  15.127  23.434  0.00  0.00    +0.000 A 
ENDBRANCH  27  38
ENDBRANCH   1  28
TORSDOF 3
ENDMDL
MODEL 2
REMARK VINA RESULT:      -9.2      0.990      1.542
REMARK  Name = 
REMARK  8 active torsions:
REMARK  status: ('A' for Active; 'I' for Inactive)
REMARK    1  A    between atoms: C_1  and  C_2
REMARK    2  A    between atoms: C_8  and  N_9
REMARK    3  A    between atoms: C_10  and  C_12
REMARK    4  A    between atoms: N_21  and  C_22
REMARK    5  A    between atoms: C_24  and  C_25
REMARK    6  A    between atoms: C_24  and  C_26
REMARK    7  A    between atoms: C_28  and  C_29
REMARK    8  A    between atoms: C_28  and  C_30
REMARK                            x       y       z     vdW  Elec       q    Type
REMARK                         _______ _______ _______ _____ _____    ______ ____
ROOT
ATOM      1  C   UNL     1      -2.157  12.406  21.370  0.00  0.00    +0.000 A 
ATOM      2  C   UNL     1      -2.647  12.650  20.081  0.00  0.00    +0.000 A 
ATOM      3  C   UNL     1      -2.082  12.019  18.952  0.00  0.00    +0.000 A 
ATOM      4  C   UNL     1      -0.985  11.140  19.106  0.00  0.00    +0.000 A 
ATOM      5  N   UNL     1      -0.284  10.472  18.104  0.00  0.00    +0.000 NA
ATOM      6  C   UNL     1       0.650   9.716  18.640  0.00  0.00    +0.000 A 
ATOM      7  N   UNL     1       1.502   8.922  17.899  0.00  0.00    +0.000 N 
ATOM      8  C   UNL     1       2.265   7.894  18.413  0.00  0.00    +0.000 C 
ATOM      9  O   UNL     1       2.262   7.507  19.581  0.00  0.00    +0.000 OA
ATOM     10  N   UNL     1       3.105   7.318  17.488  0.00  0.00    +0.000 N 
ATOM     11  S   UNL     1       0.810   9.840  20.335  0.00  0.00    +0.000 S 
ATOM     12  C   UNL     1      -0.525  10.910  20.403  0.00  0.00    +0.000 A 
ATOM     13  C   UNL     1      -1.090  11.514  21.542  0.00  0.00    +0.000 A 
ATOM     14  H   UNL     1       1.419   9.026  16.902  0.00  0.00    +0.000 HD
ATOM     15  H   UNL     1       2.832   7.353  16.516  0.00  0.00    +0.000 HD
ENDROOT
BRANCH  10  16
ATOM     16  C   UNL     1       3.991   6.210  17.891  0.00  0.00    +0.000 C 
ATOM     17  C   UNL     1       5.223   6.150  16.992  0.00  0.00    +0.000 C 
ATOM     18  C   UNL     1       6.161   4.980  17.346  0.00  0.00    +0.000 C 
ATOM     19  C   UNL     1       7.178   4.827  16.194  0.00  0.00    +0.000 C 
ATOM     20  C   UNL     1       6.982   5.258  18.619  0.00  0.00    +0.000 C 
ATOM     21  N   UNL     1       5.430   3.710  17.425  0.00  0.00    +0.000 NA
ATOM     22  C   UNL     1       4.164   3.665  18.172  0.00  0.00    +0.000 C 
ATOM     23  C   UNL     1       3.453   2.374  17.704  0.00  0.00    +0.000 C 
ATOM     24  C   UNL     1       4.380   3.517  19.690  0.00  0.00    +0.000 C 
ATOM     25  C   UNL     1       3.252   4.867  17.844  0.00  0.00    +0.000 C 
ATOM     26  H   UNL     1       6.050   2.956  17.728  0.00  0.00    +0.000 HD
ENDBRANCH  10  16
BRANCH   1  28
ATOM     27  N   UNL     1      -2.668  14.585  22.389  0.00  0.00    +0.000 N 
ATOM     28  C   UNL     1      -2.696  13.202  22.527  0.00  0.00    +0.000 C 
ATOM     29  O   UNL     1      -3.175  12.586  23.472  0.00  0.00    +0.000 OA
ATOM     30  H   UNL     1      -2.531  14.929  21.447  0.00  0.00    +0.000 HD
BRANCH  27  38
ATOM     31  C   UNL     1      -5.584  15.166  21.851  0.00  0.00    +0.000 C 
ATOM     32  C   UNL     1      -4.789  15.753  22.984  0.00  0.00    +0.000 A 
ATOM     33  C   UNL     1      -5.489  16.545  23.922  0.00  0.00    +0.000 A 
ATOM     34  C   UNL     1      -4.859  17.068  25.051  0.00  0.00    +0.000 A 
ATOM     35  C   UNL     1      -3.518  16.798  25.273  0.00  0.00    +0.000 A 
ATOM     36  C   UNL     1      -2.813  15.992  24.373  0.00  0.00    +0.000 A 
ATOM     37 CL   UNL     1      -1.140  15.689  24.709  0.00  0.00    +0.000 Cl
ATOM     38  C   UNL     1      -3.428  15.471  23.210  0.00  0.00    +0.000 A 
ENDBRANCH  27  38
ENDBRANCH   1  28
TORSDOF 3
ENDMDL
MODEL 3
REMARK VINA RESULT:      -9.1      3.230     12.656
REMARK  Name = 
REMARK  8 active torsions:
REMARK  status: ('A' for Active; 'I' for Inactive)
REMARK    1  A    between atoms: C_1  and  C_2
REMARK    2  A    between atoms: C_8  and  N_9
REMARK    3  A    between atoms: C_10  and  C_12
REMARK    4  A    between atoms: N_21  and  C_22
REMARK    5  A    between atoms: C_24  and  C_25
REMARK    6  A    between atoms: C_24  and  C_26
REMARK    7  A    between atoms: C_28  and  C_29
REMARK    8  A    between atoms: C_28  and  C_30
REMARK                            x       y       z     vdW  Elec       q    Type
REMARK                         _______ _______ _______ _____ _____    ______ ____
ROOT
ATOM      1  C   UNL     1       2.302   7.714  19.066  0.00  0.00    +0.000 A 
ATOM      2  C   UNL     1       2.175   6.813  20.131  0.00  0.00    +0.000 A 
ATOM      3  C   UNL     1       1.390   7.123  21.263  0.00  0.00    +0.000 A 
ATOM      4  C   UNL     1       0.733   8.372  21.348  0.00  0.00    +0.000 A 
ATOM      5  N   UNL     1      -0.040   8.855  22.402  0.00  0.00    +0.000 NA
ATOM      6  C   UNL     1      -0.515  10.044  22.099  0.00  0.00    +0.000 A 
ATOM      7  N   UNL     1      -1.329  10.775  22.943  0.00  0.00    +0.000 N 
ATOM      8  C   UNL     1      -2.095  11.854  22.556  0.00  0.00    +0.000 C 
ATOM      9  O   UNL     1      -2.203  12.290  21.410  0.00  0.00    +0.000 OA
ATOM     10  N   UNL     1      -2.743  12.471  23.601  0.00  0.00    +0.000 N 
ATOM     11  S   UNL     1       0.012  10.687  20.608  0.00  0.00    +0.000 S 
ATOM     12  C   UNL     1       0.870   9.245  20.268  0.00  0.00    +0.000 A 
ATOM     13  C   UNL     1       1.632   8.943  19.123  0.00  0.00    +0.000 A 
ATOM     14  H   UNL     1      -1.467  10.370  23.853  0.00  0.00    +0.000 HD
ATOM     15  H   UNL     1      -2.968  11.913  24.413  0.00  0.00    +0.000 HD
ENDROOT
BRANCH  10  16
ATOM     16  C   UNL     1      -3.593  13.648  23.346  0.00  0.00    +0.000 C 
ATOM     17  C   UNL     1      -3.172  14.821  24.228  0.00  0.00    +0.000 C 
ATOM     18  C   UNL     1      -4.061  16.064  24.030  0.00  0.00    +0.000 C 
ATOM     19  C   UNL     1      -3.755  17.050  25.179  0.00  0.00    +0.000 C 
ATOM     20  C   UNL     1      -3.737  16.805  22.720  0.00  0.00    +0.000 C 
ATOM     21  N   UNL     1      -5.486  15.729  24.139  0.00  0.00    +0.000 NA
ATOM     22  C   UNL     1      -5.995  14.550  23.423  0.00  0.00    +0.000 C 
ATOM     23  C   UNL     1      -7.358  14.225  24.076  0.00  0.00    +0.000 C 
ATOM     24  C   UNL     1      -6.282  14.842  21.938  0.00  0.00    +0.000 C 
ATOM     25  C   UNL     1      -5.072  13.324  23.591  0.00  0.00    +0.000 C 
ATOM     26  H   UNL     1      -6.064  16.546  23.937  0.00  0.00    +0.000 HD
ENDBRANCH  10  16
BRANCH   1  28
ATOM     27  N   UNL     1       4.240   6.458  18.220  0.00  0.00    +0.000 N 
ATOM     28  C   UNL     1       3.256   7.402  17.947  0.00  0.00    +0.000 C 
ATOM     29  O   UNL     1       3.065   7.945  16.865  0.00  0.00    +0.000 OA
ATOM     30  H   UNL     1       4.081   5.885  19.039  0.00  0.00    +0.000 HD
BRANCH  27  38
ATOM     31  C   UNL     1       6.940   7.475  17.322  0.00  0.00    +0.000 C 
ATOM     32  C   UNL     1       6.262   6.250  16.776  0.00  0.00    +0.000 A 
ATOM     33  C   UNL     1       6.992   5.462  15.857  0.00  0.00    +0.000 A 
ATOM     34  C   UNL     1       6.483   4.264  15.355  0.00  0.00    +0.000 A 
ATOM     35  C   UNL     1       5.238   3.822  15.773  0.00  0.00    +0.000 A 
ATOM     36  C   UNL     1       4.511   4.571  16.704  0.00  0.00    +0.000 A 
ATOM     37 CL   UNL     1       2.962   3.961  17.187  0.00  0.00    +0.000 Cl
ATOM     38  C   UNL     1       4.999   5.799  17.207  0.00  0.00    +0.000 A 
ENDBRANCH  27  38
ENDBRANCH   1  28
TORSDOF 3
ENDMDL
MODEL 4
REMARK VINA RESULT:      -8.7      3.254     12.698
REMARK  Name = 
REMARK  8 active torsions:
REMARK  status: ('A' for Active; 'I' for Inactive)
REMARK    1  A    between atoms: C_1  and  C_2
REMARK    2  A    between atoms: C_8  and  N_9
REMARK    3  A    between atoms: C_10  and  C_12
REMARK    4  A    between atoms: N_21  and  C_22
REMARK    5  A    between atoms: C_24  and  C_25
REMARK    6  A    between atoms: C_24  and  C_26
REMARK    7  A    between atoms: C_28  and  C_29
REMARK    8  A    between atoms: C_28  and  C_30
REMARK                            x       y       z     vdW  Elec       q    Type
REMARK                         _______ _______ _______ _____ _____    ______ ____
ROOT
ATOM      1  C   UNL     1       2.424   7.540  19.001  0.00  0.00    +0.000 A 
ATOM      2  C   UNL     1       2.209   6.642  20.054  0.00  0.00    +0.000 A 
ATOM      3  C   UNL     1       1.414   6.994  21.166  0.00  0.00    +0.000 A 
ATOM      4  C   UNL     1       0.837   8.283  21.244  0.00  0.00    +0.000 A 
ATOM      5  N   UNL     1       0.067   8.807  22.280  0.00  0.00    +0.000 NA
ATOM      6  C   UNL     1      -0.322  10.026  21.975  0.00  0.00    +0.000 A 
ATOM      7  N   UNL     1      -1.110  10.802  22.802  0.00  0.00    +0.000 N 
ATOM      8  C   UNL     1      -1.794  11.931  22.404  0.00  0.00    +0.000 C 
ATOM      9  O   UNL     1      -1.842  12.381  21.259  0.00  0.00    +0.000 OA
ATOM     10  N   UNL     1      -2.430  12.581  23.436  0.00  0.00    +0.000 N 
ATOM     11  S   UNL     1       0.287  10.644  20.505  0.00  0.00    +0.000 S 
ATOM     12  C   UNL     1       1.060   9.152  20.176  0.00  0.00    +0.000 A 
ATOM     13  C   UNL     1       1.833   8.809  19.050  0.00  0.00    +0.000 A 
ATOM     14  H   UNL     1      -1.300  10.401  23.705  0.00  0.00    +0.000 HD
ATOM     15  H   UNL     1      -2.713  12.033  24.236  0.00  0.00    +0.000 HD
ENDROOT
BRANCH  10  16
ATOM     16  C   UNL     1      -3.196  13.812  23.167  0.00  0.00    +0.000 C 
ATOM     17  C   UNL     1      -2.736  14.945  24.082  0.00  0.00    +0.000 C 
ATOM     18  C   UNL     1      -3.538  16.243  23.871  0.00  0.00    +0.000 C 
ATOM     19  C   UNL     1      -3.215  17.193  25.045  0.00  0.00    +0.000 C 
ATOM     20  C   UNL     1      -3.119  16.981  22.585  0.00  0.00    +0.000 C 
ATOM     21  N   UNL     1      -4.984  15.997  23.922  0.00  0.00    +0.000 NA
ATOM     22  C   UNL     1      -5.538  14.862  23.169  0.00  0.00    +0.000 C 
ATOM     23  C   UNL     1      -6.942  14.615  23.767  0.00  0.00    +0.000 C 
ATOM     24  C   UNL     1      -5.750  15.190  21.680  0.00  0.00    +0.000 C 
ATOM     25  C   UNL     1      -4.700  13.578  23.353  0.00  0.00    +0.000 C 
ATOM     26  H   UNL     1      -5.502  16.852  23.711  0.00  0.00    +0.000 HD
ENDBRANCH  10  16
BRANCH   1  28
ATOM     27  N   UNL     1       4.334   6.204  18.214  0.00  0.00    +0.000 N 
ATOM     28  C   UNL     1       3.387   7.174  17.905  0.00  0.00    +0.000 C 
ATOM     29  O   UNL     1       3.235   7.703  16.810  0.00  0.00    +0.000 OA
ATOM     30  H   UNL     1       4.141   5.652  19.041  0.00  0.00    +0.000 HD
BRANCH  27  38
ATOM     31  C   UNL     1       3.352   3.626  16.981  0.00  0.00    +0.000 C 
ATOM     32  C   UNL     1       4.649   4.301  16.634  0.00  0.00    +0.000 A 
ATOM     33  C   UNL     1       5.406   3.745  15.578  0.00  0.00    +0.000 A 
ATOM     34  C   UNL     1       6.582   4.343  15.127  0.00  0.00    +0.000 A 
ATOM     35  C   UNL     1       7.020   5.520  15.715  0.00  0.00    +0.000 A 
ATOM     36  C   UNL     1       6.271   6.104  16.741  0.00  0.00    +0.000 A 
ATOM     37 CL   UNL     1       6.870   7.577  17.431  0.00  0.00    +0.000 Cl
ATOM     38  C   UNL     1       5.088   5.501  17.228  0.00  0.00    +0.000 A 
ENDBRANCH  27  38
ENDBRANCH   1  28
TORSDOF 3
ENDMDL
MODEL 5
REMARK VINA RESULT:      -8.7      2.298      3.568
REMARK  Name = 
REMARK  8 active torsions:
REMARK  status: ('A' for Active; 'I' for Inactive)
REMARK    1  A    between atoms: C_1  and  C_2
REMARK    2  A    between atoms: C_8  and  N_9
REMARK    3  A    between atoms: C_10  and  C_12
REMARK    4  A    between atoms: N_21  and  C_22
REMARK    5  A    between atoms: C_24  and  C_25
REMARK    6  A    between atoms: C_24  and  C_26
REMARK    7  A    between atoms: C_28  and  C_29
REMARK    8  A    between atoms: C_28  and  C_30
REMARK                            x       y       z     vdW  Elec       q    Type
REMARK                         _______ _______ _______ _____ _____    ______ ____
ROOT
ATOM      1  C   UNL     1      -2.182  12.732  21.317  0.00  0.00    +0.000 A 
ATOM      2  C   UNL     1      -1.757  12.680  22.651  0.00  0.00    +0.000 A 
ATOM      3  C   UNL     1      -0.855  11.689  23.093  0.00  0.00    +0.000 A 
ATOM      4  C   UNL     1      -0.382  10.708  22.190  0.00  0.00    +0.000 A 
ATOM      5  N   UNL     1       0.471   9.641  22.466  0.00  0.00    +0.000 NA
ATOM      6  C   UNL     1       0.713   8.966  21.362  0.00  0.00    +0.000 A 
ATOM      7  N   UNL     1       1.536   7.858  21.315  0.00  0.00    +0.000 N 
ATOM      8  C   UNL     1       2.064   7.321  20.160  0.00  0.00    +0.000 C 
ATOM      9  O   UNL     1       1.924   7.771  19.023  0.00  0.00    +0.000 OA
ATOM     10  N   UNL     1       2.773   6.161  20.368  0.00  0.00    +0.000 N 
ATOM     11  S   UNL     1      -0.133   9.496  19.978  0.00  0.00    +0.000 S 
ATOM     12  C   UNL     1      -0.815  10.791  20.867  0.00  0.00    +0.000 A 
ATOM     13  C   UNL     1      -1.698  11.786  20.405  0.00  0.00    +0.000 A 
ATOM     14  H   UNL     1       1.875   7.543  22.208  0.00  0.00    +0.000 HD
ATOM     15  H   UNL     1       3.204   6.026  21.272  0.00  0.00    +0.000 HD
ENDROOT
BRANCH  10  16
ATOM     16  C   UNL     1       3.392   5.463  19.226  0.00  0.00    +0.000 C 
ATOM     17  C   UNL     1       3.130   3.961  19.304  0.00  0.00    +0.000 C 
ATOM     18  C   UNL     1       3.795   3.180  18.154  0.00  0.00    +0.000 C 
ATOM     19  C   UNL     1       3.739   1.678  18.509  0.00  0.00    +0.000 C 
ATOM     20  C   UNL     1       3.032   3.343  16.826  0.00  0.00    +0.000 C 
ATOM     21  N   UNL     1       5.215   3.523  18.022  0.00  0.00    +0.000 NA
ATOM     22  C   UNL     1       5.610   4.939  18.045  0.00  0.00    +0.000 C 
ATOM     23  C   UNL     1       7.129   4.942  18.332  0.00  0.00    +0.000 C 
ATOM     24  C   UNL     1       5.423   5.625  16.679  0.00  0.00    +0.000 C 
ATOM     25  C   UNL     1       4.903   5.721  19.173  0.00  0.00    +0.000 C 
ATOM     26  H   UNL     1       5.625   3.052  17.213  0.00  0.00    +0.000 HD
ENDBRANCH  10  16
BRANCH   1  28
ATOM     27  N   UNL     1      -4.562  13.335  21.163  0.00  0.00    +0.000 N 
ATOM     28  C   UNL     1      -3.247  13.718  20.921  0.00  0.00    +0.000 C 
ATOM     29  O   UNL     1      -2.886  14.802  20.477  0.00  0.00    +0.000 OA
ATOM     30  H   UNL     1      -4.681  12.560  21.802  0.00  0.00    +0.000 HD
BRANCH  27  38
ATOM     31  C   UNL     1      -6.371  13.694  18.770  0.00  0.00    +0.000 C 
ATOM     32  C   UNL     1      -6.518  14.431  20.071  0.00  0.00    +0.000 A 
ATOM     33  C   UNL     1      -7.648  15.266  20.218  0.00  0.00    +0.000 A 
ATOM     34  C   UNL     1      -7.916  15.930  21.415  0.00  0.00    +0.000 A 
ATOM     35  C   UNL     1      -7.067  15.760  22.496  0.00  0.00    +0.000 A 
ATOM     36  C   UNL     1      -5.959  14.913  22.383  0.00  0.00    +0.000 A 
ATOM     37 CL   UNL     1      -4.938  14.741  23.774  0.00  0.00    +0.000 Cl
ATOM     38  C   UNL     1      -5.656  14.250  21.171  0.00  0.00    +0.000 A 
ENDBRANCH  27  38
ENDBRANCH   1  28
TORSDOF 3
ENDMDL
MODEL 6
REMARK VINA RESULT:      -8.3      3.042     12.722
REMARK  Name = 
REMARK  8 active torsions:
REMARK  status: ('A' for Active; 'I' for Inactive)
REMARK    1  A    between atoms: C_1  and  C_2
REMARK    2  A    between atoms: C_8  and  N_9
REMARK    3  A    between atoms: C_10  and  C_12
REMARK    4  A    between atoms: N_21  and  C_22
REMARK    5  A    between atoms: C_24  and  C_25
REMARK    6  A    between atoms: C_24  and  C_26
REMARK    7  A    between atoms: C_28  and  C_29
REMARK    8  A    between atoms: C_28  and  C_30
REMARK                            x       y       z     vdW  Elec       q    Type
REMARK                         _______ _______ _______ _____ _____    ______ ____
ROOT
ATOM      1  C   UNL     1       1.703   8.311  19.509  0.00  0.00    +0.000 A 
ATOM      2  C   UNL     1       1.729   7.602  20.717  0.00  0.00    +0.000 A 
ATOM      3  C   UNL     1       1.044   8.074  21.857  0.00  0.00    +0.000 A 
ATOM      4  C   UNL     1       0.335   9.296  21.802  0.00  0.00    +0.000 A 
ATOM      5  N   UNL     1      -0.354   9.926  22.837  0.00  0.00    +0.000 NA
ATOM      6  C   UNL     1      -0.917  11.029  22.392  0.00  0.00    +0.000 A 
ATOM      7  N   UNL     1      -1.680  11.864  23.184  0.00  0.00    +0.000 N 
ATOM      8  C   UNL     1      -2.535  12.835  22.706  0.00  0.00    +0.000 C 
ATOM      9  O   UNL     1      -2.778  13.064  21.521  0.00  0.00    +0.000 OA
ATOM     10  N   UNL     1      -3.108  13.599  23.696  0.00  0.00    +0.000 N 
ATOM     11  S   UNL     1      -0.574  11.424  20.768  0.00  0.00    +0.000 S 
ATOM     12  C   UNL     1       0.320   9.975  20.584  0.00  0.00    +0.000 A 
ATOM     13  C   UNL     1       0.980   9.508  19.431  0.00  0.00    +0.000 A 
ATOM     14  H   UNL     1      -1.707  11.617  24.158  0.00  0.00    +0.000 HD
ATOM     15  H   UNL     1      -3.223  13.180  24.609  0.00  0.00    +0.000 HD
ENDROOT
BRANCH  10  16
ATOM     16  C   UNL     1      -4.039  14.685  23.340  0.00  0.00    +0.000 C 
ATOM     17  C   UNL     1      -3.960  15.820  24.358  0.00  0.00    +0.000 C 
ATOM     18  C   UNL     1      -4.948  16.962  24.054  0.00  0.00    +0.000 C 
ATOM     19  C   UNL     1      -5.009  17.877  25.297  0.00  0.00    +0.000 C 
ATOM     20  C   UNL     1      -4.472  17.845  22.885  0.00  0.00    +0.000 C 
ATOM     21  N   UNL     1      -6.309  16.455  23.845  0.00  0.00    +0.000 NA
ATOM     22  C   UNL     1      -6.506  15.289  22.971  0.00  0.00    +0.000 C 
ATOM     23  C   UNL     1      -7.916  14.752  23.307  0.00  0.00    +0.000 C 
ATOM     24  C   UNL     1      -6.529  15.670  21.478  0.00  0.00    +0.000 C 
ATOM     25  C   UNL     1      -5.481  14.170  23.254  0.00  0.00    +0.000 C 
ATOM     26  H   UNL     1      -6.939  17.213  23.576  0.00  0.00    +0.000 HD
ENDBRANCH  10  16
BRANCH   1  28
ATOM     27  N   UNL     1       3.437   6.802  18.632  0.00  0.00    +0.000 N 
ATOM     28  C   UNL     1       2.557   7.844  18.362  0.00  0.00    +0.000 C 
ATOM     29  O   UNL     1       2.377   8.364  17.267  0.00  0.00    +0.000 OA
ATOM     30  H   UNL     1       3.253   6.284  19.482  0.00  0.00    +0.000 HD
BRANCH  27  38
ATOM     31  C   UNL     1       6.073   7.597  17.389  0.00  0.00    +0.000 C 
ATOM     32  C   UNL     1       5.293   6.364  17.026  0.00  0.00    +0.000 A 
ATOM     33  C   UNL     1       5.893   5.463  16.119  0.00  0.00    +0.000 A 
ATOM     34  C   UNL     1       5.287   4.253  15.780  0.00  0.00    +0.000 A 
ATOM     35  C   UNL     1       4.072   3.914  16.354  0.00  0.00    +0.000 A 
ATOM     36  C   UNL     1       3.474   4.777  17.278  0.00  0.00    +0.000 A 
ATOM     37 CL   UNL     1       1.957   4.292  17.962  0.00  0.00    +0.000 Cl
ATOM     38  C   UNL     1       4.062   6.019  17.616  0.00  0.00    +0.000 A 
ENDBRANCH  27  38
ENDBRANCH   1  28
TORSDOF 3
ENDMDL
MODEL 7
REMARK VINA RESULT:      -8.3      3.295     12.691
REMARK  Name = 
REMARK  8 active torsions:
REMARK  status: ('A' for Active; 'I' for Inactive)
REMARK    1  A    between atoms: C_1  and  C_2
REMARK    2  A    between atoms: C_8  and  N_9
REMARK    3  A    between atoms: C_10  and  C_12
REMARK    4  A    between atoms: N_21  and  C_22
REMARK    5  A    between atoms: C_24  and  C_25
REMARK    6  A    between atoms: C_24  and  C_26
REMARK    7  A    between atoms: C_28  and  C_29
REMARK    8  A    between atoms: C_28  and  C_30
REMARK                            x       y       z     vdW  Elec       q    Type
REMARK                         _______ _______ _______ _____ _____    ______ ____
ROOT
ATOM      1  C   UNL     1       2.413   7.732  18.811  0.00  0.00    +0.000 A 
ATOM      2  C   UNL     1       2.231   6.977  19.977  0.00  0.00    +0.000 A 
ATOM      3  C   UNL     1       1.421   7.446  21.033  0.00  0.00    +0.000 A 
ATOM      4  C   UNL     1       0.796   8.711  20.938  0.00  0.00    +0.000 A 
ATOM      5  N   UNL     1       0.005   9.341  21.897  0.00  0.00    +0.000 NA
ATOM      6  C   UNL     1      -0.429  10.493  21.431  0.00  0.00    +0.000 A 
ATOM      7  N   UNL     1      -1.247  11.342  22.149  0.00  0.00    +0.000 N 
ATOM      8  C   UNL     1      -1.972  12.381  21.604  0.00  0.00    +0.000 C 
ATOM      9  O   UNL     1      -2.035  12.670  20.409  0.00  0.00    +0.000 OA
ATOM     10  N   UNL     1      -2.634  13.141  22.541  0.00  0.00    +0.000 N 
ATOM     11  S   UNL     1       0.159  10.928  19.890  0.00  0.00    +0.000 S 
ATOM     12  C   UNL     1       0.988   9.435  19.762  0.00  0.00    +0.000 A 
ATOM     13  C   UNL     1       1.775   8.973  18.690  0.00  0.00    +0.000 A 
ATOM     14  H   UNL     1      -1.423  11.060  23.098  0.00  0.00    +0.000 HD
ATOM     15  H   UNL     1      -2.898  12.695  23.409  0.00  0.00    +0.000 HD
ENDROOT
BRANCH  10  16
ATOM     16  C   UNL     1      -3.445  14.294  22.112  0.00  0.00    +0.000 C 
ATOM     17  C   UNL     1      -2.681  15.600  22.321  0.00  0.00    +0.000 C 
ATOM     18  C   UNL     1      -3.505  16.841  21.928  0.00  0.00    +0.000 C 
ATOM     19  C   UNL     1      -2.772  18.085  22.475  0.00  0.00    +0.000 C 
ATOM     20  C   UNL     1      -3.589  17.021  20.400  0.00  0.00    +0.000 C 
ATOM     21  N   UNL     1      -4.830  16.829  22.557  0.00  0.00    +0.000 NA
ATOM     22  C   UNL     1      -5.622  15.590  22.521  0.00  0.00    +0.000 C 
ATOM     23  C   UNL     1      -6.708  15.761  23.608  0.00  0.00    +0.000 C 
ATOM     24  C   UNL     1      -6.367  15.407  21.186  0.00  0.00    +0.000 C 
ATOM     25  C   UNL     1      -4.775  14.348  22.873  0.00  0.00    +0.000 C 
ATOM     26  H   UNL     1      -5.390  17.620  22.233  0.00  0.00    +0.000 HD
ENDBRANCH  10  16
BRANCH   1  28
ATOM     27  N   UNL     1       4.289   6.275  18.172  0.00  0.00    +0.000 N 
ATOM     28  C   UNL     1       3.392   7.258  17.772  0.00  0.00    +0.000 C 
ATOM     29  O   UNL     1       3.292   7.719  16.640  0.00  0.00    +0.000 OA
ATOM     30  H   UNL     1       4.051   5.787  19.027  0.00  0.00    +0.000 HD
BRANCH  27  38
ATOM     31  C   UNL     1       3.245   3.655  17.088  0.00  0.00    +0.000 C 
ATOM     32  C   UNL     1       4.575   4.258  16.733  0.00  0.00    +0.000 A 
ATOM     33  C   UNL     1       5.337   3.605  15.739  0.00  0.00    +0.000 A 
ATOM     34  C   UNL     1       6.546   4.129  15.282  0.00  0.00    +0.000 A 
ATOM     35  C   UNL     1       7.012   5.326  15.802  0.00  0.00    +0.000 A 
ATOM     36  C   UNL     1       6.259   6.006  16.765  0.00  0.00    +0.000 A 
ATOM     37 CL   UNL     1       6.895   7.500  17.371  0.00  0.00    +0.000 Cl
ATOM     38  C   UNL     1       5.042   5.479  17.258  0.00  0.00    +0.000 A 
ENDBRANCH  27  38
ENDBRANCH   1  28
TORSDOF 3
ENDMDL
MODEL 8
REMARK VINA RESULT:      -8.2      2.316      3.393
REMARK  Name = 
REMARK  8 active torsions:
REMARK  status: ('A' for Active; 'I' for Inactive)
REMARK    1  A    between atoms: C_1  and  C_2
REMARK    2  A    between atoms: C_8  and  N_9
REMARK    3  A    between atoms: C_10  and  C_12
REMARK    4  A    between atoms: N_21  and  C_22
REMARK    5  A    between atoms: C_24  and  C_25
REMARK    6  A    between atoms: C_24  and  C_26
REMARK    7  A    between atoms: C_28  and  C_29
REMARK    8  A    between atoms: C_28  and  C_30
REMARK                            x       y       z     vdW  Elec       q    Type
REMARK                         _______ _______ _______ _____ _____    ______ ____
ROOT
ATOM      1  C   UNL     1      -2.318  12.838  21.261  0.00  0.00    +0.000 A 
ATOM      2  C   UNL     1      -1.807  12.875  22.565  0.00  0.00    +0.000 A 
ATOM      3  C   UNL     1      -0.850  11.935  23.003  0.00  0.00    +0.000 A 
ATOM      4  C   UNL     1      -0.406  10.916  22.128  0.00  0.00    +0.000 A 
ATOM      5  N   UNL     1       0.494   9.889  22.407  0.00  0.00    +0.000 NA
ATOM      6  C   UNL     1       0.685   9.158  21.330  0.00  0.00    +0.000 A 
ATOM      7  N   UNL     1       1.536   8.071  21.292  0.00  0.00    +0.000 N 
ATOM      8  C   UNL     1       2.005   7.481  20.137  0.00  0.00    +0.000 C 
ATOM      9  O   UNL     1       1.779   7.861  18.989  0.00  0.00    +0.000 OA
ATOM     10  N   UNL     1       2.761   6.354  20.364  0.00  0.00    +0.000 N 
ATOM     11  S   UNL     1      -0.263   9.584  19.977  0.00  0.00    +0.000 S 
ATOM     12  C   UNL     1      -0.926  10.910  20.833  0.00  0.00    +0.000 A 
ATOM     13  C   UNL     1      -1.865  11.853  20.374  0.00  0.00    +0.000 A 
ATOM     14  H   UNL     1       1.941   7.818  22.177  0.00  0.00    +0.000 HD
ATOM     15  H   UNL     1       3.252   6.284  21.244  0.00  0.00    +0.000 HD
ENDROOT
BRANCH  10  16
ATOM     16  C   UNL     1       3.326   5.607  19.225  0.00  0.00    +0.000 C 
ATOM     17  C   UNL     1       3.012   4.118  19.346  0.00  0.00    +0.000 C 
ATOM     18  C   UNL     1       3.619   3.287  18.200  0.00  0.00    +0.000 C 
ATOM     19  C   UNL     1       3.517   1.797  18.594  0.00  0.00    +0.000 C 
ATOM     20  C   UNL     1       2.831   3.446  16.887  0.00  0.00    +0.000 C 
ATOM     21  N   UNL     1       5.048   3.573  18.027  0.00  0.00    +0.000 NA
ATOM     22  C   UNL     1       5.494   4.974  18.007  0.00  0.00    +0.000 C 
ATOM     23  C   UNL     1       7.019   4.927  18.258  0.00  0.00    +0.000 C 
ATOM     24  C   UNL     1       5.299   5.634  16.629  0.00  0.00    +0.000 C 
ATOM     25  C   UNL     1       4.843   5.808  19.131  0.00  0.00    +0.000 C 
ATOM     26  H   UNL     1       5.421   3.068  17.221  0.00  0.00    +0.000 HD
ENDBRANCH  10  16
BRANCH   1  28
ATOM     27  N   UNL     1      -3.440  15.014  21.503  0.00  0.00    +0.000 N 
ATOM     28  C   UNL     1      -3.435  13.771  20.880  0.00  0.00    +0.000 C 
ATOM     29  O   UNL     1      -4.217  13.401  20.011  0.00  0.00    +0.000 OA
ATOM     30  H   UNL     1      -2.574  15.281  21.954  0.00  0.00    +0.000 HD
BRANCH  27  38
ATOM     31  C   UNL     1      -6.308  15.472  22.339  0.00  0.00    +0.000 C 
ATOM     32  C   UNL     1      -5.534  16.365  21.410  0.00  0.00    +0.000 A 
ATOM     33  C   UNL     1      -6.161  17.559  20.988  0.00  0.00    +0.000 A 
ATOM     34  C   UNL     1      -5.497  18.492  20.192  0.00  0.00    +0.000 A 
ATOM     35  C   UNL     1      -4.186  18.256  19.811  0.00  0.00    +0.000 A 
ATOM     36  C   UNL     1      -3.535  17.095  20.242  0.00  0.00    +0.000 A 
ATOM     37 CL   UNL     1      -1.894  16.861  19.734  0.00  0.00    +0.000 Cl
ATOM     38  C   UNL     1      -4.198  16.126  21.030  0.00  0.00    +0.000 A 
ENDBRANCH  27  38
ENDBRANCH   1  28
TORSDOF 3
ENDMDL
MODEL 9
REMARK VINA RESULT:      -8.2      1.378      1.603
REMARK  Name = 
REMARK  8 active torsions:
REMARK  status: ('A' for Active; 'I' for Inactive)
REMARK    1  A    between atoms: C_1  and  C_2
REMARK    2  A    between atoms: C_8  and  N_9
REMARK    3  A    between atoms: C_10  and  C_12
REMARK    4  A    between atoms: N_21  and  C_22
REMARK    5  A    between atoms: C_24  and  C_25
REMARK    6  A    between atoms: C_24  and  C_26
REMARK    7  A    between atoms: C_28  and  C_29
REMARK    8  A    between atoms: C_28  and  C_30
REMARK                            x       y       z     vdW  Elec       q    Type
REMARK                         _______ _______ _______ _____ _____    ______ ____
ROOT
ATOM      1  C   UNL     1      -1.962  12.705  20.835  0.00  0.00    +0.000 A 
ATOM      2  C   UNL     1      -2.567  12.745  19.572  0.00  0.00    +0.000 A 
ATOM      3  C   UNL     1      -2.100  11.940  18.512  0.00  0.00    +0.000 A 
ATOM      4  C   UNL     1      -0.987  11.089  18.705  0.00  0.00    +0.000 A 
ATOM      5  N   UNL     1      -0.374  10.265  17.763  0.00  0.00    +0.000 NA
ATOM      6  C   UNL     1       0.610   9.597  18.327  0.00  0.00    +0.000 A 
ATOM      7  N   UNL     1       1.398   8.689  17.648  0.00  0.00    +0.000 N 
ATOM      8  C   UNL     1       2.211   7.751  18.248  0.00  0.00    +0.000 C 
ATOM      9  O   UNL     1       2.314   7.553  19.458  0.00  0.00    +0.000 OA
ATOM     10  N   UNL     1       2.969   7.029  17.355  0.00  0.00    +0.000 N 
ATOM     11  S   UNL     1       0.919   9.986  19.959  0.00  0.00    +0.000 S 
ATOM     12  C   UNL     1      -0.412  11.063  19.976  0.00  0.00    +0.000 A 
ATOM     13  C   UNL     1      -0.878  11.844  21.051  0.00  0.00    +0.000 A 
ATOM     14  H   UNL     1       1.226   8.635  16.658  0.00  0.00    +0.000 HD
ATOM     15  H   UNL     1       2.611   6.912  16.418  0.00  0.00    +0.000 HD
ENDROOT
BRANCH  10  16
ATOM     16  C   UNL     1       3.895   5.993  17.848  0.00  0.00    +0.000 C 
ATOM     17  C   UNL     1       5.161   5.949  16.995  0.00  0.00    +0.000 C 
ATOM     18  C   UNL     1       6.143   4.851  17.443  0.00  0.00    +0.000 C 
ATOM     19  C   UNL     1       7.207   4.690  16.336  0.00  0.00    +0.000 C 
ATOM     20  C   UNL     1       6.903   5.240  18.725  0.00  0.00    +0.000 C 
ATOM     21  N   UNL     1       5.475   3.550  17.569  0.00  0.00    +0.000 NA
ATOM     22  C   UNL     1       4.187   3.479  18.275  0.00  0.00    +0.000 C 
ATOM     23  C   UNL     1       3.559   2.130  17.857  0.00  0.00    +0.000 C 
ATOM     24  C   UNL     1       4.356   3.425  19.805  0.00  0.00    +0.000 C 
ATOM     25  C   UNL     1       3.228   4.612  17.851  0.00  0.00    +0.000 C 
ATOM     26  H   UNL     1       6.121   2.848  17.934  0.00  0.00    +0.000 HD
ENDBRANCH  10  16
BRANCH   1  28
ATOM     27  N   UNL     1      -1.613  13.744  23.037  0.00  0.00    +0.000 N 
ATOM     28  C   UNL     1      -2.402  13.678  21.894  0.00  0.00    +0.000 C 
ATOM     29  O   UNL     1      -3.376  14.382  21.655  0.00  0.00    +0.000 OA
ATOM     30  H   UNL     1      -0.691  13.334  22.956  0.00  0.00    +0.000 HD
BRANCH  27  38
ATOM     31  C   UNL     1       0.298  16.082  22.918  0.00  0.00    +0.000 C 
ATOM     32  C   UNL     1      -0.799  15.924  23.934  0.00  0.00    +0.000 A 
ATOM     33  C   UNL     1      -1.016  16.999  24.824  0.00  0.00    +0.000 A 
ATOM     34  C   UNL     1      -2.059  16.984  25.749  0.00  0.00    +0.000 A 
ATOM     35  C   UNL     1      -2.917  15.896  25.794  0.00  0.00    +0.000 A 
ATOM     36  C   UNL     1      -2.739  14.833  24.902  0.00  0.00    +0.000 A 
ATOM     37 CL   UNL     1      -3.848  13.505  25.007  0.00  0.00    +0.000 Cl
ATOM     38  C   UNL     1      -1.673  14.820  23.972  0.00  0.00    +0.000 A 
ENDBRANCH  27  38
ENDBRANCH   1  28
TORSDOF 3
ENDMDL
