MODEL 1
REMARK VINA RESULT:      -7.4      0.000      0.000
REMARK  Name = 
REMARK  4 active torsions:
REMARK  status: ('A' for Active; 'I' for Inactive)
REMARK    1  A    between atoms: C_1  and  C_2
REMARK    2  A    between atoms: C_2  and  C_3
REMARK    3  A    between atoms: C_8  and  C_9
REMARK    4  A    between atoms: C_15  and  C_16
REMARK                            x       y       z     vdW  Elec       q    Type
REMARK                         _______ _______ _______ _____ _____    ______ ____
ROOT
ATOM      1  C   UNL     1       7.713   7.302  17.744  0.00  0.00    +0.000 C 
ATOM      2  O   UNL     1       7.935   7.376  16.539  0.00  0.00    +0.000 OA
ATOM      3  N   UNL     1       6.774   6.495  18.349  0.00  0.00    +0.000 N 
ATOM      4  C   UNL     1       5.991   5.571  17.663  0.00  0.00    +0.000 A 
ATOM      5  N   UNL     1       6.285   5.260  16.403  0.00  0.00    +0.000 NA
ATOM      6  C   UNL     1       5.485   4.401  15.754  0.00  0.00    +0.000 A 
ATOM      7  C   UNL     1       4.416   3.799  16.368  0.00  0.00    +0.000 A 
ATOM      8  C   UNL     1       4.199   4.143  17.686  0.00  0.00    +0.000 A 
ATOM      9  N   UNL     1       4.974   5.031  18.353  0.00  0.00    +0.000 NA
ATOM     10  H   UNL     1       6.536   6.606  19.322  0.00  0.00    +0.000 HD
ENDROOT
BRANCH   6  11
ATOM     11  C   UNL     1       5.856   4.170  14.357  0.00  0.00    +0.000 A 
ATOM     12  C   UNL     1       5.175   3.441  13.397  0.00  0.00    +0.000 A 
ATOM     13  C   UNL     1       5.857   3.401  12.147  0.00  0.00    +0.000 A 
ATOM     14  C   UNL     1       7.050   4.084  12.191  0.00  0.00    +0.000 A 
ATOM     15  S   UNL     1       7.333   4.780  13.725  0.00  0.00    +0.000 S 
ENDBRANCH   6  11
BRANCH   8  16
ATOM     16  C   UNL     1       3.071   3.587  18.447  0.00  0.00    +0.000 A 
ATOM     17  C   UNL     1       1.737   3.501  18.087  0.00  0.00    +0.000 A 
ATOM     18  C   UNL     1       0.938   2.850  19.074  0.00  0.00    +0.000 A 
ATOM     19  C   UNL     1       1.678   2.476  20.175  0.00  0.00    +0.000 A 
ATOM     20  S   UNL     1       3.317   2.915  20.015  0.00  0.00    +0.000 S 
ENDBRANCH   8  16
BRANCH   1  22
ATOM     21  C   UNL     1       8.534   9.607  18.309  0.00  0.00    +0.000 C 
ATOM     22  C   UNL     1       8.499   8.144  18.734  0.00  0.00    +0.000 C 
ENDBRANCH   1  22
TORSDOF 3
ENDMDL
MODEL 2
REMARK VINA RESULT:      -7.0      1.776      4.744
REMARK  Name = 
REMARK  4 active torsions:
REMARK  status: ('A' for Active; 'I' for Inactive)
REMARK    1  A    between atoms: C_1  and  C_2
REMARK    2  A    between atoms: C_2  and  C_3
REMARK    3  A    between atoms: C_8  and  C_9
REMARK    4  A    between atoms: C_15  and  C_16
REMARK                            x       y       z     vdW  Elec       q    Type
REMARK                         _______ _______ _______ _____ _____    ______ ____
ROOT
ATOM      1  C   UNL     1       6.359   4.087  13.614  0.00  0.00    +0.000 C 
ATOM      2  O   UNL     1       7.354   4.740  13.915  0.00  0.00    +0.000 OA
ATOM      3  N   UNL     1       5.281   3.827  14.432  0.00  0.00    +0.000 N 
ATOM      4  C   UNL     1       5.134   4.354  15.711  0.00  0.00    +0.000 A 
ATOM      5  N   UNL     1       5.936   5.335  16.118  0.00  0.00    +0.000 NA
ATOM      6  C   UNL     1       5.800   5.791  17.372  0.00  0.00    +0.000 A 
ATOM      7  C   UNL     1       4.830   5.315  18.217  0.00  0.00    +0.000 A 
ATOM      8  C   UNL     1       4.014   4.327  17.710  0.00  0.00    +0.000 A 
ATOM      9  N   UNL     1       4.151   3.828  16.458  0.00  0.00    +0.000 NA
ATOM     10  H   UNL     1       4.579   3.151  14.174  0.00  0.00    +0.000 HD
ENDROOT
BRANCH   6  11
ATOM     11  C   UNL     1       6.766   6.826  17.745  0.00  0.00    +0.000 A 
ATOM     12  C   UNL     1       6.896   8.105  17.230  0.00  0.00    +0.000 A 
ATOM     13  C   UNL     1       7.979   8.826  17.811  0.00  0.00    +0.000 A 
ATOM     14  C   UNL     1       8.658   8.073  18.739  0.00  0.00    +0.000 A 
ATOM     15  S   UNL     1       7.983   6.515  18.918  0.00  0.00    +0.000 S 
ENDBRANCH   6  11
BRANCH   8  16
ATOM     16  C   UNL     1       2.953   3.715  18.523  0.00  0.00    +0.000 A 
ATOM     17  C   UNL     1       1.580   3.860  18.415  0.00  0.00    +0.000 A 
ATOM     18  C   UNL     1       0.863   3.066  19.359  0.00  0.00    +0.000 A 
ATOM     19  C   UNL     1       1.707   2.351  20.180  0.00  0.00    +0.000 A 
ATOM     20  S   UNL     1       3.346   2.645  19.816  0.00  0.00    +0.000 S 
ENDBRANCH   8  16
BRANCH   1  22
ATOM     21  C   UNL     1       4.757   3.328  11.837  0.00  0.00    +0.000 C 
ATOM     22  C   UNL     1       6.221   3.471  12.233  0.00  0.00    +0.000 C 
ENDBRANCH   1  22
TORSDOF 3
ENDMDL
MODEL 3
REMARK VINA RESULT:      -7.0      3.933      6.457
REMARK  Name = 
REMARK  4 active torsions:
REMARK  status: ('A' for Active; 'I' for Inactive)
REMARK    1  A    between atoms: C_1  and  C_2
REMARK    2  A    between atoms: C_2  and  C_3
REMARK    3  A    between atoms: C_8  and  C_9
REMARK    4  A    between atoms: C_15  and  C_16
REMARK                            x       y       z     vdW  Elec       q    Type
REMARK                         _______ _______ _______ _____ _____    ______ ____
ROOT
ATOM      1  C   UNL     1       5.177   5.041  16.062  0.00  0.00    +0.000 C 
ATOM      2  O   UNL     1       4.873   3.931  16.489  0.00  0.00    +0.000 OA
ATOM      3  N   UNL     1       4.685   6.247  16.511  0.00  0.00    +0.000 N 
ATOM      4  C   UNL     1       3.821   6.375  17.595  0.00  0.00    +0.000 A 
ATOM      5  N   UNL     1       3.611   5.336  18.400  0.00  0.00    +0.000 NA
ATOM      6  C   UNL     1       2.738   5.477  19.408  0.00  0.00    +0.000 A 
ATOM      7  C   UNL     1       2.105   6.668  19.661  0.00  0.00    +0.000 A 
ATOM      8  C   UNL     1       2.404   7.708  18.806  0.00  0.00    +0.000 A 
ATOM      9  N   UNL     1       3.258   7.582  17.762  0.00  0.00    +0.000 NA
ATOM     10  H   UNL     1       4.854   7.103  16.007  0.00  0.00    +0.000 HD
ENDROOT
BRANCH   6  11
ATOM     11  C   UNL     1       2.530   4.263  20.200  0.00  0.00    +0.000 A 
ATOM     12  C   UNL     1       1.481   3.963  21.053  0.00  0.00    +0.000 A 
ATOM     13  C   UNL     1       1.631   2.696  21.687  0.00  0.00    +0.000 A 
ATOM     14  C   UNL     1       2.799   2.072  21.317  0.00  0.00    +0.000 A 
ATOM     15  S   UNL     1       3.697   3.002  20.201  0.00  0.00    +0.000 S 
ENDBRANCH   6  11
BRANCH   8  16
ATOM     16  C   UNL     1       1.772   9.027  18.953  0.00  0.00    +0.000 A 
ATOM     17  C   UNL     1       1.824  10.117  18.100  0.00  0.00    +0.000 A 
ATOM     18  C   UNL     1       1.039  11.217  18.558  0.00  0.00    +0.000 A 
ATOM     19  C   UNL     1       0.427  10.948  19.763  0.00  0.00    +0.000 A 
ATOM     20  S   UNL     1       0.804   9.387  20.332  0.00  0.00    +0.000 S 
ENDBRANCH   8  16
BRANCH   1  22
ATOM     21  C   UNL     1       6.236   3.934  14.073  0.00  0.00    +0.000 C 
ATOM     22  C   UNL     1       6.179   5.191  14.931  0.00  0.00    +0.000 C 
ENDBRANCH   1  22
TORSDOF 3
ENDMDL
MODEL 4
REMARK VINA RESULT:      -6.9      3.925      5.582
REMARK  Name = 
REMARK  4 active torsions:
REMARK  status: ('A' for Active; 'I' for Inactive)
REMARK    1  A    between atoms: C_1  and  C_2
REMARK    2  A    between atoms: C_2  and  C_3
REMARK    3  A    between atoms: C_8  and  C_9
REMARK    4  A    between atoms: C_15  and  C_16
REMARK                            x       y       z     vdW  Elec       q    Type
REMARK                         _______ _______ _______ _____ _____    ______ ____
ROOT
ATOM      1  C   UNL     1       3.293   3.015  20.551  0.00  0.00    +0.000 C 
ATOM      2  O   UNL     1       4.302   2.663  19.947  0.00  0.00    +0.000 OA
ATOM      3  N   UNL     1       2.617   4.203  20.380  0.00  0.00    +0.000 N 
ATOM      4  C   UNL     1       2.947   5.150  19.414  0.00  0.00    +0.000 A 
ATOM      5  N   UNL     1       3.806   4.835  18.447  0.00  0.00    +0.000 NA
ATOM      6  C   UNL     1       4.138   5.783  17.558  0.00  0.00    +0.000 A 
ATOM      7  C   UNL     1       3.581   7.036  17.587  0.00  0.00    +0.000 A 
ATOM      8  C   UNL     1       2.671   7.272  18.597  0.00  0.00    +0.000 A 
ATOM      9  N   UNL     1       2.341   6.342  19.524  0.00  0.00    +0.000 NA
ATOM     10  H   UNL     1       1.896   4.493  21.021  0.00  0.00    +0.000 HD
ENDROOT
BRANCH   6  11
ATOM     11  C   UNL     1       5.134   5.360  16.570  0.00  0.00    +0.000 A 
ATOM     12  C   UNL     1       4.972   4.486  15.508  0.00  0.00    +0.000 A 
ATOM     13  C   UNL     1       6.176   4.280  14.776  0.00  0.00    +0.000 A 
ATOM     14  C   UNL     1       7.229   4.986  15.309  0.00  0.00    +0.000 A 
ATOM     15  S   UNL     1       6.761   5.901  16.672  0.00  0.00    +0.000 S 
ENDBRANCH   6  11
BRANCH   8  16
ATOM     16  C   UNL     1       2.023   8.582  18.754  0.00  0.00    +0.000 A 
ATOM     17  C   UNL     1       1.970   9.639  17.861  0.00  0.00    +0.000 A 
ATOM     18  C   UNL     1       1.203  10.739  18.349  0.00  0.00    +0.000 A 
ATOM     19  C   UNL     1       0.708  10.503  19.614  0.00  0.00    +0.000 A 
ATOM     20  S   UNL     1       1.175   8.973  20.202  0.00  0.00    +0.000 S 
ENDBRANCH   8  16
BRANCH   1  22
ATOM     21  C   UNL     1       1.243   2.561  21.927  0.00  0.00    +0.000 C 
ATOM     22  C   UNL     1       2.665   2.119  21.604  0.00  0.00    +0.000 C 
ENDBRANCH   1  22
TORSDOF 3
ENDMDL
MODEL 5
REMARK VINA RESULT:      -6.8      0.871      1.069
REMARK  Name = 
REMARK  4 active torsions:
REMARK  status: ('A' for Active; 'I' for Inactive)
REMARK    1  A    between atoms: C_1  and  C_2
REMARK    2  A    between atoms: C_2  and  C_3
REMARK    3  A    between atoms: C_8  and  C_9
REMARK    4  A    between atoms: C_15  and  C_16
REMARK                            x       y       z     vdW  Elec       q    Type
REMARK                         _______ _______ _______ _____ _____    ______ ____
ROOT
ATOM      1  C   UNL     1       7.783   7.430  17.780  0.00  0.00    +0.000 C 
ATOM      2  O   UNL     1       8.093   7.546  16.598  0.00  0.00    +0.000 OA
ATOM      3  N   UNL     1       6.829   6.577  18.290  0.00  0.00    +0.000 N 
ATOM      4  C   UNL     1       6.132   5.648  17.522  0.00  0.00    +0.000 A 
ATOM      5  N   UNL     1       6.531   5.384  16.280  0.00  0.00    +0.000 NA
ATOM      6  C   UNL     1       5.812   4.518  15.550  0.00  0.00    +0.000 A 
ATOM      7  C   UNL     1       4.720   3.865  16.064  0.00  0.00    +0.000 A 
ATOM      8  C   UNL     1       4.393   4.164  17.370  0.00  0.00    +0.000 A 
ATOM      9  N   UNL     1       5.084   5.056  18.117  0.00  0.00    +0.000 NA
ATOM     10  H   UNL     1       6.515   6.652  19.244  0.00  0.00    +0.000 HD
ENDROOT
BRANCH   6  11
ATOM     11  C   UNL     1       6.295   4.340  14.179  0.00  0.00    +0.000 A 
ATOM     12  C   UNL     1       7.389   4.931  13.570  0.00  0.00    +0.000 A 
ATOM     13  C   UNL     1       7.534   4.548  12.206  0.00  0.00    +0.000 A 
ATOM     14  C   UNL     1       6.537   3.691  11.804  0.00  0.00    +0.000 A 
ATOM     15  S   UNL     1       5.446   3.340  13.069  0.00  0.00    +0.000 S 
ENDBRANCH   6  11
BRANCH   8  16
ATOM     16  C   UNL     1       3.230   3.551  18.028  0.00  0.00    +0.000 A 
ATOM     17  C   UNL     1       1.975   4.090  18.256  0.00  0.00    +0.000 A 
ATOM     18  C   UNL     1       1.083   3.171  18.885  0.00  0.00    +0.000 A 
ATOM     19  C   UNL     1       1.687   1.959  19.144  0.00  0.00    +0.000 A 
ATOM     20  S   UNL     1       3.314   1.941  18.636  0.00  0.00    +0.000 S 
ENDBRANCH   8  16
BRANCH   1  22
ATOM     21  C   UNL     1       8.686   9.697  18.371  0.00  0.00    +0.000 C 
ATOM     22  C   UNL     1       8.463   8.267  18.849  0.00  0.00    +0.000 C 
ENDBRANCH   1  22
TORSDOF 3
ENDMDL
MODEL 6
REMARK VINA RESULT:      -6.8      3.406      6.554
REMARK  Name = 
REMARK  4 active torsions:
REMARK  status: ('A' for Active; 'I' for Inactive)
REMARK    1  A    between atoms: C_1  and  C_2
REMARK    2  A    between atoms: C_2  and  C_3
REMARK    3  A    between atoms: C_8  and  C_9
REMARK    4  A    between atoms: C_15  and  C_16
REMARK                            x       y       z     vdW  Elec       q    Type
REMARK                         _______ _______ _______ _____ _____    ______ ____
ROOT
ATOM      1  C   UNL     1       1.820   8.809  18.901  0.00  0.00    +0.000 C 
ATOM      2  O   UNL     1       1.535   8.267  19.965  0.00  0.00    +0.000 OA
ATOM      3  N   UNL     1       2.569   8.259  17.884  0.00  0.00    +0.000 N 
ATOM      4  C   UNL     1       3.042   6.949  17.891  0.00  0.00    +0.000 A 
ATOM      5  N   UNL     1       2.587   6.087  18.798  0.00  0.00    +0.000 NA
ATOM      6  C   UNL     1       3.095   4.846  18.808  0.00  0.00    +0.000 A 
ATOM      7  C   UNL     1       4.021   4.432  17.885  0.00  0.00    +0.000 A 
ATOM      8  C   UNL     1       4.414   5.372  16.955  0.00  0.00    +0.000 A 
ATOM      9  N   UNL     1       3.939   6.639  16.942  0.00  0.00    +0.000 NA
ATOM     10  H   UNL     1       2.898   8.819  17.113  0.00  0.00    +0.000 HD
ENDROOT
BRANCH   6  11
ATOM     11  C   UNL     1       2.577   3.992  19.878  0.00  0.00    +0.000 A 
ATOM     12  C   UNL     1       1.398   4.129  20.591  0.00  0.00    +0.000 A 
ATOM     13  C   UNL     1       1.237   3.125  21.589  0.00  0.00    +0.000 A 
ATOM     14  C   UNL     1       2.306   2.261  21.626  0.00  0.00    +0.000 A 
ATOM     15  S   UNL     1       3.484   2.650  20.452  0.00  0.00    +0.000 S 
ENDBRANCH   6  11
BRANCH   8  16
ATOM     16  C   UNL     1       5.420   5.061  15.929  0.00  0.00    +0.000 A 
ATOM     17  C   UNL     1       5.247   4.454  14.696  0.00  0.00    +0.000 A 
ATOM     18  C   UNL     1       6.458   4.364  13.948  0.00  0.00    +0.000 A 
ATOM     19  C   UNL     1       7.532   4.883  14.638  0.00  0.00    +0.000 A 
ATOM     20  S   UNL     1       7.077   5.465  16.174  0.00  0.00    +0.000 S 
ENDBRANCH   8  16
BRANCH   1  22
ATOM     21  C   UNL     1      -0.075  10.444  19.096  0.00  0.00    +0.000 C 
ATOM     22  C   UNL     1       1.346  10.219  18.595  0.00  0.00    +0.000 C 
ENDBRANCH   1  22
TORSDOF 3
ENDMDL
MODEL 7
REMARK VINA RESULT:      -6.5      3.903      7.079
REMARK  Name = 
REMARK  4 active torsions:
REMARK  status: ('A' for Active; 'I' for Inactive)
REMARK    1  A    between atoms: C_1  and  C_2
REMARK    2  A    between atoms: C_2  and  C_3
REMARK    3  A    between atoms: C_8  and  C_9
REMARK    4  A    between atoms: C_15  and  C_16
REMARK                            x       y       z     vdW  Elec       q    Type
REMARK                         _______ _______ _______ _____ _____    ______ ____
ROOT
ATOM      1  C   UNL     1       1.568   3.848  20.644  0.00  0.00    +0.000 C 
ATOM      2  O   UNL     1       0.764   4.770  20.739  0.00  0.00    +0.000 OA
ATOM      3  N   UNL     1       2.654   3.801  19.798  0.00  0.00    +0.000 N 
ATOM      4  C   UNL     1       3.043   4.857  18.978  0.00  0.00    +0.000 A 
ATOM      5  N   UNL     1       2.504   6.062  19.152  0.00  0.00    +0.000 NA
ATOM      6  C   UNL     1       2.866   7.047  18.317  0.00  0.00    +0.000 A 
ATOM      7  C   UNL     1       3.806   6.861  17.336  0.00  0.00    +0.000 A 
ATOM      8  C   UNL     1       4.346   5.596  17.245  0.00  0.00    +0.000 A 
ATOM      9  N   UNL     1       3.976   4.576  18.055  0.00  0.00    +0.000 NA
ATOM     10  H   UNL     1       3.173   2.949  19.658  0.00  0.00    +0.000 HD
ENDROOT
BRANCH   6  11
ATOM     11  C   UNL     1       2.175   8.317  18.549  0.00  0.00    +0.000 A 
ATOM     12  C   UNL     1       2.078   9.410  17.704  0.00  0.00    +0.000 A 
ATOM     13  C   UNL     1       1.354  10.492  18.282  0.00  0.00    +0.000 A 
ATOM     14  C   UNL     1       0.934  10.205  19.559  0.00  0.00    +0.000 A 
ATOM     15  S   UNL     1       1.397   8.635  20.048  0.00  0.00    +0.000 S 
ENDBRANCH   6  11
BRANCH   8  16
ATOM     16  C   UNL     1       5.344   5.260  16.219  0.00  0.00    +0.000 A 
ATOM     17  C   UNL     1       5.156   4.659  14.985  0.00  0.00    +0.000 A 
ATOM     18  C   UNL     1       6.366   4.538  14.238  0.00  0.00    +0.000 A 
ATOM     19  C   UNL     1       7.452   5.029  14.930  0.00  0.00    +0.000 A 
ATOM     20  S   UNL     1       7.011   5.620  16.466  0.00  0.00    +0.000 S 
ENDBRANCH   8  16
BRANCH   1  22
ATOM     21  C   UNL     1       2.777   1.930  21.723  0.00  0.00    +0.000 C 
ATOM     22  C   UNL     1       1.427   2.601  21.501  0.00  0.00    +0.000 C 
ENDBRANCH   1  22
TORSDOF 3
ENDMDL
MODEL 8
REMARK VINA RESULT:      -6.5      1.903      4.870
REMARK  Name = 
REMARK  4 active torsions:
REMARK  status: ('A' for Active; 'I' for Inactive)
REMARK    1  A    between atoms: C_1  and  C_2
REMARK    2  A    between atoms: C_2  and  C_3
REMARK    3  A    between atoms: C_8  and  C_9
REMARK    4  A    between atoms: C_15  and  C_16
REMARK                            x       y       z     vdW  Elec       q    Type
REMARK                         _______ _______ _______ _____ _____    ______ ____
ROOT
ATOM      1  C   UNL     1       7.015   4.710  13.509  0.00  0.00    +0.000 C 
ATOM      2  O   UNL     1       7.928   5.461  13.841  0.00  0.00    +0.000 OA
ATOM      3  N   UNL     1       5.982   4.282  14.315  0.00  0.00    +0.000 N 
ATOM      4  C   UNL     1       5.784   4.724  15.620  0.00  0.00    +0.000 A 
ATOM      5  N   UNL     1       6.467   5.773  16.074  0.00  0.00    +0.000 NA
ATOM      6  C   UNL     1       6.287   6.146  17.349  0.00  0.00    +0.000 A 
ATOM      7  C   UNL     1       5.388   5.517  18.171  0.00  0.00    +0.000 A 
ATOM      8  C   UNL     1       4.691   4.464  17.617  0.00  0.00    +0.000 A 
ATOM      9  N   UNL     1       4.876   4.048  16.341  0.00  0.00    +0.000 NA
ATOM     10  H   UNL     1       5.364   3.541  14.025  0.00  0.00    +0.000 HD
ENDROOT
BRANCH   6  11
ATOM     11  C   UNL     1       7.126   7.270  17.771  0.00  0.00    +0.000 A 
ATOM     12  C   UNL     1       7.153   8.559  17.267  0.00  0.00    +0.000 A 
ATOM     13  C   UNL     1       8.129   9.380  17.902  0.00  0.00    +0.000 A 
ATOM     14  C   UNL     1       8.834   8.691  18.860  0.00  0.00    +0.000 A 
ATOM     15  S   UNL     1       8.309   7.072  19.001  0.00  0.00    +0.000 S 
ENDBRANCH   6  11
BRANCH   8  16
ATOM     16  C   UNL     1       3.717   3.690  18.401  0.00  0.00    +0.000 A 
ATOM     17  C   UNL     1       3.793   3.280  19.721  0.00  0.00    +0.000 A 
ATOM     18  C   UNL     1       2.625   2.584  20.153  0.00  0.00    +0.000 A 
ATOM     19  C   UNL     1       1.695   2.459  19.143  0.00  0.00    +0.000 A 
ATOM     20  S   UNL     1       2.236   3.170  17.692  0.00  0.00    +0.000 S 
ENDBRANCH   8  16
BRANCH   1  22
ATOM     21  C   UNL     1       5.819   3.128  11.970  0.00  0.00    +0.000 C 
ATOM     22  C   UNL     1       6.940   4.151  12.099  0.00  0.00    +0.000 C 
ENDBRANCH   1  22
TORSDOF 3
ENDMDL
MODEL 9
REMARK VINA RESULT:      -6.4      3.491      6.652
REMARK  Name = 
REMARK  4 active torsions:
REMARK  status: ('A' for Active; 'I' for Inactive)
REMARK    1  A    between atoms: C_1  and  C_2
REMARK    2  A    between atoms: C_2  and  C_3
REMARK    3  A    between atoms: C_8  and  C_9
REMARK    4  A    between atoms: C_15  and  C_16
REMARK                            x       y       z     vdW  Elec       q    Type
REMARK                         _______ _______ _______ _____ _____    ______ ____
ROOT
ATOM      1  C   UNL     1       1.787   8.825  18.949  0.00  0.00    +0.000 C 
ATOM      2  O   UNL     1       1.508   8.270  20.008  0.00  0.00    +0.000 OA
ATOM      3  N   UNL     1       2.574   8.308  17.943  0.00  0.00    +0.000 N 
ATOM      4  C   UNL     1       3.099   7.018  17.957  0.00  0.00    +0.000 A 
ATOM      5  N   UNL     1       2.665   6.137  18.855  0.00  0.00    +0.000 NA
ATOM      6  C   UNL     1       3.223   4.917  18.872  0.00  0.00    +0.000 A 
ATOM      7  C   UNL     1       4.179   4.543  17.963  0.00  0.00    +0.000 A 
ATOM      8  C   UNL     1       4.549   5.499  17.041  0.00  0.00    +0.000 A 
ATOM      9  N   UNL     1       4.023   6.747  17.022  0.00  0.00    +0.000 NA
ATOM     10  H   UNL     1       2.892   8.882  17.179  0.00  0.00    +0.000 HD
ENDROOT
BRANCH   6  11
ATOM     11  C   UNL     1       2.722   4.041  19.932  0.00  0.00    +0.000 A 
ATOM     12  C   UNL     1       3.398   3.042  20.613  0.00  0.00    +0.000 A 
ATOM     13  C   UNL     1       2.577   2.366  21.559  0.00  0.00    +0.000 A 
ATOM     14  C   UNL     1       1.290   2.851  21.563  0.00  0.00    +0.000 A 
ATOM     15  S   UNL     1       1.084   4.124  20.444  0.00  0.00    +0.000 S 
ENDBRANCH   6  11
BRANCH   8  16
ATOM     16  C   UNL     1       5.583   5.231  16.031  0.00  0.00    +0.000 A 
ATOM     17  C   UNL     1       6.929   5.552  16.057  0.00  0.00    +0.000 A 
ATOM     18  C   UNL     1       7.633   5.083  14.908  0.00  0.00    +0.000 A 
ATOM     19  C   UNL     1       6.801   4.436  14.021  0.00  0.00    +0.000 A 
ATOM     20  S   UNL     1       5.189   4.404  14.571  0.00  0.00    +0.000 S 
ENDBRANCH   8  16
BRANCH   1  22
ATOM     21  C   UNL     1      -0.185  10.372  19.088  0.00  0.00    +0.000 C 
ATOM     22  C   UNL     1       1.261  10.215  18.637  0.00  0.00    +0.000 C 
ENDBRANCH   1  22
TORSDOF 3
ENDMDL
