MODEL 1
REMARK VINA RESULT:      -7.7      0.000      0.000
REMARK  Name = 
REMARK  10 active torsions:
REMARK  status: ('A' for Active; 'I' for Inactive)
REMARK    1  A    between atoms: C_1  and  O_2
REMARK    2  A    between atoms: O_2  and  C_3
REMARK    3  A    between atoms: C_7  and  N_8
REMARK    4  A    between atoms: C_10  and  C_11
REMARK    5  A    between atoms: N_16  and  CA_17
REMARK    6  A    between atoms: CA_17  and  C_18
REMARK    7  A    between atoms: CA_17  and  CB_20
REMARK    8  A    between atoms: C_18  and  O_19
REMARK    9  A    between atoms: CB_20  and  CG1_21
REMARK   10  A    between atoms: CB_20  and  CG2_22
REMARK                            x       y       z     vdW  Elec       q    Type
REMARK                         _______ _______ _______ _____ _____    ______ ____
ROOT
ATOM      1  C   UNK A   0       2.893   5.865  19.495  0.00  0.00    +0.000 A 
ATOM      2  C   UNK A   0       2.174   4.745  19.833  0.00  0.00    +0.000 A 
ATOM      3  C   UNK A   0       2.884   3.574  19.825  0.00  0.00    +0.000 A 
ATOM      4  N   UNK A   0       4.185   3.489  19.486  0.00  0.00    +0.000 NA
ATOM      5  C   UNK A   0       4.805   4.626  19.159  0.00  0.00    +0.000 A 
ATOM      6  N   VAL A   1       6.141   4.515  18.856  0.00  0.00    +0.000 N 
ATOM      7  N   UNK A   0       4.210   5.826  19.171  0.00  0.00    +0.000 NA
ATOM      8  H   VAL A   1       6.461   3.589  19.117  0.00  0.00    +0.000 HD
ENDROOT
BRANCH   1  11
ATOM      9  N   UNK A   0       1.174   8.943  20.329  0.00  0.00    +0.000 N 
ATOM     10  C   UNK A   0       1.778   7.755  20.689  0.00  0.00    +0.000 A 
ATOM     11  C   UNK A   0       2.288   7.187  19.540  0.00  0.00    +0.000 A 
ATOM     12  C   UNK A   0       2.030   8.150  18.554  0.00  0.00    +0.000 A 
ATOM     13  N   UNK A   0       1.382   9.220  19.019  0.00  0.00    +0.000 NA
BRANCH   9  18
ATOM     14  C   UNK A   0      -0.556  11.971  21.650  0.00  0.00    +0.000 A 
ATOM     15  C   UNK A   0      -1.071  11.470  22.844  0.00  0.00    +0.000 A 
ATOM     16  C   UNK A   0      -0.880  10.131  23.194  0.00  0.00    +0.000 A 
ATOM     17  C   UNK A   0      -0.158   9.283  22.352  0.00  0.00    +0.000 A 
ATOM     18  C   UNK A   0       0.378   9.783  21.158  0.00  0.00    +0.000 A 
ATOM     19  C   UNK A   0       0.165  11.127  20.806  0.00  0.00    +0.000 A 
BRANCH  14  21
ATOM     20  C   UNK A   0       0.323  14.175  21.483  0.00  0.00    +0.000 C 
ATOM     21  O   UNK A   0      -0.800  13.299  21.411  0.00  0.00    +0.000 OA
ENDBRANCH  14  21
ENDBRANCH   9  18
ENDBRANCH   1  11
BRANCH   6  22
ATOM     22  CA  VAL A   1       7.086   5.630  18.992  0.00  0.00    +0.000 C 
BRANCH  22  23
ATOM     23  CB  VAL A   1       7.442   6.129  17.552  0.00  0.00    +0.000 C 
ATOM     24  CG1 VAL A   1       7.003   5.131  16.471  0.00  0.00    +0.000 C 
ATOM     25  CG2 VAL A   1       6.835   7.499  17.216  0.00  0.00    +0.000 C 
ENDBRANCH  22  23
BRANCH  22  26
ATOM     26  C   VAL A   1       8.377   5.204  19.750  0.00  0.00    +0.000 C 
BRANCH  26  27
ATOM     27  O   VAL A   1       8.284   5.248  21.172  0.00  0.00    +0.000 OA
ATOM     28  H   VAL A   1       9.186   5.361  21.530  0.00  0.00    +0.000 HD
ENDBRANCH  26  27
ENDBRANCH  22  26
ENDBRANCH   6  22
TORSDOF 7
ENDMDL
MODEL 2
REMARK VINA RESULT:      -7.7      1.350      1.660
REMARK  Name = 
REMARK  10 active torsions:
REMARK  status: ('A' for Active; 'I' for Inactive)
REMARK    1  A    between atoms: C_1  and  O_2
REMARK    2  A    between atoms: O_2  and  C_3
REMARK    3  A    between atoms: C_7  and  N_8
REMARK    4  A    between atoms: C_10  and  C_11
REMARK    5  A    between atoms: N_16  and  CA_17
REMARK    6  A    between atoms: CA_17  and  C_18
REMARK    7  A    between atoms: CA_17  and  CB_20
REMARK    8  A    between atoms: C_18  and  O_19
REMARK    9  A    between atoms: CB_20  and  CG1_21
REMARK   10  A    between atoms: CB_20  and  CG2_22
REMARK                            x       y       z     vdW  Elec       q    Type
REMARK                         _______ _______ _______ _____ _____    ______ ____
ROOT
ATOM      1  C   UNK A   0       2.846   5.521  19.545  0.00  0.00    +0.000 A 
ATOM      2  C   UNK A   0       2.441   4.578  20.458  0.00  0.00    +0.000 A 
ATOM      3  C   UNK A   0       3.068   3.364  20.356  0.00  0.00    +0.000 A 
ATOM      4  N   UNK A   0       3.995   3.075  19.423  0.00  0.00    +0.000 NA
ATOM      5  C   UNK A   0       4.320   4.047  18.565  0.00  0.00    +0.000 A 
ATOM      6  N   VAL A   1       5.296   3.736  17.650  0.00  0.00    +0.000 N 
ATOM      7  N   UNK A   0       3.793   5.278  18.604  0.00  0.00    +0.000 NA
ATOM      8  H   VAL A   1       5.728   2.858  17.915  0.00  0.00    +0.000 HD
ENDROOT
BRANCH   1  11
ATOM      9  N   UNK A   0       1.219   8.664  20.318  0.00  0.00    +0.000 N 
ATOM     10  C   UNK A   0       1.687   7.418  20.684  0.00  0.00    +0.000 A 
ATOM     11  C   UNK A   0       2.325   6.878  19.587  0.00  0.00    +0.000 A 
ATOM     12  C   UNK A   0       2.277   7.909  18.637  0.00  0.00    +0.000 A 
ATOM     13  N   UNK A   0       1.636   8.996  19.072  0.00  0.00    +0.000 NA
BRANCH   9  18
ATOM     14  C   UNK A   0      -0.996  11.520  21.237  0.00  0.00    +0.000 A 
ATOM     15  C   UNK A   0      -1.209  11.253  22.588  0.00  0.00    +0.000 A 
ATOM     16  C   UNK A   0      -0.654  10.118  23.184  0.00  0.00    +0.000 A 
ATOM     17  C   UNK A   0       0.131   9.243  22.430  0.00  0.00    +0.000 A 
ATOM     18  C   UNK A   0       0.363   9.513  21.075  0.00  0.00    +0.000 A 
ATOM     19  C   UNK A   0      -0.213  10.648  20.481  0.00  0.00    +0.000 A 
BRANCH  14  21
ATOM     20  C   UNK A   0      -2.865  12.989  21.289  0.00  0.00    +0.000 C 
ATOM     21  O   UNK A   0      -1.583  12.662  20.759  0.00  0.00    +0.000 OA
ENDBRANCH  14  21
ENDBRANCH   9  18
ENDBRANCH   1  11
BRANCH   6  22
ATOM     22  CA  VAL A   1       6.144   4.750  17.010  0.00  0.00    +0.000 C 
BRANCH  22  23
ATOM     23  CB  VAL A   1       6.482   4.245  15.567  0.00  0.00    +0.000 C 
ATOM     24  CG1 VAL A   1       5.219   3.913  14.762  0.00  0.00    +0.000 C 
ATOM     25  CG2 VAL A   1       7.322   5.241  14.756  0.00  0.00    +0.000 C 
ENDBRANCH  22  23
BRANCH  22  26
ATOM     26  C   VAL A   1       7.452   5.002  17.815  0.00  0.00    +0.000 C 
BRANCH  26  27
ATOM     27  O   VAL A   1       8.411   3.948  17.753  0.00  0.00    +0.000 OA
ATOM     28  H   VAL A   1       8.003   3.197  17.279  0.00  0.00    +0.000 HD
ENDBRANCH  26  27
ENDBRANCH  22  26
ENDBRANCH   6  22
TORSDOF 7
ENDMDL
MODEL 3
REMARK VINA RESULT:      -7.6      1.312      1.385
REMARK  Name = 
REMARK  10 active torsions:
REMARK  status: ('A' for Active; 'I' for Inactive)
REMARK    1  A    between atoms: C_1  and  O_2
REMARK    2  A    between atoms: O_2  and  C_3
REMARK    3  A    between atoms: C_7  and  N_8
REMARK    4  A    between atoms: C_10  and  C_11
REMARK    5  A    between atoms: N_16  and  CA_17
REMARK    6  A    between atoms: CA_17  and  C_18
REMARK    7  A    between atoms: CA_17  and  CB_20
REMARK    8  A    between atoms: C_18  and  O_19
REMARK    9  A    between atoms: CB_20  and  CG1_21
REMARK   10  A    between atoms: CB_20  and  CG2_22
REMARK                            x       y       z     vdW  Elec       q    Type
REMARK                         _______ _______ _______ _____ _____    ______ ____
ROOT
ATOM      1  C   UNK A   0       2.475   6.124  19.821  0.00  0.00    +0.000 A 
ATOM      2  C   UNK A   0       1.917   5.176  20.644  0.00  0.00    +0.000 A 
ATOM      3  C   UNK A   0       2.524   3.948  20.612  0.00  0.00    +0.000 A 
ATOM      4  N   UNK A   0       3.573   3.652  19.822  0.00  0.00    +0.000 NA
ATOM      5  C   UNK A   0       4.046   4.630  19.044  0.00  0.00    +0.000 A 
ATOM      6  N   VAL A   1       5.141   4.310  18.278  0.00  0.00    +0.000 N 
ATOM      7  N   UNK A   0       3.547   5.873  19.029  0.00  0.00    +0.000 NA
ATOM      8  H   VAL A   1       5.509   3.418  18.586  0.00  0.00    +0.000 HD
ENDROOT
BRANCH   1  11
ATOM      9  N   UNK A   0       0.972   9.348  20.507  0.00  0.00    +0.000 N 
ATOM     10  C   UNK A   0       1.443   8.118  20.918  0.00  0.00    +0.000 A 
ATOM     11  C   UNK A   0       1.984   7.493  19.814  0.00  0.00    +0.000 A 
ATOM     12  C   UNK A   0       1.882   8.461  18.804  0.00  0.00    +0.000 A 
ATOM     13  N   UNK A   0       1.297   9.589  19.214  0.00  0.00    +0.000 NA
BRANCH   9  18
ATOM     14  C   UNK A   0      -0.590  12.528  21.672  0.00  0.00    +0.000 A 
ATOM     15  C   UNK A   0      -1.224  12.091  22.833  0.00  0.00    +0.000 A 
ATOM     16  C   UNK A   0      -1.166  10.747  23.210  0.00  0.00    +0.000 A 
ATOM     17  C   UNK A   0      -0.462   9.829  22.430  0.00  0.00    +0.000 A 
ATOM     18  C   UNK A   0       0.193  10.264  21.270  0.00  0.00    +0.000 A 
ATOM     19  C   UNK A   0       0.115  11.614  20.889  0.00  0.00    +0.000 A 
BRANCH  14  21
ATOM     20  C   UNK A   0      -1.063  14.217  20.066  0.00  0.00    +0.000 C 
ATOM     21  O   UNK A   0      -0.707  13.867  21.401  0.00  0.00    +0.000 OA
ENDBRANCH  14  21
ENDBRANCH   9  18
ENDBRANCH   1  11
BRANCH   6  22
ATOM     22  CA  VAL A   1       6.098   5.314  17.794  0.00  0.00    +0.000 C 
BRANCH  22  23
ATOM     23  CB  VAL A   1       5.944   5.405  16.239  0.00  0.00    +0.000 C 
ATOM     24  CG1 VAL A   1       5.306   4.141  15.648  0.00  0.00    +0.000 C 
ATOM     25  CG2 VAL A   1       5.123   6.618  15.779  0.00  0.00    +0.000 C 
ENDBRANCH  22  23
BRANCH  22  26
ATOM     26  C   VAL A   1       7.562   4.946  18.172  0.00  0.00    +0.000 C 
BRANCH  26  27
ATOM     27  O   VAL A   1       8.216   4.063  17.262  0.00  0.00    +0.000 OA
ATOM     28  H   VAL A   1       8.898   3.570  17.757  0.00  0.00    +0.000 HD
ENDBRANCH  26  27
ENDBRANCH  22  26
ENDBRANCH   6  22
TORSDOF 7
ENDMDL
MODEL 4
REMARK VINA RESULT:      -7.6      1.727      2.300
REMARK  Name = 
REMARK  10 active torsions:
REMARK  status: ('A' for Active; 'I' for Inactive)
REMARK    1  A    between atoms: C_1  and  O_2
REMARK    2  A    between atoms: O_2  and  C_3
REMARK    3  A    between atoms: C_7  and  N_8
REMARK    4  A    between atoms: C_10  and  C_11
REMARK    5  A    between atoms: N_16  and  CA_17
REMARK    6  A    between atoms: CA_17  and  C_18
REMARK    7  A    between atoms: CA_17  and  CB_20
REMARK    8  A    between atoms: C_18  and  O_19
REMARK    9  A    between atoms: CB_20  and  CG1_21
REMARK   10  A    between atoms: CB_20  and  CG2_22
REMARK                            x       y       z     vdW  Elec       q    Type
REMARK                         _______ _______ _______ _____ _____    ______ ____
ROOT
ATOM      1  C   UNK A   0       3.263   5.835  18.867  0.00  0.00    +0.000 A 
ATOM      2  C   UNK A   0       2.661   5.002  19.777  0.00  0.00    +0.000 A 
ATOM      3  C   UNK A   0       3.302   3.808  19.985  0.00  0.00    +0.000 A 
ATOM      4  N   UNK A   0       4.424   3.438  19.339  0.00  0.00    +0.000 NA
ATOM      5  C   UNK A   0       4.937   4.305  18.461  0.00  0.00    +0.000 A 
ATOM      6  N   VAL A   1       6.103   3.917  17.847  0.00  0.00    +0.000 N 
ATOM      7  N   UNK A   0       4.408   5.510  18.213  0.00  0.00    +0.000 NA
ATOM      8  H   VAL A   1       6.466   3.097  18.318  0.00  0.00    +0.000 HD
ENDROOT
BRANCH   1  11
ATOM      9  N   UNK A   0       1.538   9.021  18.867  0.00  0.00    +0.000 N 
ATOM     10  C   UNK A   0       1.953   7.866  19.499  0.00  0.00    +0.000 A 
ATOM     11  C   UNK A   0       2.739   7.167  18.607  0.00  0.00    +0.000 A 
ATOM     12  C   UNK A   0       2.821   8.022  17.499  0.00  0.00    +0.000 A 
ATOM     13  N   UNK A   0       2.123   9.150  17.652  0.00  0.00    +0.000 NA
BRANCH   9  18
ATOM     14  C   UNK A   0      -0.244  11.394  21.126  0.00  0.00    +0.000 A 
ATOM     15  C   UNK A   0      -1.353  11.707  20.343  0.00  0.00    +0.000 A 
ATOM     16  C   UNK A   0      -1.494  11.166  19.062  0.00  0.00    +0.000 A 
ATOM     17  C   UNK A   0      -0.526  10.296  18.558  0.00  0.00    +0.000 A 
ATOM     18  C   UNK A   0       0.583   9.962  19.346  0.00  0.00    +0.000 A 
ATOM     19  C   UNK A   0       0.725  10.525  20.625  0.00  0.00    +0.000 A 
BRANCH  14  21
ATOM     20  C   UNK A   0      -0.697  13.313  22.455  0.00  0.00    +0.000 C 
ATOM     21  O   UNK A   0      -0.211  11.976  22.366  0.00  0.00    +0.000 OA
ENDBRANCH  14  21
ENDBRANCH   9  18
ENDBRANCH   1  11
BRANCH   6  22
ATOM     22  CA  VAL A   1       7.071   4.873  17.294  0.00  0.00    +0.000 C 
BRANCH  22  23
ATOM     23  CB  VAL A   1       7.159   6.084  18.282  0.00  0.00    +0.000 C 
ATOM     24  CG1 VAL A   1       8.088   5.794  19.469  0.00  0.00    +0.000 C 
ATOM     25  CG2 VAL A   1       7.627   7.383  17.612  0.00  0.00    +0.000 C 
ENDBRANCH  22  23
BRANCH  22  26
ATOM     26  C   VAL A   1       6.655   5.362  15.876  0.00  0.00    +0.000 C 
BRANCH  26  27
ATOM     27  O   VAL A   1       7.675   5.272  14.884  0.00  0.00    +0.000 OA
ATOM     28  H   VAL A   1       8.537   5.227  15.341  0.00  0.00    +0.000 HD
ENDBRANCH  26  27
ENDBRANCH  22  26
ENDBRANCH   6  22
TORSDOF 7
ENDMDL
MODEL 5
REMARK VINA RESULT:      -7.6      2.111      2.670
REMARK  Name = 
REMARK  10 active torsions:
REMARK  status: ('A' for Active; 'I' for Inactive)
REMARK    1  A    between atoms: C_1  and  O_2
REMARK    2  A    between atoms: O_2  and  C_3
REMARK    3  A    between atoms: C_7  and  N_8
REMARK    4  A    between atoms: C_10  and  C_11
REMARK    5  A    between atoms: N_16  and  CA_17
REMARK    6  A    between atoms: CA_17  and  C_18
REMARK    7  A    between atoms: CA_17  and  CB_20
REMARK    8  A    between atoms: C_18  and  O_19
REMARK    9  A    between atoms: CB_20  and  CG1_21
REMARK   10  A    between atoms: CB_20  and  CG2_22
REMARK                            x       y       z     vdW  Elec       q    Type
REMARK                         _______ _______ _______ _____ _____    ______ ____
ROOT
ATOM      1  C   UNK A   0       3.231   5.878  18.872  0.00  0.00    +0.000 A 
ATOM      2  C   UNK A   0       2.632   5.056  19.794  0.00  0.00    +0.000 A 
ATOM      3  C   UNK A   0       3.263   3.857  20.002  0.00  0.00    +0.000 A 
ATOM      4  N   UNK A   0       4.375   3.473  19.346  0.00  0.00    +0.000 NA
ATOM      5  C   UNK A   0       4.885   4.331  18.456  0.00  0.00    +0.000 A 
ATOM      6  N   VAL A   1       6.041   3.928  17.831  0.00  0.00    +0.000 N 
ATOM      7  N   UNK A   0       4.365   5.539  18.208  0.00  0.00    +0.000 NA
ATOM      8  H   VAL A   1       6.401   3.107  18.303  0.00  0.00    +0.000 HD
ENDROOT
BRANCH   1  11
ATOM      9  N   UNK A   0       1.492   9.057  18.840  0.00  0.00    +0.000 N 
ATOM     10  C   UNK A   0       1.875   7.890  19.470  0.00  0.00    +0.000 A 
ATOM     11  C   UNK A   0       2.716   7.213  18.611  0.00  0.00    +0.000 A 
ATOM     12  C   UNK A   0       2.859   8.093  17.529  0.00  0.00    +0.000 A 
ATOM     13  N   UNK A   0       2.148   9.215  17.664  0.00  0.00    +0.000 NA
BRANCH   9  18
ATOM     14  C   UNK A   0      -1.519  11.256  18.857  0.00  0.00    +0.000 A 
ATOM     15  C   UNK A   0      -1.360  11.896  20.085  0.00  0.00    +0.000 A 
ATOM     16  C   UNK A   0      -0.284  11.579  20.918  0.00  0.00    +0.000 A 
ATOM     17  C   UNK A   0       0.650  10.620  20.522  0.00  0.00    +0.000 A 
ATOM     18  C   UNK A   0       0.506   9.984  19.281  0.00  0.00    +0.000 A 
ATOM     19  C   UNK A   0      -0.588  10.297  18.459  0.00  0.00    +0.000 A 
BRANCH  14  21
ATOM     20  C   UNK A   0      -2.694  11.136  16.793  0.00  0.00    +0.000 C 
ATOM     21  O   UNK A   0      -2.605  11.649  18.120  0.00  0.00    +0.000 OA
ENDBRANCH  14  21
ENDBRANCH   9  18
ENDBRANCH   1  11
BRANCH   6  22
ATOM     22  CA  VAL A   1       7.011   4.872  17.262  0.00  0.00    +0.000 C 
BRANCH  22  23
ATOM     23  CB  VAL A   1       7.120   6.088  18.241  0.00  0.00    +0.000 C 
ATOM     24  CG1 VAL A   1       8.061   5.798  19.418  0.00  0.00    +0.000 C 
ATOM     25  CG2 VAL A   1       7.590   7.379  17.557  0.00  0.00    +0.000 C 
ENDBRANCH  22  23
BRANCH  22  26
ATOM     26  C   VAL A   1       6.584   5.355  15.845  0.00  0.00    +0.000 C 
BRANCH  26  27
ATOM     27  O   VAL A   1       7.600   5.271  14.848  0.00  0.00    +0.000 OA
ATOM     28  H   VAL A   1       7.798   4.326  14.699  0.00  0.00    +0.000 HD
ENDBRANCH  26  27
ENDBRANCH  22  26
ENDBRANCH   6  22
TORSDOF 7
ENDMDL
MODEL 6
REMARK VINA RESULT:      -7.5      1.687      2.114
REMARK  Name = 
REMARK  10 active torsions:
REMARK  status: ('A' for Active; 'I' for Inactive)
REMARK    1  A    between atoms: C_1  and  O_2
REMARK    2  A    between atoms: O_2  and  C_3
REMARK    3  A    between atoms: C_7  and  N_8
REMARK    4  A    between atoms: C_10  and  C_11
REMARK    5  A    between atoms: N_16  and  CA_17
REMARK    6  A    between atoms: CA_17  and  C_18
REMARK    7  A    between atoms: CA_17  and  CB_20
REMARK    8  A    between atoms: C_18  and  O_19
REMARK    9  A    between atoms: CB_20  and  CG1_21
REMARK   10  A    between atoms: CB_20  and  CG2_22
REMARK                            x       y       z     vdW  Elec       q    Type
REMARK                         _______ _______ _______ _____ _____    ______ ____
ROOT
ATOM      1  C   UNK A   0       3.070   5.473  18.890  0.00  0.00    +0.000 A 
ATOM      2  C   UNK A   0       2.872   4.510  19.849  0.00  0.00    +0.000 A 
ATOM      3  C   UNK A   0       3.507   3.318  19.617  0.00  0.00    +0.000 A 
ATOM      4  N   UNK A   0       4.254   3.068  18.524  0.00  0.00    +0.000 NA
ATOM      5  C   UNK A   0       4.384   4.057  17.635  0.00  0.00    +0.000 A 
ATOM      6  N   VAL A   1       5.184   3.786  16.551  0.00  0.00    +0.000 N 
ATOM      7  N   UNK A   0       3.835   5.269  17.787  0.00  0.00    +0.000 NA
ATOM      8  H   VAL A   1       5.685   2.922  16.719  0.00  0.00    +0.000 HD
ENDROOT
BRANCH   1  11
ATOM      9  N   UNK A   0       1.474   8.539  19.975  0.00  0.00    +0.000 N 
ATOM     10  C   UNK A   0       2.019   7.297  20.234  0.00  0.00    +0.000 A 
ATOM     11  C   UNK A   0       2.523   6.811  19.046  0.00  0.00    +0.000 A 
ATOM     12  C   UNK A   0       2.324   7.868  18.146  0.00  0.00    +0.000 A 
ATOM     13  N   UNK A   0       1.716   8.921  18.698  0.00  0.00    +0.000 NA
BRANCH   9  18
ATOM     14  C   UNK A   0      -0.325  11.467  21.423  0.00  0.00    +0.000 A 
ATOM     15  C   UNK A   0      -0.698  10.949  22.662  0.00  0.00    +0.000 A 
ATOM     16  C   UNK A   0      -0.389   9.630  23.003  0.00  0.00    +0.000 A 
ATOM     17  C   UNK A   0       0.308   8.819  22.107  0.00  0.00    +0.000 A 
ATOM     18  C   UNK A   0       0.702   9.337  20.866  0.00  0.00    +0.000 A 
ATOM     19  C   UNK A   0       0.371  10.659  20.524  0.00  0.00    +0.000 A 
BRANCH  14  21
ATOM     20  C   UNK A   0      -0.608  13.652  22.316  0.00  0.00    +0.000 C 
ATOM     21  O   UNK A   0      -0.675  12.772  21.197  0.00  0.00    +0.000 OA
ENDBRANCH  14  21
ENDBRANCH   9  18
ENDBRANCH   1  11
BRANCH   6  22
ATOM     22  CA  VAL A   1       5.866   4.834  15.780  0.00  0.00    +0.000 C 
BRANCH  22  23
ATOM     23  CB  VAL A   1       6.436   4.172  14.481  0.00  0.00    +0.000 C 
ATOM     24  CG1 VAL A   1       5.326   3.788  13.494  0.00  0.00    +0.000 C 
ATOM     25  CG2 VAL A   1       7.451   5.056  13.744  0.00  0.00    +0.000 C 
ENDBRANCH  22  23
BRANCH  22  26
ATOM     26  C   VAL A   1       7.012   5.499  16.596  0.00  0.00    +0.000 C 
BRANCH  26  27
ATOM     27  O   VAL A   1       6.912   6.914  16.735  0.00  0.00    +0.000 OA
ATOM     28  H   VAL A   1       7.300   7.161  17.596  0.00  0.00    +0.000 HD
ENDBRANCH  26  27
ENDBRANCH  22  26
ENDBRANCH   6  22
TORSDOF 7
ENDMDL
MODEL 7
REMARK VINA RESULT:      -7.4      3.490      9.014
REMARK  Name = 
REMARK  10 active torsions:
REMARK  status: ('A' for Active; 'I' for Inactive)
REMARK    1  A    between atoms: C_1  and  O_2
REMARK    2  A    between atoms: O_2  and  C_3
REMARK    3  A    between atoms: C_7  and  N_8
REMARK    4  A    between atoms: C_10  and  C_11
REMARK    5  A    between atoms: N_16  and  CA_17
REMARK    6  A    between atoms: CA_17  and  C_18
REMARK    7  A    between atoms: CA_17  and  CB_20
REMARK    8  A    between atoms: C_18  and  O_19
REMARK    9  A    between atoms: CB_20  and  CG1_21
REMARK   10  A    between atoms: CB_20  and  CG2_22
REMARK                            x       y       z     vdW  Elec       q    Type
REMARK                         _______ _______ _______ _____ _____    ______ ____
ROOT
ATOM      1  C   UNK A   0       3.958   4.406  18.912  0.00  0.00    +0.000 A 
ATOM      2  C   UNK A   0       3.441   3.171  19.214  0.00  0.00    +0.000 A 
ATOM      3  C   UNK A   0       2.368   3.181  20.066  0.00  0.00    +0.000 A 
ATOM      4  N   UNK A   0       1.853   4.302  20.608  0.00  0.00    +0.000 NA
ATOM      5  C   UNK A   0       2.425   5.461  20.269  0.00  0.00    +0.000 A 
ATOM      6  N   VAL A   1       1.854   6.590  20.805  0.00  0.00    +0.000 N 
ATOM      7  N   UNK A   0       3.453   5.561  19.416  0.00  0.00    +0.000 NA
ATOM      8  H   VAL A   1       0.968   6.340  21.230  0.00  0.00    +0.000 HD
ENDROOT
BRANCH   1  11
ATOM      9  N   UNK A   0       6.111   4.611  16.006  0.00  0.00    +0.000 N 
ATOM     10  C   UNK A   0       4.861   4.603  16.591  0.00  0.00    +0.000 A 
ATOM     11  C   UNK A   0       5.045   4.552  17.957  0.00  0.00    +0.000 A 
ATOM     12  C   UNK A   0       6.437   4.630  18.105  0.00  0.00    +0.000 A 
ATOM     13  N   UNK A   0       7.088   4.690  16.941  0.00  0.00    +0.000 NA
BRANCH   9  18
ATOM     14  C   UNK A   0       5.984   3.463  12.459  0.00  0.00    +0.000 A 
ATOM     15  C   UNK A   0       7.063   4.165  11.926  0.00  0.00    +0.000 A 
ATOM     16  C   UNK A   0       7.806   5.039  12.723  0.00  0.00    +0.000 A 
ATOM     17  C   UNK A   0       7.480   5.210  14.069  0.00  0.00    +0.000 A 
ATOM     18  C   UNK A   0       6.407   4.495  14.618  0.00  0.00    +0.000 A 
ATOM     19  C   UNK A   0       5.654   3.632  13.804  0.00  0.00    +0.000 A 
BRANCH  14  21
ATOM     20  C   UNK A   0       4.043   3.056  11.148  0.00  0.00    +0.000 C 
ATOM     21  O   UNK A   0       5.330   2.631  11.589  0.00  0.00    +0.000 OA
ENDBRANCH  14  21
ENDBRANCH   9  18
ENDBRANCH   1  11
BRANCH   6  22
ATOM     22  CA  VAL A   1       1.964   7.914  20.181  0.00  0.00    +0.000 C 
BRANCH  22  23
ATOM     23  CB  VAL A   1       0.850   8.825  20.799  0.00  0.00    +0.000 C 
ATOM     24  CG1 VAL A   1       1.125   9.152  22.273  0.00  0.00    +0.000 C 
ATOM     25  CG2 VAL A   1       0.655  10.146  20.042  0.00  0.00    +0.000 C 
ENDBRANCH  22  23
BRANCH  22  26
ATOM     26  C   VAL A   1       1.805   7.840  18.635  0.00  0.00    +0.000 C 
BRANCH  26  27
ATOM     27  O   VAL A   1       2.996   8.092  17.893  0.00  0.00    +0.000 OA
ATOM     28  H   VAL A   1       3.301   7.245  17.515  0.00  0.00    +0.000 HD
ENDBRANCH  26  27
ENDBRANCH  22  26
ENDBRANCH   6  22
TORSDOF 7
ENDMDL
MODEL 8
REMARK VINA RESULT:      -7.4      3.622      9.441
REMARK  Name = 
REMARK  10 active torsions:
REMARK  status: ('A' for Active; 'I' for Inactive)
REMARK    1  A    between atoms: C_1  and  O_2
REMARK    2  A    between atoms: O_2  and  C_3
REMARK    3  A    between atoms: C_7  and  N_8
REMARK    4  A    between atoms: C_10  and  C_11
REMARK    5  A    between atoms: N_16  and  CA_17
REMARK    6  A    between atoms: CA_17  and  C_18
REMARK    7  A    between atoms: CA_17  and  CB_20
REMARK    8  A    between atoms: C_18  and  O_19
REMARK    9  A    between atoms: CB_20  and  CG1_21
REMARK   10  A    between atoms: CB_20  and  CG2_22
REMARK                            x       y       z     vdW  Elec       q    Type
REMARK                         _______ _______ _______ _____ _____    ______ ____
ROOT
ATOM      1  C   UNK A   0       0.993  10.883  18.694  0.00  0.00    +0.000 A 
ATOM      2  C   UNK A   0       1.840  11.964  18.697  0.00  0.00    +0.000 A 
ATOM      3  C   UNK A   0       1.240  13.174  18.467  0.00  0.00    +0.000 A 
ATOM      4  N   UNK A   0      -0.077  13.323  18.224  0.00  0.00    +0.000 NA
ATOM      5  C   UNK A   0      -0.826  12.216  18.228  0.00  0.00    +0.000 A 
ATOM      6  N   VAL A   1      -2.171  12.403  18.016  0.00  0.00    +0.000 N 
ATOM      7  N   UNK A   0      -0.342  10.993  18.478  0.00  0.00    +0.000 NA
ATOM      8  H   VAL A   1      -2.379  13.393  18.074  0.00  0.00    +0.000 HD
ENDROOT
BRANCH   1  11
ATOM      9  N   UNK A   0       2.342   7.521  18.698  0.00  0.00    +0.000 N 
ATOM     10  C   UNK A   0       2.157   8.752  18.103  0.00  0.00    +0.000 A 
ATOM     11  C   UNK A   0       1.480   9.548  19.004  0.00  0.00    +0.000 A 
ATOM     12  C   UNK A   0       1.386   8.744  20.149  0.00  0.00    +0.000 A 
ATOM     13  N   UNK A   0       1.921   7.531  19.986  0.00  0.00    +0.000 NA
BRANCH   9  18
ATOM     14  C   UNK A   0       2.611   3.982  17.552  0.00  0.00    +0.000 A 
ATOM     15  C   UNK A   0       3.888   3.992  16.993  0.00  0.00    +0.000 A 
ATOM     16  C   UNK A   0       4.641   5.168  16.963  0.00  0.00    +0.000 A 
ATOM     17  C   UNK A   0       4.124   6.346  17.503  0.00  0.00    +0.000 A 
ATOM     18  C   UNK A   0       2.848   6.341  18.083  0.00  0.00    +0.000 A 
ATOM     19  C   UNK A   0       2.091   5.158  18.093  0.00  0.00    +0.000 A 
BRANCH  14  21
ATOM     20  C   UNK A   0       1.177   2.456  18.678  0.00  0.00    +0.000 C 
ATOM     21  O   UNK A   0       1.965   2.774  17.533  0.00  0.00    +0.000 OA
ENDBRANCH  14  21
ENDBRANCH   9  18
ENDBRANCH   1  11
BRANCH   6  22
ATOM     22  CA  VAL A   1      -3.192  11.460  18.489  0.00  0.00    +0.000 C 
BRANCH  22  23
ATOM     23  CB  VAL A   1      -3.909  10.866  17.231  0.00  0.00    +0.000 C 
ATOM     24  CG1 VAL A   1      -5.295  11.488  17.010  0.00  0.00    +0.000 C 
ATOM     25  CG2 VAL A   1      -3.099  11.026  15.937  0.00  0.00    +0.000 C 
ENDBRANCH  22  23
BRANCH  22  26
ATOM     26  C   VAL A   1      -4.227  12.150  19.425  0.00  0.00    +0.000 C 
BRANCH  26  27
ATOM     27  O   VAL A   1      -3.872  13.464  19.852  0.00  0.00    +0.000 OA
ATOM     28  H   VAL A   1      -3.658  13.991  19.059  0.00  0.00    +0.000 HD
ENDBRANCH  26  27
ENDBRANCH  22  26
ENDBRANCH   6  22
TORSDOF 7
ENDMDL
MODEL 9
REMARK VINA RESULT:      -7.3      4.844      9.554
REMARK  Name = 
REMARK  10 active torsions:
REMARK  status: ('A' for Active; 'I' for Inactive)
REMARK    1  A    between atoms: C_1  and  O_2
REMARK    2  A    between atoms: O_2  and  C_3
REMARK    3  A    between atoms: C_7  and  N_8
REMARK    4  A    between atoms: C_10  and  C_11
REMARK    5  A    between atoms: N_16  and  CA_17
REMARK    6  A    between atoms: CA_17  and  C_18
REMARK    7  A    between atoms: CA_17  and  CB_20
REMARK    8  A    between atoms: C_18  and  O_19
REMARK    9  A    between atoms: CB_20  and  CG1_21
REMARK   10  A    between atoms: CB_20  and  CG2_22
REMARK                            x       y       z     vdW  Elec       q    Type
REMARK                         _______ _______ _______ _____ _____    ______ ____
ROOT
ATOM      1  C   UNK A   0       6.621   5.202  17.246  0.00  0.00    +0.000 A 
ATOM      2  C   UNK A   0       7.674   5.666  17.995  0.00  0.00    +0.000 A 
ATOM      3  C   UNK A   0       7.465   5.678  19.349  0.00  0.00    +0.000 A 
ATOM      4  N   UNK A   0       6.312   5.296  19.932  0.00  0.00    +0.000 NA
ATOM      5  C   UNK A   0       5.334   4.869  19.127  0.00  0.00    +0.000 A 
ATOM      6  N   VAL A   1       4.184   4.450  19.752  0.00  0.00    +0.000 N 
ATOM      7  N   UNK A   0       5.452   4.785  17.796  0.00  0.00    +0.000 NA
ATOM      8  H   VAL A   1       4.360   4.372  20.747  0.00  0.00    +0.000 HD
ENDROOT
BRANCH   1  11
ATOM      9  N   UNK A   0       6.356   4.288  13.750  0.00  0.00    +0.000 N 
ATOM     10  C   UNK A   0       5.868   4.299  15.041  0.00  0.00    +0.000 A 
ATOM     11  C   UNK A   0       6.733   5.057  15.803  0.00  0.00    +0.000 A 
ATOM     12  C   UNK A   0       7.658   5.542  14.867  0.00  0.00    +0.000 A 
ATOM     13  N   UNK A   0       7.428   5.107  13.626  0.00  0.00    +0.000 NA
BRANCH   9  18
ATOM     14  C   UNK A   0       4.123   2.964  11.073  0.00  0.00    +0.000 A 
ATOM     15  C   UNK A   0       4.882   1.887  10.618  0.00  0.00    +0.000 A 
ATOM     16  C   UNK A   0       6.139   1.621  11.167  0.00  0.00    +0.000 A 
ATOM     17  C   UNK A   0       6.643   2.429  12.188  0.00  0.00    +0.000 A 
ATOM     18  C   UNK A   0       5.879   3.503  12.662  0.00  0.00    +0.000 A 
ATOM     19  C   UNK A   0       4.624   3.773  12.092  0.00  0.00    +0.000 A 
BRANCH  14  21
ATOM     20  C   UNK A   0       2.835   4.107   9.434  0.00  0.00    +0.000 C 
ATOM     21  O   UNK A   0       2.905   3.128  10.467  0.00  0.00    +0.000 OA
ENDBRANCH  14  21
ENDBRANCH   9  18
ENDBRANCH   1  11
BRANCH   6  22
ATOM     22  CA  VAL A   1       3.250   3.494  19.145  0.00  0.00    +0.000 C 
BRANCH  22  23
ATOM     23  CB  VAL A   1       1.850   3.710  19.812  0.00  0.00    +0.000 C 
ATOM     24  CG1 VAL A   1       1.594   2.715  20.952  0.00  0.00    +0.000 C 
ATOM     25  CG2 VAL A   1       1.650   5.130  20.360  0.00  0.00    +0.000 C 
ENDBRANCH  22  23
BRANCH  22  26
ATOM     26  C   VAL A   1       3.719   2.023  19.341  0.00  0.00    +0.000 C 
BRANCH  26  27
ATOM     27  O   VAL A   1       4.991   1.874  19.968  0.00  0.00    +0.000 OA
ATOM     28  H   VAL A   1       4.849   1.836  20.934  0.00  0.00    +0.000 HD
ENDBRANCH  26  27
ENDBRANCH  22  26
ENDBRANCH   6  22
TORSDOF 7
ENDMDL
