MODEL 1
REMARK VINA RESULT:      -6.5      0.000      0.000
REMARK  Name = 
REMARK  5 active torsions:
REMARK  status: ('A' for Active; 'I' for Inactive)
REMARK    1  A    between atoms: C_1  and  C_2
REMARK    2  A    between atoms: C_2  and  N_3
REMARK    3  A    between atoms: C_5  and  C_6
REMARK    4  A    between atoms: C_6  and  N_7
REMARK    5  A    between atoms: C_8  and  C_10
REMARK                            x       y       z     vdW  Elec       q    Type
REMARK                         _______ _______ _______ _____ _____    ______ ____
ROOT
ATOM      1  N   UNL     1       4.632   4.189  19.164  0.00  0.00    +0.000 N 
ATOM      2  C   UNL     1       4.339   2.963  19.717  0.00  0.00    +0.000 C 
ATOM      3  O   UNL     1       5.187   2.276  20.279  0.00  0.00    +0.000 OA
ATOM      4  H   UNL     1       3.898   4.777  18.791  0.00  0.00    +0.000 HD
ENDROOT
BRANCH   2   5
ATOM      5  C   UNL     1       2.879   2.552  19.596  0.00  0.00    +0.000 C 
ATOM      6  C   UNL     1       1.983   3.313  20.570  0.00  0.00    +0.000 C 
ATOM      7  C   UNL     1       0.586   3.179  19.983  0.00  0.00    +0.000 C 
ATOM      8  C   UNL     1       0.774   3.043  18.476  0.00  0.00    +0.000 C 
ATOM      9  C   UNL     1       2.274   2.905  18.236  0.00  0.00    +0.000 C 
ENDBRANCH   2   5
BRANCH   1  10
ATOM     10  C   UNL     1       5.988   4.676  19.185  0.00  0.00    +0.000 C 
BRANCH  10  13
ATOM     11  N   UNL     1       6.814   5.173  15.662  0.00  0.00    +0.000 N 
ATOM     12  C   UNL     1       6.142   4.465  16.617  0.00  0.00    +0.000 A 
ATOM     13  C   UNL     1       6.401   5.087  17.823  0.00  0.00    +0.000 A 
ATOM     14  C   UNL     1       7.211   6.190  17.465  0.00  0.00    +0.000 A 
ATOM     15  N   UNL     1       7.446   6.254  16.153  0.00  0.00    +0.000 NA
BRANCH  11  17
ATOM     16  C   UNL     1       5.897   3.842  13.799  0.00  0.00    +0.000 C 
ATOM     17  C   UNL     1       6.951   4.830  14.260  0.00  0.00    +0.000 C 
ENDBRANCH  11  17
ENDBRANCH  10  13
ENDBRANCH   1  10
TORSDOF 4
ENDMDL
MODEL 2
REMARK VINA RESULT:      -6.5      1.536      2.752
REMARK  Name = 
REMARK  5 active torsions:
REMARK  status: ('A' for Active; 'I' for Inactive)
REMARK    1  A    between atoms: C_1  and  C_2
REMARK    2  A    between atoms: C_2  and  N_3
REMARK    3  A    between atoms: C_5  and  C_6
REMARK    4  A    between atoms: C_6  and  N_7
REMARK    5  A    between atoms: C_8  and  C_10
REMARK                            x       y       z     vdW  Elec       q    Type
REMARK                         _______ _______ _______ _____ _____    ______ ____
ROOT
ATOM      1  N   UNL     1       3.649   3.872  17.065  0.00  0.00    +0.000 N 
ATOM      2  C   UNL     1       3.146   2.835  17.817  0.00  0.00    +0.000 C 
ATOM      3  O   UNL     1       3.626   1.706  17.786  0.00  0.00    +0.000 OA
ATOM      4  H   UNL     1       3.297   4.813  17.180  0.00  0.00    +0.000 HD
ENDROOT
BRANCH   2   5
ATOM      5  C   UNL     1       1.969   3.216  18.703  0.00  0.00    +0.000 C 
ATOM      6  C   UNL     1       1.906   2.371  19.973  0.00  0.00    +0.000 C 
ATOM      7  C   UNL     1       1.049   3.187  20.929  0.00  0.00    +0.000 C 
ATOM      8  C   UNL     1       1.260   4.647  20.541  0.00  0.00    +0.000 C 
ATOM      9  C   UNL     1       2.076   4.640  19.251  0.00  0.00    +0.000 C 
ENDBRANCH   2   5
BRANCH   1  10
ATOM     10  C   UNL     1       4.745   3.631  16.160  0.00  0.00    +0.000 C 
BRANCH  10  13
ATOM     11  N   UNL     1       7.222   6.050  17.321  0.00  0.00    +0.000 N 
ATOM     12  C   UNL     1       6.247   5.140  17.617  0.00  0.00    +0.000 A 
ATOM     13  C   UNL     1       5.836   4.599  16.415  0.00  0.00    +0.000 A 
ATOM     14  C   UNL     1       6.667   5.230  15.460  0.00  0.00    +0.000 A 
ATOM     15  N   UNL     1       7.520   6.097  16.010  0.00  0.00    +0.000 NA
BRANCH  11  17
ATOM     16  C   UNL     1       7.900   8.388  17.718  0.00  0.00    +0.000 C 
ATOM     17  C   UNL     1       7.866   6.966  18.242  0.00  0.00    +0.000 C 
ENDBRANCH  11  17
ENDBRANCH  10  13
ENDBRANCH   1  10
TORSDOF 4
ENDMDL
MODEL 3
REMARK VINA RESULT:      -6.5      1.589      1.690
REMARK  Name = 
REMARK  5 active torsions:
REMARK  status: ('A' for Active; 'I' for Inactive)
REMARK    1  A    between atoms: C_1  and  C_2
REMARK    2  A    between atoms: C_2  and  N_3
REMARK    3  A    between atoms: C_5  and  C_6
REMARK    4  A    between atoms: C_6  and  N_7
REMARK    5  A    between atoms: C_8  and  C_10
REMARK                            x       y       z     vdW  Elec       q    Type
REMARK                         _______ _______ _______ _____ _____    ______ ____
ROOT
ATOM      1  N   UNL     1       3.622   5.635  17.795  0.00  0.00    +0.000 N 
ATOM      2  C   UNL     1       4.007   4.997  18.953  0.00  0.00    +0.000 C 
ATOM      3  O   UNL     1       5.007   5.328  19.584  0.00  0.00    +0.000 OA
ATOM      4  H   UNL     1       2.745   5.407  17.346  0.00  0.00    +0.000 HD
ENDROOT
BRANCH   2   5
ATOM      5  C   UNL     1       3.077   3.875  19.390  0.00  0.00    +0.000 C 
ATOM      6  C   UNL     1       2.091   4.329  20.463  0.00  0.00    +0.000 C 
ATOM      7  C   UNL     1       0.967   3.306  20.401  0.00  0.00    +0.000 C 
ATOM      8  C   UNL     1       0.934   2.804  18.962  0.00  0.00    +0.000 C 
ATOM      9  C   UNL     1       2.157   3.396  18.267  0.00  0.00    +0.000 C 
ENDBRANCH   2   5
BRANCH   1  10
ATOM     10  C   UNL     1       4.439   6.695  17.259  0.00  0.00    +0.000 C 
BRANCH  10  13
ATOM     11  N   UNL     1       6.566   5.067  14.776  0.00  0.00    +0.000 N 
ATOM     12  C   UNL     1       5.321   5.477  15.161  0.00  0.00    +0.000 A 
ATOM     13  C   UNL     1       5.479   6.132  16.367  0.00  0.00    +0.000 A 
ATOM     14  C   UNL     1       6.875   6.092  16.592  0.00  0.00    +0.000 A 
ATOM     15  N   UNL     1       7.537   5.463  15.618  0.00  0.00    +0.000 NA
BRANCH  11  17
ATOM     16  C   UNL     1       5.660   3.631  12.987  0.00  0.00    +0.000 C 
ATOM     17  C   UNL     1       6.892   4.228  13.640  0.00  0.00    +0.000 C 
ENDBRANCH  11  17
ENDBRANCH  10  13
ENDBRANCH   1  10
TORSDOF 4
ENDMDL
MODEL 4
REMARK VINA RESULT:      -6.4      1.569      1.891
REMARK  Name = 
REMARK  5 active torsions:
REMARK  status: ('A' for Active; 'I' for Inactive)
REMARK    1  A    between atoms: C_1  and  C_2
REMARK    2  A    between atoms: C_2  and  N_3
REMARK    3  A    between atoms: C_5  and  C_6
REMARK    4  A    between atoms: C_6  and  N_7
REMARK    5  A    between atoms: C_8  and  C_10
REMARK                            x       y       z     vdW  Elec       q    Type
REMARK                         _______ _______ _______ _____ _____    ______ ____
ROOT
ATOM      1  N   UNL     1       4.462   4.708  19.295  0.00  0.00    +0.000 N 
ATOM      2  C   UNL     1       3.357   5.511  19.120  0.00  0.00    +0.000 C 
ATOM      3  O   UNL     1       3.446   6.718  18.921  0.00  0.00    +0.000 OA
ATOM      4  H   UNL     1       4.367   3.704  19.363  0.00  0.00    +0.000 HD
ENDROOT
BRANCH   2   5
ATOM      5  C   UNL     1       2.029   4.769  19.167  0.00  0.00    +0.000 C 
ATOM      6  C   UNL     1       2.026   3.536  18.267  0.00  0.00    +0.000 C 
ATOM      7  C   UNL     1       0.894   2.676  18.808  0.00  0.00    +0.000 C 
ATOM      8  C   UNL     1       0.791   3.002  20.294  0.00  0.00    +0.000 C 
ATOM      9  C   UNL     1       1.727   4.181  20.545  0.00  0.00    +0.000 C 
ENDBRANCH   2   5
BRANCH   1  10
ATOM     10  C   UNL     1       5.777   5.298  19.304  0.00  0.00    +0.000 C 
BRANCH  10  13
ATOM     11  N   UNL     1       6.830   5.133  15.811  0.00  0.00    +0.000 N 
ATOM     12  C   UNL     1       6.107   4.602  16.841  0.00  0.00    +0.000 A 
ATOM     13  C   UNL     1       6.274   5.451  17.918  0.00  0.00    +0.000 A 
ATOM     14  C   UNL     1       7.088   6.488  17.405  0.00  0.00    +0.000 A 
ATOM     15  N   UNL     1       7.411   6.306  16.122  0.00  0.00    +0.000 NA
BRANCH  11  17
ATOM     16  C   UNL     1       5.795   4.007  13.876  0.00  0.00    +0.000 C 
ATOM     17  C   UNL     1       7.067   4.531  14.513  0.00  0.00    +0.000 C 
ENDBRANCH  11  17
ENDBRANCH  10  13
ENDBRANCH   1  10
TORSDOF 4
ENDMDL
MODEL 5
REMARK VINA RESULT:      -6.4      2.276      6.417
REMARK  Name = 
REMARK  5 active torsions:
REMARK  status: ('A' for Active; 'I' for Inactive)
REMARK    1  A    between atoms: C_1  and  C_2
REMARK    2  A    between atoms: C_2  and  N_3
REMARK    3  A    between atoms: C_5  and  C_6
REMARK    4  A    between atoms: C_6  and  N_7
REMARK    5  A    between atoms: C_8  and  C_10
REMARK                            x       y       z     vdW  Elec       q    Type
REMARK                         _______ _______ _______ _____ _____    ______ ____
ROOT
ATOM      1  N   UNL     1       5.243   5.124  16.094  0.00  0.00    +0.000 N 
ATOM      2  C   UNL     1       6.518   5.230  15.586  0.00  0.00    +0.000 C 
ATOM      3  O   UNL     1       7.357   5.985  16.069  0.00  0.00    +0.000 OA
ATOM      4  H   UNL     1       4.602   4.427  15.739  0.00  0.00    +0.000 HD
ENDROOT
BRANCH   2   5
ATOM      5  C   UNL     1       6.801   4.317  14.402  0.00  0.00    +0.000 C 
ATOM      6  C   UNL     1       5.519   3.831  13.731  0.00  0.00    +0.000 C 
ATOM      7  C   UNL     1       5.960   3.397  12.342  0.00  0.00    +0.000 C 
ATOM      8  C   UNL     1       7.171   4.257  11.997  0.00  0.00    +0.000 C 
ATOM      9  C   UNL     1       7.527   5.032  13.262  0.00  0.00    +0.000 C 
ENDBRANCH   2   5
BRANCH   1  10
ATOM     10  C   UNL     1       4.842   5.961  17.197  0.00  0.00    +0.000 C 
BRANCH  10  13
ATOM     11  N   UNL     1       3.090   4.384  19.986  0.00  0.00    +0.000 N 
ATOM     12  C   UNL     1       3.177   5.412  19.090  0.00  0.00    +0.000 A 
ATOM     13  C   UNL     1       4.257   5.132  18.276  0.00  0.00    +0.000 A 
ATOM     14  C   UNL     1       4.721   3.882  18.749  0.00  0.00    +0.000 A 
ATOM     15  N   UNL     1       4.003   3.419  19.774  0.00  0.00    +0.000 NA
BRANCH  11  17
ATOM     16  C   UNL     1       1.284   3.084  21.051  0.00  0.00    +0.000 C 
ATOM     17  C   UNL     1       2.194   4.295  21.123  0.00  0.00    +0.000 C 
ENDBRANCH  11  17
ENDBRANCH  10  13
ENDBRANCH   1  10
TORSDOF 4
ENDMDL
MODEL 6
REMARK VINA RESULT:      -6.4      1.194      1.194
REMARK  Name = 
REMARK  5 active torsions:
REMARK  status: ('A' for Active; 'I' for Inactive)
REMARK    1  A    between atoms: C_1  and  C_2
REMARK    2  A    between atoms: C_2  and  N_3
REMARK    3  A    between atoms: C_5  and  C_6
REMARK    4  A    between atoms: C_6  and  N_7
REMARK    5  A    between atoms: C_8  and  C_10
REMARK                            x       y       z     vdW  Elec       q    Type
REMARK                         _______ _______ _______ _____ _____    ______ ____
ROOT
ATOM      1  N   UNL     1       5.263   4.251  19.481  0.00  0.00    +0.000 N 
ATOM      2  C   UNL     1       3.967   4.698  19.604  0.00  0.00    +0.000 C 
ATOM      3  O   UNL     1       3.677   5.890  19.582  0.00  0.00    +0.000 OA
ATOM      4  H   UNL     1       5.465   3.263  19.407  0.00  0.00    +0.000 HD
ENDROOT
BRANCH   2   5
ATOM      5  C   UNL     1       2.932   3.590  19.742  0.00  0.00    +0.000 C 
ATOM      6  C   UNL     1       1.723   4.031  20.562  0.00  0.00    +0.000 C 
ATOM      7  C   UNL     1       0.625   3.052  20.174  0.00  0.00    +0.000 C 
ATOM      8  C   UNL     1       0.936   2.616  18.746  0.00  0.00    +0.000 C 
ATOM      9  C   UNL     1       2.306   3.194  18.404  0.00  0.00    +0.000 C 
ENDBRANCH   2   5
BRANCH   1  10
ATOM     10  C   UNL     1       6.339   5.204  19.377  0.00  0.00    +0.000 C 
BRANCH  10  13
ATOM     11  N   UNL     1       6.950   5.283  15.777  0.00  0.00    +0.000 N 
ATOM     12  C   UNL     1       6.365   4.675  16.851  0.00  0.00    +0.000 A 
ATOM     13  C   UNL     1       6.658   5.455  17.953  0.00  0.00    +0.000 A 
ATOM     14  C   UNL     1       7.394   6.537  17.413  0.00  0.00    +0.000 A 
ATOM     15  N   UNL     1       7.556   6.443  16.091  0.00  0.00    +0.000 NA
BRANCH  11  17
ATOM     16  C   UNL     1       5.801   3.968  14.035  0.00  0.00    +0.000 C 
ATOM     17  C   UNL     1       7.028   4.771  14.423  0.00  0.00    +0.000 C 
ENDBRANCH  11  17
ENDBRANCH  10  13
ENDBRANCH   1  10
TORSDOF 4
ENDMDL
MODEL 7
REMARK VINA RESULT:      -6.3      1.426      1.935
REMARK  Name = 
REMARK  5 active torsions:
REMARK  status: ('A' for Active; 'I' for Inactive)
REMARK    1  A    between atoms: C_1  and  C_2
REMARK    2  A    between atoms: C_2  and  N_3
REMARK    3  A    between atoms: C_5  and  C_6
REMARK    4  A    between atoms: C_6  and  N_7
REMARK    5  A    between atoms: C_8  and  C_10
REMARK                            x       y       z     vdW  Elec       q    Type
REMARK                         _______ _______ _______ _____ _____    ______ ____
ROOT
ATOM      1  N   UNL     1       4.845   4.444  17.731  0.00  0.00    +0.000 N 
ATOM      2  C   UNL     1       4.402   3.757  18.838  0.00  0.00    +0.000 C 
ATOM      3  O   UNL     1       5.168   3.177  19.602  0.00  0.00    +0.000 OA
ATOM      4  H   UNL     1       4.204   4.992  17.171  0.00  0.00    +0.000 HD
ENDROOT
BRANCH   2   5
ATOM      5  C   UNL     1       2.895   3.802  19.043  0.00  0.00    +0.000 C 
ATOM      6  C   UNL     1       2.363   2.528  19.694  0.00  0.00    +0.000 C 
ATOM      7  C   UNL     1       1.017   2.933  20.276  0.00  0.00    +0.000 C 
ATOM      8  C   UNL     1       1.130   4.418  20.602  0.00  0.00    +0.000 C 
ATOM      9  C   UNL     1       2.463   4.889  20.027  0.00  0.00    +0.000 C 
ENDBRANCH   2   5
BRANCH   1  10
ATOM     10  C   UNL     1       6.250   4.449  17.409  0.00  0.00    +0.000 C 
BRANCH  10  13
ATOM     11  N   UNL     1       6.439   4.068  13.781  0.00  0.00    +0.000 N 
ATOM     12  C   UNL     1       5.899   3.673  14.973  0.00  0.00    +0.000 A 
ATOM     13  C   UNL     1       6.433   4.501  15.940  0.00  0.00    +0.000 A 
ATOM     14  C   UNL     1       7.254   5.390  15.206  0.00  0.00    +0.000 A 
ATOM     15  N   UNL     1       7.244   5.139  13.895  0.00  0.00    +0.000 NA
BRANCH  11  17
ATOM     16  C   UNL     1       4.847   3.453  12.000  0.00  0.00    +0.000 C 
ATOM     17  C   UNL     1       6.280   3.416  12.496  0.00  0.00    +0.000 C 
ENDBRANCH  11  17
ENDBRANCH  10  13
ENDBRANCH   1  10
TORSDOF 4
ENDMDL
MODEL 8
REMARK VINA RESULT:      -6.3      1.868      2.210
REMARK  Name = 
REMARK  5 active torsions:
REMARK  status: ('A' for Active; 'I' for Inactive)
REMARK    1  A    between atoms: C_1  and  C_2
REMARK    2  A    between atoms: C_2  and  N_3
REMARK    3  A    between atoms: C_5  and  C_6
REMARK    4  A    between atoms: C_6  and  N_7
REMARK    5  A    between atoms: C_8  and  C_10
REMARK                            x       y       z     vdW  Elec       q    Type
REMARK                         _______ _______ _______ _____ _____    ______ ____
ROOT
ATOM      1  N   UNL     1       3.095   6.447  17.751  0.00  0.00    +0.000 N 
ATOM      2  C   UNL     1       3.062   5.603  18.837  0.00  0.00    +0.000 C 
ATOM      3  O   UNL     1       3.918   5.626  19.715  0.00  0.00    +0.000 OA
ATOM      4  H   UNL     1       2.329   6.473  17.091  0.00  0.00    +0.000 HD
ENDROOT
BRANCH   2   5
ATOM      5  C   UNL     1       1.864   4.664  18.865  0.00  0.00    +0.000 C 
ATOM      6  C   UNL     1       2.153   3.341  18.161  0.00  0.00    +0.000 C 
ATOM      7  C   UNL     1       1.107   2.383  18.712  0.00  0.00    +0.000 C 
ATOM      8  C   UNL     1       0.780   2.880  20.116  0.00  0.00    +0.000 C 
ATOM      9  C   UNL     1       1.492   4.219  20.280  0.00  0.00    +0.000 C 
ENDBRANCH   2   5
BRANCH   1  10
ATOM     10  C   UNL     1       4.198   7.362  17.593  0.00  0.00    +0.000 C 
BRANCH  10  13
ATOM     11  N   UNL     1       6.509   5.464  15.496  0.00  0.00    +0.000 N 
ATOM     12  C   UNL     1       5.240   5.912  15.729  0.00  0.00    +0.000 A 
ATOM     13  C   UNL     1       5.303   6.703  16.860  0.00  0.00    +0.000 A 
ATOM     14  C   UNL     1       6.677   6.693  17.201  0.00  0.00    +0.000 A 
ATOM     15  N   UNL     1       7.411   5.957  16.364  0.00  0.00    +0.000 NA
BRANCH  11  17
ATOM     16  C   UNL     1       5.748   3.935  13.717  0.00  0.00    +0.000 C 
ATOM     17  C   UNL     1       6.921   4.499  14.496  0.00  0.00    +0.000 C 
ENDBRANCH  11  17
ENDBRANCH  10  13
ENDBRANCH   1  10
TORSDOF 4
ENDMDL
MODEL 9
REMARK VINA RESULT:      -6.3      2.386      6.309
REMARK  Name = 
REMARK  5 active torsions:
REMARK  status: ('A' for Active; 'I' for Inactive)
REMARK    1  A    between atoms: C_1  and  C_2
REMARK    2  A    between atoms: C_2  and  N_3
REMARK    3  A    between atoms: C_5  and  C_6
REMARK    4  A    between atoms: C_6  and  N_7
REMARK    5  A    between atoms: C_8  and  C_10
REMARK                            x       y       z     vdW  Elec       q    Type
REMARK                         _______ _______ _______ _____ _____    ______ ____
ROOT
ATOM      1  N   UNL     1       5.231   5.585  16.021  0.00  0.00    +0.000 N 
ATOM      2  C   UNL     1       6.532   5.458  15.589  0.00  0.00    +0.000 C 
ATOM      3  O   UNL     1       7.450   6.118  16.065  0.00  0.00    +0.000 OA
ATOM      4  H   UNL     1       4.509   4.964  15.679  0.00  0.00    +0.000 HD
ENDROOT
BRANCH   2   5
ATOM      5  C   UNL     1       6.732   4.417  14.497  0.00  0.00    +0.000 C 
ATOM      6  C   UNL     1       5.411   3.978  13.871  0.00  0.00    +0.000 C 
ATOM      7  C   UNL     1       5.808   3.380  12.530  0.00  0.00    +0.000 C 
ATOM      8  C   UNL     1       7.085   4.100  12.110  0.00  0.00    +0.000 C 
ATOM      9  C   UNL     1       7.510   4.958  13.297  0.00  0.00    +0.000 C 
ENDBRANCH   2   5
BRANCH   1  10
ATOM     10  C   UNL     1       4.906   6.563  17.029  0.00  0.00    +0.000 C 
BRANCH  10  13
ATOM     11  N   UNL     1       3.045   4.586  19.472  0.00  0.00    +0.000 N 
ATOM     12  C   UNL     1       4.142   4.722  18.669  0.00  0.00    +0.000 A 
ATOM     13  C   UNL     1       4.031   5.957  18.059  0.00  0.00    +0.000 A 
ATOM     14  C   UNL     1       2.844   6.498  18.607  0.00  0.00    +0.000 A 
ATOM     15  N   UNL     1       2.255   5.675  19.477  0.00  0.00    +0.000 NA
BRANCH  11  17
ATOM     16  C   UNL     1       1.205   3.456  20.665  0.00  0.00    +0.000 C 
ATOM     17  C   UNL     1       2.653   3.404  20.215  0.00  0.00    +0.000 C 
ENDBRANCH  11  17
ENDBRANCH  10  13
ENDBRANCH   1  10
TORSDOF 4
ENDMDL
