MODEL 1
REMARK VINA RESULT:      -7.3      0.000      0.000
REMARK  Name = 
REMARK  5 active torsions:
REMARK  status: ('A' for Active; 'I' for Inactive)
REMARK    1  A    between atoms: C_1  and  N_2
REMARK    2  A    between atoms: N_2  and  C_3
REMARK    3  A    between atoms: N_2  and  C_4
REMARK    4  A    between atoms: C_9  and  C_10
REMARK    5  A    between atoms: N_12  and  C_13
REMARK                            x       y       z     vdW  Elec       q    Type
REMARK                         _______ _______ _______ _____ _____    ______ ____
ROOT
ATOM      1  C   UNL     1       4.236   4.736  17.328  0.00  0.00    +0.000 C 
ATOM      2  O   UNL     1       3.653   5.780  17.604  0.00  0.00    +0.000 OA
ATOM      3  N   UNL     1       4.021   3.515  17.957  0.00  0.00    +0.000 N 
ATOM      4  H   UNL     1       4.646   2.744  17.741  0.00  0.00    +0.000 HD
ENDROOT
BRANCH   3   5
ATOM      5  C   UNL     1       3.109   3.250  19.006  0.00  0.00    +0.000 A 
ATOM      6  C   UNL     1       1.739   3.511  18.939  0.00  0.00    +0.000 A 
ATOM      7  C   UNL     1       0.923   3.282  20.052  0.00  0.00    +0.000 A 
ATOM      8  C   UNL     1       1.476   2.784  21.226  0.00  0.00    +0.000 A 
ATOM      9  F   UNL     1       0.692   2.595  22.295  0.00  0.00    +0.000 F 
ATOM     10  C   UNL     1       2.826   2.479  21.305  0.00  0.00    +0.000 A 
ATOM     11  C   UNL     1       3.627   2.707  20.191  0.00  0.00    +0.000 A 
ATOM     12  F   UNL     1       4.938   2.419  20.267  0.00  0.00    +0.000 F 
ENDBRANCH   3   5
BRANCH   1  18
ATOM     13  C   UNL     1       6.541   5.312  16.361  0.00  0.00    +0.000 A 
ATOM     14  C   UNL     1       7.368   5.255  15.224  0.00  0.00    +0.000 A 
ATOM     15  C   UNL     1       6.916   4.641  14.063  0.00  0.00    +0.000 A 
ATOM     16  N   UNL     1       5.702   4.091  13.932  0.00  0.00    +0.000 NA
ATOM     17  C   UNL     1       4.900   4.159  15.020  0.00  0.00    +0.000 A 
ATOM     18  C   UNL     1       5.267   4.719  16.245  0.00  0.00    +0.000 A 
BRANCH  13  20
ATOM     19  C   UNL     1       7.472   7.310  17.464  0.00  0.00    +0.000 C 
ATOM     20  N   UNL     1       7.001   5.925  17.541  0.00  0.00    +0.000 N 
ATOM     21  C   UNL     1       7.760   5.053  18.434  0.00  0.00    +0.000 C 
ENDBRANCH  13  20
ENDBRANCH   1  18
TORSDOF 3
ENDMDL
MODEL 2
REMARK VINA RESULT:      -7.0      1.110      1.546
REMARK  Name = 
REMARK  5 active torsions:
REMARK  status: ('A' for Active; 'I' for Inactive)
REMARK    1  A    between atoms: C_1  and  N_2
REMARK    2  A    between atoms: N_2  and  C_3
REMARK    3  A    between atoms: N_2  and  C_4
REMARK    4  A    between atoms: C_9  and  C_10
REMARK    5  A    between atoms: N_12  and  C_13
REMARK                            x       y       z     vdW  Elec       q    Type
REMARK                         _______ _______ _______ _____ _____    ______ ____
ROOT
ATOM      1  C   UNL     1       4.500   4.895  17.919  0.00  0.00    +0.000 C 
ATOM      2  O   UNL     1       4.158   5.953  18.436  0.00  0.00    +0.000 OA
ATOM      3  N   UNL     1       4.102   3.634  18.348  0.00  0.00    +0.000 N 
ATOM      4  H   UNL     1       4.545   2.820  17.933  0.00  0.00    +0.000 HD
ENDROOT
BRANCH   3   5
ATOM      5  C   UNL     1       3.244   3.340  19.435  0.00  0.00    +0.000 A 
ATOM      6  C   UNL     1       3.672   2.786  20.644  0.00  0.00    +0.000 A 
ATOM      7  C   UNL     1       2.743   2.464  21.639  0.00  0.00    +0.000 A 
ATOM      8  C   UNL     1       1.390   2.704  21.427  0.00  0.00    +0.000 A 
ATOM      9  F   UNL     1       0.505   2.365  22.373  0.00  0.00    +0.000 F 
ATOM     10  C   UNL     1       0.945   3.289  20.252  0.00  0.00    +0.000 A 
ATOM     11  C   UNL     1       1.878   3.609  19.272  0.00  0.00    +0.000 A 
ATOM     12  F   UNL     1       1.449   4.171  18.128  0.00  0.00    +0.000 F 
ENDBRANCH   3   5
BRANCH   1  18
ATOM     13  C   UNL     1       6.620   5.635  16.679  0.00  0.00    +0.000 A 
ATOM     14  C   UNL     1       7.334   5.577  15.467  0.00  0.00    +0.000 A 
ATOM     15  C   UNL     1       6.845   4.828  14.405  0.00  0.00    +0.000 A 
ATOM     16  N   UNL     1       5.695   4.143  14.439  0.00  0.00    +0.000 NA
ATOM     17  C   UNL     1       5.000   4.211  15.599  0.00  0.00    +0.000 A 
ATOM     18  C   UNL     1       5.417   4.902  16.737  0.00  0.00    +0.000 A 
BRANCH  13  20
ATOM     19  C   UNL     1       7.651   7.723  17.488  0.00  0.00    +0.000 C 
ATOM     20  N   UNL     1       7.119   6.385  17.759  0.00  0.00    +0.000 N 
ATOM     21  C   UNL     1       7.848   5.613  18.762  0.00  0.00    +0.000 C 
ENDBRANCH  13  20
ENDBRANCH   1  18
TORSDOF 3
ENDMDL
MODEL 3
REMARK VINA RESULT:      -6.7      1.089      1.717
REMARK  Name = 
REMARK  5 active torsions:
REMARK  status: ('A' for Active; 'I' for Inactive)
REMARK    1  A    between atoms: C_1  and  N_2
REMARK    2  A    between atoms: N_2  and  C_3
REMARK    3  A    between atoms: N_2  and  C_4
REMARK    4  A    between atoms: C_9  and  C_10
REMARK    5  A    between atoms: N_12  and  C_13
REMARK                            x       y       z     vdW  Elec       q    Type
REMARK                         _______ _______ _______ _____ _____    ______ ____
ROOT
ATOM      1  C   UNL     1       4.495   4.767  17.211  0.00  0.00    +0.000 C 
ATOM      2  O   UNL     1       4.084   5.857  17.595  0.00  0.00    +0.000 OA
ATOM      3  N   UNL     1       4.179   3.546  17.794  0.00  0.00    +0.000 N 
ATOM      4  H   UNL     1       4.674   2.717  17.478  0.00  0.00    +0.000 HD
ENDROOT
BRANCH   3   5
ATOM      5  C   UNL     1       3.340   3.333  18.914  0.00  0.00    +0.000 A 
ATOM      6  C   UNL     1       3.801   2.953  20.177  0.00  0.00    +0.000 A 
ATOM      7  C   UNL     1       2.892   2.697  21.210  0.00  0.00    +0.000 A 
ATOM      8  C   UNL     1       1.527   2.830  20.981  0.00  0.00    +0.000 A 
ATOM      9  F   UNL     1       0.664   2.554  21.967  0.00  0.00    +0.000 F 
ATOM     10  C   UNL     1       1.048   3.244  19.748  0.00  0.00    +0.000 A 
ATOM     11  C   UNL     1       1.960   3.500  18.730  0.00  0.00    +0.000 A 
ATOM     12  F   UNL     1       1.498   3.895  17.532  0.00  0.00    +0.000 F 
ENDBRANCH   3   5
BRANCH   1  18
ATOM     13  C   UNL     1       6.729   5.188  16.023  0.00  0.00    +0.000 A 
ATOM     14  C   UNL     1       7.434   5.084  14.809  0.00  0.00    +0.000 A 
ATOM     15  C   UNL     1       6.827   4.516  13.696  0.00  0.00    +0.000 A 
ATOM     16  N   UNL     1       5.570   4.055  13.684  0.00  0.00    +0.000 NA
ATOM     17  C   UNL     1       4.886   4.168  14.846  0.00  0.00    +0.000 A 
ATOM     18  C   UNL     1       5.410   4.688  16.031  0.00  0.00    +0.000 A 
BRANCH  13  20
ATOM     19  C   UNL     1       7.451   4.941  18.366  0.00  0.00    +0.000 C 
ATOM     20  N   UNL     1       7.346   5.754  17.153  0.00  0.00    +0.000 N 
ATOM     21  C   UNL     1       7.056   7.169  17.370  0.00  0.00    +0.000 C 
ENDBRANCH  13  20
ENDBRANCH   1  18
TORSDOF 3
ENDMDL
MODEL 4
REMARK VINA RESULT:      -6.6      1.396      1.467
REMARK  Name = 
REMARK  5 active torsions:
REMARK  status: ('A' for Active; 'I' for Inactive)
REMARK    1  A    between atoms: C_1  and  N_2
REMARK    2  A    between atoms: N_2  and  C_3
REMARK    3  A    between atoms: N_2  and  C_4
REMARK    4  A    between atoms: C_9  and  C_10
REMARK    5  A    between atoms: N_12  and  C_13
REMARK                            x       y       z     vdW  Elec       q    Type
REMARK                         _______ _______ _______ _____ _____    ______ ____
ROOT
ATOM      1  C   UNL     1       5.328   4.123  18.183  0.00  0.00    +0.000 C 
ATOM      2  O   UNL     1       6.003   3.893  19.181  0.00  0.00    +0.000 OA
ATOM      3  N   UNL     1       3.940   4.080  18.133  0.00  0.00    +0.000 N 
ATOM      4  H   UNL     1       3.485   4.160  17.228  0.00  0.00    +0.000 HD
ENDROOT
BRANCH   3   5
ATOM      5  C   UNL     1       3.062   3.771  19.201  0.00  0.00    +0.000 A 
ATOM      6  C   UNL     1       2.762   4.647  20.246  0.00  0.00    +0.000 A 
ATOM      7  C   UNL     1       1.937   4.232  21.297  0.00  0.00    +0.000 A 
ATOM      8  C   UNL     1       1.408   2.946  21.297  0.00  0.00    +0.000 A 
ATOM      9  F   UNL     1       0.643   2.548  22.321  0.00  0.00    +0.000 F 
ATOM     10  C   UNL     1       1.659   2.072  20.251  0.00  0.00    +0.000 A 
ATOM     11  C   UNL     1       2.476   2.497  19.209  0.00  0.00    +0.000 A 
ATOM     12  F   UNL     1       2.728   1.649  18.196  0.00  0.00    +0.000 F 
ENDBRANCH   3   5
BRANCH   1  18
ATOM     13  C   UNL     1       6.787   5.635  16.710  0.00  0.00    +0.000 A 
ATOM     14  C   UNL     1       7.294   5.850  15.415  0.00  0.00    +0.000 A 
ATOM     15  C   UNL     1       7.008   4.951  14.395  0.00  0.00    +0.000 A 
ATOM     16  N   UNL     1       6.244   3.863  14.550  0.00  0.00    +0.000 NA
ATOM     17  C   UNL     1       5.742   3.663  15.791  0.00  0.00    +0.000 A 
ATOM     18  C   UNL     1       5.997   4.480  16.894  0.00  0.00    +0.000 A 
BRANCH  13  20
ATOM     19  C   UNL     1       7.242   7.954  17.408  0.00  0.00    +0.000 C 
ATOM     20  N   UNL     1       7.085   6.538  17.746  0.00  0.00    +0.000 N 
ATOM     21  C   UNL     1       8.003   6.030  18.763  0.00  0.00    +0.000 C 
ENDBRANCH  13  20
ENDBRANCH   1  18
TORSDOF 3
ENDMDL
MODEL 5
REMARK VINA RESULT:      -6.6      4.254      5.085
REMARK  Name = 
REMARK  5 active torsions:
REMARK  status: ('A' for Active; 'I' for Inactive)
REMARK    1  A    between atoms: C_1  and  N_2
REMARK    2  A    between atoms: N_2  and  C_3
REMARK    3  A    between atoms: N_2  and  C_4
REMARK    4  A    between atoms: C_9  and  C_10
REMARK    5  A    between atoms: N_12  and  C_13
REMARK                            x       y       z     vdW  Elec       q    Type
REMARK                         _______ _______ _______ _____ _____    ______ ____
ROOT
ATOM      1  C   UNL     1       2.825   6.173  18.007  0.00  0.00    +0.000 C 
ATOM      2  O   UNL     1       1.785   5.522  18.039  0.00  0.00    +0.000 OA
ATOM      3  N   UNL     1       2.998   7.427  18.580  0.00  0.00    +0.000 N 
ATOM      4  H   UNL     1       3.856   7.934  18.384  0.00  0.00    +0.000 HD
ENDROOT
BRANCH   3   5
ATOM      5  C   UNL     1       2.030   8.173  19.295  0.00  0.00    +0.000 A 
ATOM      6  C   UNL     1       1.627   7.885  20.601  0.00  0.00    +0.000 A 
ATOM      7  C   UNL     1       0.612   8.635  21.206  0.00  0.00    +0.000 A 
ATOM      8  C   UNL     1       0.010   9.676  20.508  0.00  0.00    +0.000 A 
ATOM      9  F   UNL     1      -0.979  10.369  21.085  0.00  0.00    +0.000 F 
ATOM     10  C   UNL     1       0.421  10.007  19.227  0.00  0.00    +0.000 A 
ATOM     11  C   UNL     1       1.433   9.258  18.637  0.00  0.00    +0.000 A 
ATOM     12  F   UNL     1       1.829   9.572  17.391  0.00  0.00    +0.000 F 
ENDBRANCH   3   5
BRANCH   1  18
ATOM     13  C   UNL     1       4.524   4.317  17.503  0.00  0.00    +0.000 A 
ATOM     14  C   UNL     1       5.702   3.982  16.811  0.00  0.00    +0.000 A 
ATOM     15  C   UNL     1       6.319   4.917  15.989  0.00  0.00    +0.000 A 
ATOM     16  N   UNL     1       5.871   6.166  15.810  0.00  0.00    +0.000 NA
ATOM     17  C   UNL     1       4.746   6.495  16.488  0.00  0.00    +0.000 A 
ATOM     18  C   UNL     1       4.028   5.624  17.309  0.00  0.00    +0.000 A 
BRANCH  13  20
ATOM     19  C   UNL     1       4.543   3.002  19.588  0.00  0.00    +0.000 C 
ATOM     20  N   UNL     1       3.893   3.368  18.328  0.00  0.00    +0.000 N 
ATOM     21  C   UNL     1       3.239   2.271  17.618  0.00  0.00    +0.000 C 
ENDBRANCH  13  20
ENDBRANCH   1  18
TORSDOF 3
ENDMDL
MODEL 6
REMARK VINA RESULT:      -6.4      1.571      1.983
REMARK  Name = 
REMARK  5 active torsions:
REMARK  status: ('A' for Active; 'I' for Inactive)
REMARK    1  A    between atoms: C_1  and  N_2
REMARK    2  A    between atoms: N_2  and  C_3
REMARK    3  A    between atoms: N_2  and  C_4
REMARK    4  A    between atoms: C_9  and  C_10
REMARK    5  A    between atoms: N_12  and  C_13
REMARK                            x       y       z     vdW  Elec       q    Type
REMARK                         _______ _______ _______ _____ _____    ______ ____
ROOT
ATOM      1  C   UNL     1       5.265   4.079  18.148  0.00  0.00    +0.000 C 
ATOM      2  O   UNL     1       6.016   4.051  19.118  0.00  0.00    +0.000 OA
ATOM      3  N   UNL     1       3.902   3.810  18.188  0.00  0.00    +0.000 N 
ATOM      4  H   UNL     1       3.399   3.734  17.309  0.00  0.00    +0.000 HD
ENDROOT
BRANCH   3   5
ATOM      5  C   UNL     1       3.139   3.465  19.329  0.00  0.00    +0.000 A 
ATOM      6  C   UNL     1       3.616   2.685  20.384  0.00  0.00    +0.000 A 
ATOM      7  C   UNL     1       2.768   2.335  21.440  0.00  0.00    +0.000 A 
ATOM      8  C   UNL     1       1.448   2.773  21.444  0.00  0.00    +0.000 A 
ATOM      9  F   UNL     1       0.636   2.409  22.444  0.00  0.00    +0.000 F 
ATOM     10  C   UNL     1       0.962   3.581  20.428  0.00  0.00    +0.000 A 
ATOM     11  C   UNL     1       1.815   3.926  19.385  0.00  0.00    +0.000 A 
ATOM     12  F   UNL     1       1.345   4.704  18.395  0.00  0.00    +0.000 F 
ENDBRANCH   3   5
BRANCH   1  18
ATOM     13  C   UNL     1       6.203   5.716  16.409  0.00  0.00    +0.000 A 
ATOM     14  C   UNL     1       6.633   5.872  15.079  0.00  0.00    +0.000 A 
ATOM     15  C   UNL     1       6.648   4.782  14.218  0.00  0.00    +0.000 A 
ATOM     16  N   UNL     1       6.255   3.550  14.564  0.00  0.00    +0.000 NA
ATOM     17  C   UNL     1       5.826   3.402  15.840  0.00  0.00    +0.000 A 
ATOM     18  C   UNL     1       5.805   4.418  16.795  0.00  0.00    +0.000 A 
BRANCH  13  20
ATOM     19  C   UNL     1       4.998   7.655  17.337  0.00  0.00    +0.000 C 
ATOM     20  N   UNL     1       6.198   6.816  17.285  0.00  0.00    +0.000 N 
ATOM     21  C   UNL     1       7.468   7.531  17.387  0.00  0.00    +0.000 C 
ENDBRANCH  13  20
ENDBRANCH   1  18
TORSDOF 3
ENDMDL
MODEL 7
REMARK VINA RESULT:      -6.4      4.310      5.942
REMARK  Name = 
REMARK  5 active torsions:
REMARK  status: ('A' for Active; 'I' for Inactive)
REMARK    1  A    between atoms: C_1  and  N_2
REMARK    2  A    between atoms: N_2  and  C_3
REMARK    3  A    between atoms: N_2  and  C_4
REMARK    4  A    between atoms: C_9  and  C_10
REMARK    5  A    between atoms: N_12  and  C_13
REMARK                            x       y       z     vdW  Elec       q    Type
REMARK                         _______ _______ _______ _____ _____    ______ ____
ROOT
ATOM      1  C   UNL     1       2.367   5.550  19.016  0.00  0.00    +0.000 C 
ATOM      2  O   UNL     1       1.736   5.438  17.970  0.00  0.00    +0.000 OA
ATOM      3  N   UNL     1       2.536   6.735  19.721  0.00  0.00    +0.000 N 
ATOM      4  H   UNL     1       3.183   6.744  20.504  0.00  0.00    +0.000 HD
ENDROOT
BRANCH   3   5
ATOM      5  C   UNL     1       2.022   8.008  19.376  0.00  0.00    +0.000 A 
ATOM      6  C   UNL     1       2.270   8.650  18.161  0.00  0.00    +0.000 A 
ATOM      7  C   UNL     1       1.778   9.940  17.932  0.00  0.00    +0.000 A 
ATOM      8  C   UNL     1       1.031  10.581  18.915  0.00  0.00    +0.000 A 
ATOM      9  F   UNL     1       0.588  11.825  18.699  0.00  0.00    +0.000 F 
ATOM     10  C   UNL     1       0.738   9.949  20.113  0.00  0.00    +0.000 A 
ATOM     11  C   UNL     1       1.229   8.666  20.328  0.00  0.00    +0.000 A 
ATOM     12  F   UNL     1       0.952   8.052  21.491  0.00  0.00    +0.000 F 
ENDBRANCH   3   5
BRANCH   1  18
ATOM     13  C   UNL     1       4.214   3.773  19.126  0.00  0.00    +0.000 A 
ATOM     14  C   UNL     1       4.668   2.613  19.780  0.00  0.00    +0.000 A 
ATOM     15  C   UNL     1       3.956   2.092  20.852  0.00  0.00    +0.000 A 
ATOM     16  N   UNL     1       2.818   2.619  21.321  0.00  0.00    +0.000 NA
ATOM     17  C   UNL     1       2.371   3.727  20.683  0.00  0.00    +0.000 A 
ATOM     18  C   UNL     1       3.027   4.352  19.622  0.00  0.00    +0.000 A 
BRANCH  13  20
ATOM     19  C   UNL     1       4.721   3.740  16.714  0.00  0.00    +0.000 C 
ATOM     20  N   UNL     1       4.941   4.307  18.046  0.00  0.00    +0.000 N 
ATOM     21  C   UNL     1       6.322   4.673  18.352  0.00  0.00    +0.000 C 
ENDBRANCH  13  20
ENDBRANCH   1  18
TORSDOF 3
ENDMDL
MODEL 8
REMARK VINA RESULT:      -6.4      3.876      4.239
REMARK  Name = 
REMARK  5 active torsions:
REMARK  status: ('A' for Active; 'I' for Inactive)
REMARK    1  A    between atoms: C_1  and  N_2
REMARK    2  A    between atoms: N_2  and  C_3
REMARK    3  A    between atoms: N_2  and  C_4
REMARK    4  A    between atoms: C_9  and  C_10
REMARK    5  A    between atoms: N_12  and  C_13
REMARK                            x       y       z     vdW  Elec       q    Type
REMARK                         _______ _______ _______ _____ _____    ______ ____
ROOT
ATOM      1  C   UNL     1       4.129   5.882  18.619  0.00  0.00    +0.000 C 
ATOM      2  O   UNL     1       4.194   5.450  19.766  0.00  0.00    +0.000 OA
ATOM      3  N   UNL     1       3.305   6.921  18.206  0.00  0.00    +0.000 N 
ATOM      4  H   UNL     1       3.233   7.115  17.211  0.00  0.00    +0.000 HD
ENDROOT
BRANCH   3   5
ATOM      5  C   UNL     1       2.407   7.664  19.010  0.00  0.00    +0.000 A 
ATOM      6  C   UNL     1       2.033   7.301  20.306  0.00  0.00    +0.000 A 
ATOM      7  C   UNL     1       1.085   8.058  21.003  0.00  0.00    +0.000 A 
ATOM      8  C   UNL     1       0.521   9.181  20.407  0.00  0.00    +0.000 A 
ATOM      9  F   UNL     1      -0.406   9.883  21.071  0.00  0.00    +0.000 F 
ATOM     10  C   UNL     1       0.906   9.584  19.138  0.00  0.00    +0.000 A 
ATOM     11  C   UNL     1       1.852   8.827  18.456  0.00  0.00    +0.000 A 
ATOM     12  F   UNL     1       2.223   9.211  17.223  0.00  0.00    +0.000 F 
ENDBRANCH   3   5
BRANCH   1  18
ATOM     13  C   UNL     1       6.334   5.600  17.339  0.00  0.00    +0.000 A 
ATOM     14  C   UNL     1       6.968   4.984  16.244  0.00  0.00    +0.000 A 
ATOM     15  C   UNL     1       6.259   4.112  15.428  0.00  0.00    +0.000 A 
ATOM     16  N   UNL     1       4.966   3.813  15.599  0.00  0.00    +0.000 NA
ATOM     17  C   UNL     1       4.351   4.417  16.643  0.00  0.00    +0.000 A 
ATOM     18  C   UNL     1       4.976   5.279  17.545  0.00  0.00    +0.000 A 
BRANCH  13  20
ATOM     19  C   UNL     1       7.650   7.671  17.573  0.00  0.00    +0.000 C 
ATOM     20  N   UNL     1       7.054   6.476  18.173  0.00  0.00    +0.000 N 
ATOM     21  C   UNL     1       7.857   5.825  19.205  0.00  0.00    +0.000 C 
ENDBRANCH  13  20
ENDBRANCH   1  18
TORSDOF 3
ENDMDL
MODEL 9
REMARK VINA RESULT:      -6.3      4.139      4.964
REMARK  Name = 
REMARK  5 active torsions:
REMARK  status: ('A' for Active; 'I' for Inactive)
REMARK    1  A    between atoms: C_1  and  N_2
REMARK    2  A    between atoms: N_2  and  C_3
REMARK    3  A    between atoms: N_2  and  C_4
REMARK    4  A    between atoms: C_9  and  C_10
REMARK    5  A    between atoms: N_12  and  C_13
REMARK                            x       y       z     vdW  Elec       q    Type
REMARK                         _______ _______ _______ _____ _____    ______ ____
ROOT
ATOM      1  C   UNL     1       2.958   6.331  17.797  0.00  0.00    +0.000 C 
ATOM      2  O   UNL     1       1.975   5.609  17.926  0.00  0.00    +0.000 OA
ATOM      3  N   UNL     1       3.002   7.682  18.124  0.00  0.00    +0.000 N 
ATOM      4  H   UNL     1       3.823   8.217  17.857  0.00  0.00    +0.000 HD
ENDROOT
BRANCH   3   5
ATOM      5  C   UNL     1       1.947   8.460  18.658  0.00  0.00    +0.000 A 
ATOM      6  C   UNL     1       1.224   9.406  17.928  0.00  0.00    +0.000 A 
ATOM      7  C   UNL     1       0.243  10.180  18.557  0.00  0.00    +0.000 A 
ATOM      8  C   UNL     1      -0.020  10.000  19.911  0.00  0.00    +0.000 A 
ATOM      9  F   UNL     1      -0.940  10.766  20.510  0.00  0.00    +0.000 F 
ATOM     10  C   UNL     1       0.656   9.040  20.647  0.00  0.00    +0.000 A 
ATOM     11  C   UNL     1       1.626   8.273  20.011  0.00  0.00    +0.000 A 
ATOM     12  F   UNL     1       2.289   7.346  20.723  0.00  0.00    +0.000 F 
ENDBRANCH   3   5
BRANCH   1  18
ATOM     13  C   UNL     1       4.716   4.480  17.548  0.00  0.00    +0.000 A 
ATOM     14  C   UNL     1       5.961   4.132  16.993  0.00  0.00    +0.000 A 
ATOM     15  C   UNL     1       6.650   5.040  16.199  0.00  0.00    +0.000 A 
ATOM     16  N   UNL     1       6.212   6.274  15.922  0.00  0.00    +0.000 NA
ATOM     17  C   UNL     1       5.021   6.616  16.468  0.00  0.00    +0.000 A 
ATOM     18  C   UNL     1       4.231   5.770  17.248  0.00  0.00    +0.000 A 
BRANCH  13  20
ATOM     19  C   UNL     1       4.581   3.187  19.642  0.00  0.00    +0.000 C 
ATOM     20  N   UNL     1       4.013   3.557  18.344  0.00  0.00    +0.000 N 
ATOM     21  C   UNL     1       3.370   2.471  17.608  0.00  0.00    +0.000 C 
ENDBRANCH  13  20
ENDBRANCH   1  18
TORSDOF 3
ENDMDL
