MODEL 1
REMARK VINA RESULT:      -7.6      0.000      0.000
REMARK  Name = 
REMARK  17 active torsions:
REMARK  status: ('A' for Active; 'I' for Inactive)
REMARK    1  A    between atoms: C_1  and  C_2
REMARK    2  A    between atoms: C_2  and  C_3
REMARK    3  A    between atoms: C_2  and  C_4
REMARK    4  A    between atoms: C_2  and  O_5
REMARK    5  A    between atoms: O_5  and  C_6
REMARK    6  A    between atoms: N_8  and  C_9
REMARK    7  A    between atoms: C_9  and  C_10
REMARK    8  A    between atoms: C_9  and  C_22
REMARK    9  A    between atoms: C_10  and  C_11
REMARK   10  A    between atoms: C_14  and  O_15
REMARK   11  A    between atoms: O_15  and  C_16
REMARK   12  A    between atoms: C_16  and  C_17
REMARK   13  A    between atoms: C_16  and  C_18
REMARK   14  A    between atoms: C_16  and  C_19
REMARK   15  A    between atoms: N_24  and  C_25
REMARK   16  A    between atoms: C_28  and  C_29
REMARK   17  A    between atoms: C_29  and  O_31
REMARK                            x       y       z     vdW  Elec       q    Type
REMARK                         _______ _______ _______ _____ _____    ______ ____
ROOT
ATOM      1  C   UNL     1       0.803  10.962  18.783  0.00  0.00    +0.000 C 
ENDROOT
BRANCH   1   4
ATOM      2  C   UNL     1      -1.570  11.645  18.547  0.00  0.00    +0.000 C 
ATOM      3  O   UNL     1      -1.767  11.475  19.752  0.00  0.00    +0.000 OA
ATOM      4  N   UNL     1      -0.336  11.460  17.983  0.00  0.00    +0.000 N 
ATOM      5  H   UNL     1      -0.224  11.585  16.982  0.00  0.00    +0.000 HD
BRANCH   2   6
ATOM      6  O   UNL     1      -2.542  11.973  17.653  0.00  0.00    +0.000 OA
BRANCH   6   8
ATOM      7  C   UNL     1      -4.821  11.259  16.964  0.00  0.00    +0.000 C 
ATOM      8  C   UNL     1      -3.322  10.914  17.006  0.00  0.00    +0.000 C 
ATOM      9  C   UNL     1      -3.095   9.546  17.673  0.00  0.00    +0.000 C 
ATOM     10  C   UNL     1      -2.838  10.804  15.545  0.00  0.00    +0.000 C 
ENDBRANCH   6   8
ENDBRANCH   2   6
ENDBRANCH   1   4
BRANCH   1  11
ATOM     11  C   UNL     1       1.564  12.045  19.604  0.00  0.00    +0.000 C 
ATOM     12  O   UNL     1       1.516  12.097  20.830  0.00  0.00    +0.000 OA
ATOM     13  N   UNL     1       2.313  12.940  18.837  0.00  0.00    +0.000 N 
ATOM     14  H   UNL     1       2.350  12.816  17.834  0.00  0.00    +0.000 HD
BRANCH  13  15
ATOM     15  C   UNL     1       3.066  14.052  19.408  0.00  0.00    +0.000 C 
ATOM     16  C   UNL     1       4.163  14.551  18.466  0.00  0.00    +0.000 C 
ATOM     17  C   UNL     1       3.502  15.579  17.547  0.00  0.00    +0.000 C 
ATOM     18  C   UNL     1       2.210  16.030  18.250  0.00  0.00    +0.000 C 
ATOM     19  C   UNL     1       2.211  15.303  19.603  0.00  0.00    +0.000 C 
BRANCH  18  20
ATOM     20  C   UNL     1       2.103  17.529  18.434  0.00  0.00    +0.000 C 
ATOM     21  O   UNL     1       2.237  18.123  19.496  0.00  0.00    +0.000 OA
BRANCH  20  22
ATOM     22  O   UNL     1       1.866  18.188  17.276  0.00  0.00    +0.000 OA
ATOM     23  H   UNL     1       2.212  17.748  16.476  0.00  0.00    +0.000 HD
ENDBRANCH  20  22
ENDBRANCH  18  20
ENDBRANCH  13  15
ENDBRANCH   1  11
BRANCH   1  24
ATOM     24  C   UNL     1       1.820  10.155  17.946  0.00  0.00    +0.000 C 
BRANCH  24  25
ATOM     25  C   UNL     1       2.067   8.749  18.425  0.00  0.00    +0.000 A 
ATOM     26  C   UNL     1       2.786   7.804  17.685  0.00  0.00    +0.000 A 
ATOM     27  C   UNL     1       3.140   6.574  18.260  0.00  0.00    +0.000 A 
ATOM     28  C   UNL     1       2.763   6.279  19.571  0.00  0.00    +0.000 A 
ATOM     29  C   UNL     1       1.900   7.150  20.219  0.00  0.00    +0.000 A 
ATOM     30  C   UNL     1       1.594   8.387  19.680  0.00  0.00    +0.000 A 
BRANCH  28  31
ATOM     31  O   UNL     1       3.269   5.143  20.140  0.00  0.00    +0.000 OA
BRANCH  31  32
ATOM     32  C   UNL     1       2.551   3.890  19.957  0.00  0.00    +0.000 C 
ATOM     33  C   UNL     1       3.498   2.700  19.732  0.00  0.00    +0.000 C 
ATOM     34  C   UNL     1       1.824   3.622  21.292  0.00  0.00    +0.000 C 
ATOM     35  C   UNL     1       1.462   3.968  18.869  0.00  0.00    +0.000 C 
ENDBRANCH  31  32
ENDBRANCH  28  31
ENDBRANCH  24  25
ENDBRANCH   1  24
TORSDOF 11
ENDMDL
MODEL 2
REMARK VINA RESULT:      -7.3      2.803      4.423
REMARK  Name = 
REMARK  17 active torsions:
REMARK  status: ('A' for Active; 'I' for Inactive)
REMARK    1  A    between atoms: C_1  and  C_2
REMARK    2  A    between atoms: C_2  and  C_3
REMARK    3  A    between atoms: C_2  and  C_4
REMARK    4  A    between atoms: C_2  and  O_5
REMARK    5  A    between atoms: O_5  and  C_6
REMARK    6  A    between atoms: N_8  and  C_9
REMARK    7  A    between atoms: C_9  and  C_10
REMARK    8  A    between atoms: C_9  and  C_22
REMARK    9  A    between atoms: C_10  and  C_11
REMARK   10  A    between atoms: C_14  and  O_15
REMARK   11  A    between atoms: O_15  and  C_16
REMARK   12  A    between atoms: C_16  and  C_17
REMARK   13  A    between atoms: C_16  and  C_18
REMARK   14  A    between atoms: C_16  and  C_19
REMARK   15  A    between atoms: N_24  and  C_25
REMARK   16  A    between atoms: C_28  and  C_29
REMARK   17  A    between atoms: C_29  and  O_31
REMARK                            x       y       z     vdW  Elec       q    Type
REMARK                         _______ _______ _______ _____ _____    ______ ____
ROOT
ATOM      1  C   UNL     1       0.162  10.686  19.190  0.00  0.00    +0.000 C 
ENDROOT
BRANCH   1   4
ATOM      2  C   UNL     1      -1.814  11.563  17.974  0.00  0.00    +0.000 C 
ATOM      3  O   UNL     1      -2.358  11.882  19.034  0.00  0.00    +0.000 OA
ATOM      4  N   UNL     1      -0.563  11.008  17.943  0.00  0.00    +0.000 N 
ATOM      5  H   UNL     1      -0.163  10.736  17.050  0.00  0.00    +0.000 HD
BRANCH   2   6
ATOM      6  O   UNL     1      -2.401  11.671  16.752  0.00  0.00    +0.000 OA
BRANCH   6   8
ATOM      7  C   UNL     1      -3.414   9.451  17.229  0.00  0.00    +0.000 C 
ATOM      8  C   UNL     1      -3.449  10.722  16.362  0.00  0.00    +0.000 C 
ATOM      9  C   UNL     1      -3.372  10.365  14.868  0.00  0.00    +0.000 C 
ATOM     10  C   UNL     1      -4.811  11.404  16.607  0.00  0.00    +0.000 C 
ENDBRANCH   6   8
ENDBRANCH   2   6
ENDBRANCH   1   4
BRANCH   1  11
ATOM     11  C   UNL     1       0.168  11.812  20.266  0.00  0.00    +0.000 C 
ATOM     12  O   UNL     1       0.907  12.790  20.193  0.00  0.00    +0.000 OA
ATOM     13  N   UNL     1      -0.742  11.628  21.309  0.00  0.00    +0.000 N 
ATOM     14  H   UNL     1      -1.359  10.826  21.289  0.00  0.00    +0.000 HD
BRANCH  13  15
ATOM     15  C   UNL     1      -0.868  12.546  22.438  0.00  0.00    +0.000 C 
ATOM     16  C   UNL     1      -1.559  13.852  22.046  0.00  0.00    +0.000 C 
ATOM     17  C   UNL     1      -3.061  13.601  22.192  0.00  0.00    +0.000 C 
ATOM     18  C   UNL     1      -3.214  12.376  23.108  0.00  0.00    +0.000 C 
ATOM     19  C   UNL     1      -1.786  12.007  23.534  0.00  0.00    +0.000 C 
BRANCH  18  20
ATOM     20  C   UNL     1      -4.100  12.618  24.312  0.00  0.00    +0.000 C 
ATOM     21  O   UNL     1      -5.015  11.890  24.675  0.00  0.00    +0.000 OA
BRANCH  20  22
ATOM     22  O   UNL     1      -3.765  13.736  24.998  0.00  0.00    +0.000 OA
ATOM     23  H   UNL     1      -4.016  13.726  25.941  0.00  0.00    +0.000 HD
ENDBRANCH  20  22
ENDBRANCH  18  20
ENDBRANCH  13  15
ENDBRANCH   1  11
BRANCH   1  24
ATOM     24  C   UNL     1       1.613  10.219  18.940  0.00  0.00    +0.000 C 
BRANCH  24  25
ATOM     25  C   UNL     1       1.833   8.734  19.051  0.00  0.00    +0.000 A 
ATOM     26  C   UNL     1       2.374   7.961  18.019  0.00  0.00    +0.000 A 
ATOM     27  C   UNL     1       2.726   6.621  18.245  0.00  0.00    +0.000 A 
ATOM     28  C   UNL     1       2.522   6.047  19.501  0.00  0.00    +0.000 A 
ATOM     29  C   UNL     1       1.820   6.773  20.451  0.00  0.00    +0.000 A 
ATOM     30  C   UNL     1       1.522   8.110  20.253  0.00  0.00    +0.000 A 
BRANCH  28  31
ATOM     31  O   UNL     1       3.028   4.795  19.719  0.00  0.00    +0.000 OA
BRANCH  31  32
ATOM     32  C   UNL     1       2.198   3.641  19.409  0.00  0.00    +0.000 C 
ATOM     33  C   UNL     1       3.006   2.334  19.360  0.00  0.00    +0.000 C 
ATOM     34  C   UNL     1       1.213   3.501  20.589  0.00  0.00    +0.000 C 
ATOM     35  C   UNL     1       1.344   3.832  18.141  0.00  0.00    +0.000 C 
ENDBRANCH  31  32
ENDBRANCH  28  31
ENDBRANCH  24  25
ENDBRANCH   1  24
TORSDOF 11
ENDMDL
MODEL 3
REMARK VINA RESULT:      -7.2      0.695      1.568
REMARK  Name = 
REMARK  17 active torsions:
REMARK  status: ('A' for Active; 'I' for Inactive)
REMARK    1  A    between atoms: C_1  and  C_2
REMARK    2  A    between atoms: C_2  and  C_3
REMARK    3  A    between atoms: C_2  and  C_4
REMARK    4  A    between atoms: C_2  and  O_5
REMARK    5  A    between atoms: O_5  and  C_6
REMARK    6  A    between atoms: N_8  and  C_9
REMARK    7  A    between atoms: C_9  and  C_10
REMARK    8  A    between atoms: C_9  and  C_22
REMARK    9  A    between atoms: C_10  and  C_11
REMARK   10  A    between atoms: C_14  and  O_15
REMARK   11  A    between atoms: O_15  and  C_16
REMARK   12  A    between atoms: C_16  and  C_17
REMARK   13  A    between atoms: C_16  and  C_18
REMARK   14  A    between atoms: C_16  and  C_19
REMARK   15  A    between atoms: N_24  and  C_25
REMARK   16  A    between atoms: C_28  and  C_29
REMARK   17  A    between atoms: C_29  and  O_31
REMARK                            x       y       z     vdW  Elec       q    Type
REMARK                         _______ _______ _______ _____ _____    ______ ____
ROOT
ATOM      1  C   UNL     1       0.676  10.623  18.741  0.00  0.00    +0.000 C 
ENDROOT
BRANCH   1   4
ATOM      2  C   UNL     1      -1.602  11.555  18.436  0.00  0.00    +0.000 C 
ATOM      3  O   UNL     1      -1.817  11.497  19.648  0.00  0.00    +0.000 OA
ATOM      4  N   UNL     1      -0.397  11.189  17.897  0.00  0.00    +0.000 N 
ATOM      5  H   UNL     1      -0.272  11.228  16.891  0.00  0.00    +0.000 HD
BRANCH   2   6
ATOM      6  O   UNL     1      -2.529  11.927  17.512  0.00  0.00    +0.000 OA
BRANCH   6   8
ATOM      7  C   UNL     1      -2.998  10.643  15.436  0.00  0.00    +0.000 C 
ATOM      8  C   UNL     1      -3.392  10.912  16.899  0.00  0.00    +0.000 C 
ATOM      9  C   UNL     1      -4.880  11.287  17.003  0.00  0.00    +0.000 C 
ATOM     10  C   UNL     1      -3.188   9.595  17.676  0.00  0.00    +0.000 C 
ENDBRANCH   6   8
ENDBRANCH   2   6
ENDBRANCH   1   4
BRANCH   1  11
ATOM     11  C   UNL     1       1.392  11.640  19.679  0.00  0.00    +0.000 C 
ATOM     12  O   UNL     1       1.392  11.521  20.902  0.00  0.00    +0.000 OA
ATOM     13  N   UNL     1       2.041  12.686  19.020  0.00  0.00    +0.000 N 
ATOM     14  H   UNL     1       2.046  12.702  18.008  0.00  0.00    +0.000 HD
BRANCH  13  15
ATOM     15  C   UNL     1       2.737  13.765  19.715  0.00  0.00    +0.000 C 
ATOM     16  C   UNL     1       3.861  14.366  18.871  0.00  0.00    +0.000 C 
ATOM     17  C   UNL     1       3.214  15.451  18.008  0.00  0.00    +0.000 C 
ATOM     18  C   UNL     1       1.880  15.810  18.682  0.00  0.00    +0.000 C 
ATOM     19  C   UNL     1       1.839  14.975  19.970  0.00  0.00    +0.000 C 
BRANCH  18  20
ATOM     20  C   UNL     1       1.722  17.286  18.982  0.00  0.00    +0.000 C 
ATOM     21  O   UNL     1       0.666  17.904  18.959  0.00  0.00    +0.000 OA
BRANCH  20  22
ATOM     22  O   UNL     1       2.889  17.885  19.319  0.00  0.00    +0.000 OA
ATOM     23  H   UNL     1       3.653  17.628  18.770  0.00  0.00    +0.000 HD
ENDBRANCH  20  22
ENDBRANCH  18  20
ENDBRANCH  13  15
ENDBRANCH   1  11
BRANCH   1  24
ATOM     24  C   UNL     1       1.740   9.854  17.926  0.00  0.00    +0.000 C 
BRANCH  24  25
ATOM     25  C   UNL     1       2.193   8.554  18.537  0.00  0.00    +0.000 A 
ATOM     26  C   UNL     1       1.720   8.080  19.766  0.00  0.00    +0.000 A 
ATOM     27  C   UNL     1       2.037   6.782  20.194  0.00  0.00    +0.000 A 
ATOM     28  C   UNL     1       2.840   5.960  19.402  0.00  0.00    +0.000 A 
ATOM     29  C   UNL     1       3.443   6.510  18.282  0.00  0.00    +0.000 A 
ATOM     30  C   UNL     1       3.091   7.769  17.825  0.00  0.00    +0.000 A 
BRANCH  28  31
ATOM     31  O   UNL     1       2.986   4.654  19.782  0.00  0.00    +0.000 OA
BRANCH  31  32
ATOM     32  C   UNL     1       2.253   3.628  19.055  0.00  0.00    +0.000 C 
ATOM     33  C   UNL     1       1.463   4.203  17.868  0.00  0.00    +0.000 C 
ATOM     34  C   UNL     1       3.323   2.692  18.454  0.00  0.00    +0.000 C 
ATOM     35  C   UNL     1       1.365   2.757  19.964  0.00  0.00    +0.000 C 
ENDBRANCH  31  32
ENDBRANCH  28  31
ENDBRANCH  24  25
ENDBRANCH   1  24
TORSDOF 11
ENDMDL
MODEL 4
REMARK VINA RESULT:      -7.1      0.887      1.506
REMARK  Name = 
REMARK  17 active torsions:
REMARK  status: ('A' for Active; 'I' for Inactive)
REMARK    1  A    between atoms: C_1  and  C_2
REMARK    2  A    between atoms: C_2  and  C_3
REMARK    3  A    between atoms: C_2  and  C_4
REMARK    4  A    between atoms: C_2  and  O_5
REMARK    5  A    between atoms: O_5  and  C_6
REMARK    6  A    between atoms: N_8  and  C_9
REMARK    7  A    between atoms: C_9  and  C_10
REMARK    8  A    between atoms: C_9  and  C_22
REMARK    9  A    between atoms: C_10  and  C_11
REMARK   10  A    between atoms: C_14  and  O_15
REMARK   11  A    between atoms: O_15  and  C_16
REMARK   12  A    between atoms: C_16  and  C_17
REMARK   13  A    between atoms: C_16  and  C_18
REMARK   14  A    between atoms: C_16  and  C_19
REMARK   15  A    between atoms: N_24  and  C_25
REMARK   16  A    between atoms: C_28  and  C_29
REMARK   17  A    between atoms: C_29  and  O_31
REMARK                            x       y       z     vdW  Elec       q    Type
REMARK                         _______ _______ _______ _____ _____    ______ ____
ROOT
ATOM      1  C   UNL     1       0.603  10.529  18.853  0.00  0.00    +0.000 C 
ENDROOT
BRANCH   1   4
ATOM      2  C   UNL     1      -1.632  11.488  18.366  0.00  0.00    +0.000 C 
ATOM      3  O   UNL     1      -1.927  11.478  19.563  0.00  0.00    +0.000 OA
ATOM      4  N   UNL     1      -0.403  11.082  17.921  0.00  0.00    +0.000 N 
ATOM      5  H   UNL     1      -0.211  11.081  16.925  0.00  0.00    +0.000 HD
BRANCH   2   6
ATOM      6  O   UNL     1      -2.490  11.841  17.372  0.00  0.00    +0.000 OA
BRANCH   6   8
ATOM      7  C   UNL     1      -4.906  11.398  16.986  0.00  0.00    +0.000 C 
ATOM      8  C   UNL     1      -3.466  10.867  16.873  0.00  0.00    +0.000 C 
ATOM      9  C   UNL     1      -3.328   9.506  17.577  0.00  0.00    +0.000 C 
ATOM     10  C   UNL     1      -3.178  10.645  15.374  0.00  0.00    +0.000 C 
ENDBRANCH   6   8
ENDBRANCH   2   6
ENDBRANCH   1   4
BRANCH   1  11
ATOM     11  C   UNL     1       1.103  11.512  19.953  0.00  0.00    +0.000 C 
ATOM     12  O   UNL     1       1.198  11.186  21.134  0.00  0.00    +0.000 OA
ATOM     13  N   UNL     1       1.446  12.783  19.489  0.00  0.00    +0.000 N 
ATOM     14  H   UNL     1       1.392  12.975  18.497  0.00  0.00    +0.000 HD
BRANCH  13  15
ATOM     15  C   UNL     1       1.898  13.862  20.361  0.00  0.00    +0.000 C 
ATOM     16  C   UNL     1       3.416  14.044  20.317  0.00  0.00    +0.000 C 
ATOM     17  C   UNL     1       3.700  14.985  19.145  0.00  0.00    +0.000 C 
ATOM     18  C   UNL     1       2.383  15.716  18.841  0.00  0.00    +0.000 C 
ATOM     19  C   UNL     1       1.394  15.233  19.911  0.00  0.00    +0.000 C 
BRANCH  18  20
ATOM     20  C   UNL     1       2.504  17.225  18.850  0.00  0.00    +0.000 C 
ATOM     21  O   UNL     1       3.041  17.887  19.729  0.00  0.00    +0.000 OA
BRANCH  20  22
ATOM     22  O   UNL     1       1.972  17.805  17.748  0.00  0.00    +0.000 OA
ATOM     23  H   UNL     1       2.088  17.298  16.923  0.00  0.00    +0.000 HD
ENDBRANCH  20  22
ENDBRANCH  18  20
ENDBRANCH  13  15
ENDBRANCH   1  11
BRANCH   1  24
ATOM     24  C   UNL     1       1.824   9.919  18.129  0.00  0.00    +0.000 C 
BRANCH  24  25
ATOM     25  C   UNL     1       2.243   8.559  18.622  0.00  0.00    +0.000 A 
ATOM     26  C   UNL     1       1.743   7.982  19.794  0.00  0.00    +0.000 A 
ATOM     27  C   UNL     1       2.029   6.644  20.104  0.00  0.00    +0.000 A 
ATOM     28  C   UNL     1       2.829   5.883  19.250  0.00  0.00    +0.000 A 
ATOM     29  C   UNL     1       3.459   6.524  18.193  0.00  0.00    +0.000 A 
ATOM     30  C   UNL     1       3.137   7.826  17.852  0.00  0.00    +0.000 A 
BRANCH  28  31
ATOM     31  O   UNL     1       2.945   4.545  19.508  0.00  0.00    +0.000 OA
BRANCH  31  32
ATOM     32  C   UNL     1       2.310   3.600  18.601  0.00  0.00    +0.000 C 
ATOM     33  C   UNL     1       1.327   4.284  17.636  0.00  0.00    +0.000 C 
ATOM     34  C   UNL     1       3.447   3.025  17.728  0.00  0.00    +0.000 C 
ATOM     35  C   UNL     1       1.662   2.405  19.325  0.00  0.00    +0.000 C 
ENDBRANCH  31  32
ENDBRANCH  28  31
ENDBRANCH  24  25
ENDBRANCH   1  24
TORSDOF 11
ENDMDL
MODEL 5
REMARK VINA RESULT:      -7.1      3.194     10.160
REMARK  Name = 
REMARK  17 active torsions:
REMARK  status: ('A' for Active; 'I' for Inactive)
REMARK    1  A    between atoms: C_1  and  C_2
REMARK    2  A    between atoms: C_2  and  C_3
REMARK    3  A    between atoms: C_2  and  C_4
REMARK    4  A    between atoms: C_2  and  O_5
REMARK    5  A    between atoms: O_5  and  C_6
REMARK    6  A    between atoms: N_8  and  C_9
REMARK    7  A    between atoms: C_9  and  C_10
REMARK    8  A    between atoms: C_9  and  C_22
REMARK    9  A    between atoms: C_10  and  C_11
REMARK   10  A    between atoms: C_14  and  O_15
REMARK   11  A    between atoms: O_15  and  C_16
REMARK   12  A    between atoms: C_16  and  C_17
REMARK   13  A    between atoms: C_16  and  C_18
REMARK   14  A    between atoms: C_16  and  C_19
REMARK   15  A    between atoms: N_24  and  C_25
REMARK   16  A    between atoms: C_28  and  C_29
REMARK   17  A    between atoms: C_29  and  O_31
REMARK                            x       y       z     vdW  Elec       q    Type
REMARK                         _______ _______ _______ _____ _____    ______ ____
ROOT
ATOM      1  C   UNL     1       3.001   7.731  18.069  0.00  0.00    +0.000 C 
ENDROOT
BRANCH   1   4
ATOM      2  C   UNL     1       5.102   6.703  17.242  0.00  0.00    +0.000 C 
ATOM      3  O   UNL     1       5.471   6.465  18.394  0.00  0.00    +0.000 OA
ATOM      4  N   UNL     1       3.890   7.283  16.976  0.00  0.00    +0.000 N 
ATOM      5  H   UNL     1       3.638   7.484  16.014  0.00  0.00    +0.000 HD
BRANCH   2   6
ATOM      6  O   UNL     1       5.859   6.473  16.136  0.00  0.00    +0.000 OA
BRANCH   6   8
ATOM      7  C   UNL     1       5.028   4.163  15.747  0.00  0.00    +0.000 C 
ATOM      8  C   UNL     1       6.246   5.102  15.791  0.00  0.00    +0.000 C 
ATOM      9  C   UNL     1       7.323   4.554  16.743  0.00  0.00    +0.000 C 
ATOM     10  C   UNL     1       6.851   5.130  14.372  0.00  0.00    +0.000 C 
ENDBRANCH   6   8
ENDBRANCH   2   6
ENDBRANCH   1   4
BRANCH   1  11
ATOM     11  C   UNL     1       2.513   6.609  19.032  0.00  0.00    +0.000 C 
ATOM     12  O   UNL     1       2.206   6.831  20.200  0.00  0.00    +0.000 OA
ATOM     13  N   UNL     1       2.438   5.338  18.459  0.00  0.00    +0.000 N 
ATOM     14  H   UNL     1       2.659   5.227  17.477  0.00  0.00    +0.000 HD
BRANCH  13  15
ATOM     15  C   UNL     1       2.042   4.144  19.199  0.00  0.00    +0.000 C 
ATOM     16  C   UNL     1       1.772   2.955  18.277  0.00  0.00    +0.000 C 
ATOM     17  C   UNL     1       3.121   2.269  18.057  0.00  0.00    +0.000 C 
ATOM     18  C   UNL     1       4.040   2.732  19.199  0.00  0.00    +0.000 C 
ATOM     19  C   UNL     1       3.159   3.612  20.097  0.00  0.00    +0.000 C 
BRANCH  18  20
ATOM     20  C   UNL     1       4.662   1.597  19.984  0.00  0.00    +0.000 C 
ATOM     21  O   UNL     1       5.005   1.654  21.158  0.00  0.00    +0.000 OA
BRANCH  20  22
ATOM     22  O   UNL     1       4.785   0.459  19.262  0.00  0.00    +0.000 OA
ATOM     23  H   UNL     1       4.493  -0.351  19.721  0.00  0.00    +0.000 HD
ENDBRANCH  20  22
ENDBRANCH  18  20
ENDBRANCH  13  15
ENDBRANCH   1  11
BRANCH   1  24
ATOM     24  C   UNL     1       1.780   8.528  17.562  0.00  0.00    +0.000 C 
BRANCH  24  25
ATOM     25  C   UNL     1       1.528   9.831  18.275  0.00  0.00    +0.000 A 
ATOM     26  C   UNL     1       0.692   9.943  19.391  0.00  0.00    +0.000 A 
ATOM     27  C   UNL     1       0.642  11.139  20.122  0.00  0.00    +0.000 A 
ATOM     28  C   UNL     1       1.415  12.233  19.729  0.00  0.00    +0.000 A 
ATOM     29  C   UNL     1       2.094  12.160  18.521  0.00  0.00    +0.000 A 
ATOM     30  C   UNL     1       2.192  10.966  17.827  0.00  0.00    +0.000 A 
BRANCH  28  31
ATOM     31  O   UNL     1       1.457  13.317  20.562  0.00  0.00    +0.000 OA
BRANCH  31  32
ATOM     32  C   UNL     1       0.866  14.568  20.112  0.00  0.00    +0.000 C 
ATOM     33  C   UNL     1       0.511  15.502  21.280  0.00  0.00    +0.000 C 
ATOM     34  C   UNL     1       1.965  15.285  19.299  0.00  0.00    +0.000 C 
ATOM     35  C   UNL     1      -0.328  14.367  19.159  0.00  0.00    +0.000 C 
ENDBRANCH  31  32
ENDBRANCH  28  31
ENDBRANCH  24  25
ENDBRANCH   1  24
TORSDOF 11
ENDMDL
MODEL 6
REMARK VINA RESULT:      -7.1      3.237     10.249
REMARK  Name = 
REMARK  17 active torsions:
REMARK  status: ('A' for Active; 'I' for Inactive)
REMARK    1  A    between atoms: C_1  and  C_2
REMARK    2  A    between atoms: C_2  and  C_3
REMARK    3  A    between atoms: C_2  and  C_4
REMARK    4  A    between atoms: C_2  and  O_5
REMARK    5  A    between atoms: O_5  and  C_6
REMARK    6  A    between atoms: N_8  and  C_9
REMARK    7  A    between atoms: C_9  and  C_10
REMARK    8  A    between atoms: C_9  and  C_22
REMARK    9  A    between atoms: C_10  and  C_11
REMARK   10  A    between atoms: C_14  and  O_15
REMARK   11  A    between atoms: O_15  and  C_16
REMARK   12  A    between atoms: C_16  and  C_17
REMARK   13  A    between atoms: C_16  and  C_18
REMARK   14  A    between atoms: C_16  and  C_19
REMARK   15  A    between atoms: N_24  and  C_25
REMARK   16  A    between atoms: C_28  and  C_29
REMARK   17  A    between atoms: C_29  and  O_31
REMARK                            x       y       z     vdW  Elec       q    Type
REMARK                         _______ _______ _______ _____ _____    ______ ____
ROOT
ATOM      1  C   UNL     1       3.103   7.194  18.144  0.00  0.00    +0.000 C 
ENDROOT
BRANCH   1   4
ATOM      2  C   UNL     1       5.261   6.786  16.990  0.00  0.00    +0.000 C 
ATOM      3  O   UNL     1       5.891   7.193  17.969  0.00  0.00    +0.000 OA
ATOM      4  N   UNL     1       3.894   6.709  16.993  0.00  0.00    +0.000 N 
ATOM      5  H   UNL     1       3.413   6.393  16.157  0.00  0.00    +0.000 HD
BRANCH   2   6
ATOM      6  O   UNL     1       5.832   6.429  15.808  0.00  0.00    +0.000 OA
BRANCH   6   8
ATOM      7  C   UNL     1       6.831   4.837  14.181  0.00  0.00    +0.000 C 
ATOM      8  C   UNL     1       6.228   5.035  15.583  0.00  0.00    +0.000 C 
ATOM      9  C   UNL     1       5.059   4.063  15.817  0.00  0.00    +0.000 C 
ATOM     10  C   UNL     1       7.330   4.693  16.607  0.00  0.00    +0.000 C 
ENDBRANCH   6   8
ENDBRANCH   2   6
ENDBRANCH   1   4
BRANCH   1  11
ATOM     11  C   UNL     1       2.635   6.092  19.141  0.00  0.00    +0.000 C 
ATOM     12  O   UNL     1       2.253   6.353  20.279  0.00  0.00    +0.000 OA
ATOM     13  N   UNL     1       2.670   4.792  18.633  0.00  0.00    +0.000 N 
ATOM     14  H   UNL     1       2.949   4.647  17.671  0.00  0.00    +0.000 HD
BRANCH  13  15
ATOM     15  C   UNL     1       2.310   3.614  19.416  0.00  0.00    +0.000 C 
ATOM     16  C   UNL     1       2.136   2.371  18.543  0.00  0.00    +0.000 C 
ATOM     17  C   UNL     1       3.526   1.749  18.401  0.00  0.00    +0.000 C 
ATOM     18  C   UNL     1       4.378   2.313  19.551  0.00  0.00    +0.000 C 
ATOM     19  C   UNL     1       3.420   3.184  20.376  0.00  0.00    +0.000 C 
BRANCH  18  20
ATOM     20  C   UNL     1       5.029   1.250  20.410  0.00  0.00    +0.000 C 
ATOM     21  O   UNL     1       5.299   1.368  21.598  0.00  0.00    +0.000 OA
BRANCH  20  22
ATOM     22  O   UNL     1       5.272   0.101  19.737  0.00  0.00    +0.000 OA
ATOM     23  H   UNL     1       4.764  -0.671  20.050  0.00  0.00    +0.000 HD
ENDBRANCH  20  22
ENDBRANCH  18  20
ENDBRANCH  13  15
ENDBRANCH   1  11
BRANCH   1  24
ATOM     24  C   UNL     1       1.885   8.044  17.722  0.00  0.00    +0.000 C 
BRANCH  24  25
ATOM     25  C   UNL     1       1.766   9.376  18.416  0.00  0.00    +0.000 A 
ATOM     26  C   UNL     1       2.263  10.567  17.875  0.00  0.00    +0.000 A 
ATOM     27  C   UNL     1       1.962  11.798  18.476  0.00  0.00    +0.000 A 
ATOM     28  C   UNL     1       1.176  11.841  19.629  0.00  0.00    +0.000 A 
ATOM     29  C   UNL     1       0.848  10.644  20.247  0.00  0.00    +0.000 A 
ATOM     30  C   UNL     1       1.094   9.429  19.630  0.00  0.00    +0.000 A 
BRANCH  28  31
ATOM     31  O   UNL     1       0.776  13.068  20.083  0.00  0.00    +0.000 OA
BRANCH  31  32
ATOM     32  C   UNL     1      -0.475  13.622  19.588  0.00  0.00    +0.000 C 
ATOM     33  C   UNL     1      -1.427  14.028  20.726  0.00  0.00    +0.000 C 
ATOM     34  C   UNL     1      -0.097  14.925  18.852  0.00  0.00    +0.000 C 
ATOM     35  C   UNL     1      -1.173  12.717  18.555  0.00  0.00    +0.000 C 
ENDBRANCH  31  32
ENDBRANCH  28  31
ENDBRANCH  24  25
ENDBRANCH   1  24
TORSDOF 11
ENDMDL
MODEL 7
REMARK VINA RESULT:      -7.1      0.797      1.455
REMARK  Name = 
REMARK  17 active torsions:
REMARK  status: ('A' for Active; 'I' for Inactive)
REMARK    1  A    between atoms: C_1  and  C_2
REMARK    2  A    between atoms: C_2  and  C_3
REMARK    3  A    between atoms: C_2  and  C_4
REMARK    4  A    between atoms: C_2  and  O_5
REMARK    5  A    between atoms: O_5  and  C_6
REMARK    6  A    between atoms: N_8  and  C_9
REMARK    7  A    between atoms: C_9  and  C_10
REMARK    8  A    between atoms: C_9  and  C_22
REMARK    9  A    between atoms: C_10  and  C_11
REMARK   10  A    between atoms: C_14  and  O_15
REMARK   11  A    between atoms: O_15  and  C_16
REMARK   12  A    between atoms: C_16  and  C_17
REMARK   13  A    between atoms: C_16  and  C_18
REMARK   14  A    between atoms: C_16  and  C_19
REMARK   15  A    between atoms: N_24  and  C_25
REMARK   16  A    between atoms: C_28  and  C_29
REMARK   17  A    between atoms: C_29  and  O_31
REMARK                            x       y       z     vdW  Elec       q    Type
REMARK                         _______ _______ _______ _____ _____    ______ ____
ROOT
ATOM      1  C   UNL     1       0.331  10.829  19.868  0.00  0.00    +0.000 C 
ENDROOT
BRANCH   1   4
ATOM      2  C   UNL     1      -1.436  11.921  18.513  0.00  0.00    +0.000 C 
ATOM      3  O   UNL     1      -0.617  12.703  18.025  0.00  0.00    +0.000 OA
ATOM      4  N   UNL     1      -1.064  10.941  19.394  0.00  0.00    +0.000 N 
ATOM      5  H   UNL     1      -1.775  10.335  19.791  0.00  0.00    +0.000 HD
BRANCH   2   6
ATOM      6  O   UNL     1      -2.776  11.976  18.282  0.00  0.00    +0.000 OA
BRANCH   6   8
ATOM      7  C   UNL     1      -3.436   9.623  17.824  0.00  0.00    +0.000 C 
ATOM      8  C   UNL     1      -3.383  11.070  17.302  0.00  0.00    +0.000 C 
ATOM      9  C   UNL     1      -2.666  11.133  15.942  0.00  0.00    +0.000 C 
ATOM     10  C   UNL     1      -4.839  11.529  17.081  0.00  0.00    +0.000 C 
ENDBRANCH   6   8
ENDBRANCH   2   6
ENDBRANCH   1   4
BRANCH   1  11
ATOM     11  C   UNL     1       0.933  12.130  20.479  0.00  0.00    +0.000 C 
ATOM     12  O   UNL     1       0.607  12.549  21.587  0.00  0.00    +0.000 OA
ATOM     13  N   UNL     1       1.879  12.770  19.677  0.00  0.00    +0.000 N 
ATOM     14  H   UNL     1       2.140  12.349  18.794  0.00  0.00    +0.000 HD
BRANCH  13  15
ATOM     15  C   UNL     1       2.531  14.022  20.046  0.00  0.00    +0.000 C 
ATOM     16  C   UNL     1       3.702  14.358  19.122  0.00  0.00    +0.000 C 
ATOM     17  C   UNL     1       3.106  15.117  17.935  0.00  0.00    +0.000 C 
ATOM     18  C   UNL     1       1.734  15.640  18.393  0.00  0.00    +0.000 C 
ATOM     19  C   UNL     1       1.619  15.235  19.870  0.00  0.00    +0.000 C 
BRANCH  18  20
ATOM     20  C   UNL     1       1.559  17.133  18.220  0.00  0.00    +0.000 C 
ATOM     21  O   UNL     1       0.924  17.672  17.322  0.00  0.00    +0.000 OA
BRANCH  20  22
ATOM     22  O   UNL     1       2.163  17.854  19.194  0.00  0.00    +0.000 OA
ATOM     23  H   UNL     1       1.662  18.636  19.494  0.00  0.00    +0.000 HD
ENDBRANCH  20  22
ENDBRANCH  18  20
ENDBRANCH  13  15
ENDBRANCH   1  11
BRANCH   1  24
ATOM     24  C   UNL     1       1.293  10.288  18.787  0.00  0.00    +0.000 C 
BRANCH  24  25
ATOM     25  C   UNL     1       1.681   8.842  18.945  0.00  0.00    +0.000 A 
ATOM     26  C   UNL     1       2.295   8.099  17.931  0.00  0.00    +0.000 A 
ATOM     27  C   UNL     1       2.799   6.817  18.198  0.00  0.00    +0.000 A 
ATOM     28  C   UNL     1       2.676   6.268  19.476  0.00  0.00    +0.000 A 
ATOM     29  C   UNL     1       1.908   6.943  20.412  0.00  0.00    +0.000 A 
ATOM     30  C   UNL     1       1.457   8.230  20.173  0.00  0.00    +0.000 A 
BRANCH  28  31
ATOM     31  O   UNL     1       3.324   5.090  19.728  0.00  0.00    +0.000 OA
BRANCH  31  32
ATOM     32  C   UNL     1       2.543   3.864  19.800  0.00  0.00    +0.000 C 
ATOM     33  C   UNL     1       1.463   3.792  18.708  0.00  0.00    +0.000 C 
ATOM     34  C   UNL     1       3.533   2.716  19.510  0.00  0.00    +0.000 C 
ATOM     35  C   UNL     1       1.957   3.599  21.201  0.00  0.00    +0.000 C 
ENDBRANCH  31  32
ENDBRANCH  28  31
ENDBRANCH  24  25
ENDBRANCH   1  24
TORSDOF 11
ENDMDL
MODEL 8
REMARK VINA RESULT:      -7.1      1.156      1.521
REMARK  Name = 
REMARK  17 active torsions:
REMARK  status: ('A' for Active; 'I' for Inactive)
REMARK    1  A    between atoms: C_1  and  C_2
REMARK    2  A    between atoms: C_2  and  C_3
REMARK    3  A    between atoms: C_2  and  C_4
REMARK    4  A    between atoms: C_2  and  O_5
REMARK    5  A    between atoms: O_5  and  C_6
REMARK    6  A    between atoms: N_8  and  C_9
REMARK    7  A    between atoms: C_9  and  C_10
REMARK    8  A    between atoms: C_9  and  C_22
REMARK    9  A    between atoms: C_10  and  C_11
REMARK   10  A    between atoms: C_14  and  O_15
REMARK   11  A    between atoms: O_15  and  C_16
REMARK   12  A    between atoms: C_16  and  C_17
REMARK   13  A    between atoms: C_16  and  C_18
REMARK   14  A    between atoms: C_16  and  C_19
REMARK   15  A    between atoms: N_24  and  C_25
REMARK   16  A    between atoms: C_28  and  C_29
REMARK   17  A    between atoms: C_29  and  O_31
REMARK                            x       y       z     vdW  Elec       q    Type
REMARK                         _______ _______ _______ _____ _____    ______ ____
ROOT
ATOM      1  C   UNL     1       0.191  10.423  19.674  0.00  0.00    +0.000 C 
ENDROOT
BRANCH   1   4
ATOM      2  C   UNL     1      -1.547  11.734  18.486  0.00  0.00    +0.000 C 
ATOM      3  O   UNL     1      -0.704  12.540  18.086  0.00  0.00    +0.000 OA
ATOM      4  N   UNL     1      -1.203  10.641  19.236  0.00  0.00    +0.000 N 
ATOM      5  H   UNL     1      -1.933  10.018  19.567  0.00  0.00    +0.000 HD
BRANCH   2   6
ATOM      6  O   UNL     1      -2.886  11.865  18.282  0.00  0.00    +0.000 OA
BRANCH   6   8
ATOM      7  C   UNL     1      -4.976  11.540  16.976  0.00  0.00    +0.000 C 
ATOM      8  C   UNL     1      -3.552  11.037  17.272  0.00  0.00    +0.000 C 
ATOM      9  C   UNL     1      -3.569   9.551  17.670  0.00  0.00    +0.000 C 
ATOM     10  C   UNL     1      -2.744  11.158  15.963  0.00  0.00    +0.000 C 
ENDBRANCH   6   8
ENDBRANCH   2   6
ENDBRANCH   1   4
BRANCH   1  11
ATOM     11  C   UNL     1       0.849  11.620  20.423  0.00  0.00    +0.000 C 
ATOM     12  O   UNL     1       0.691  11.811  21.626  0.00  0.00    +0.000 OA
ATOM     13  N   UNL     1       1.641  12.446  19.623  0.00  0.00    +0.000 N 
ATOM     14  H   UNL     1       1.772  12.208  18.648  0.00  0.00    +0.000 HD
BRANCH  13  15
ATOM     15  C   UNL     1       2.313  13.642  20.121  0.00  0.00    +0.000 C 
ATOM     16  C   UNL     1       3.483  14.062  19.229  0.00  0.00    +0.000 C 
ATOM     17  C   UNL     1       2.889  14.952  18.136  0.00  0.00    +0.000 C 
ATOM     18  C   UNL     1       1.527  15.439  18.658  0.00  0.00    +0.000 C 
ATOM     19  C   UNL     1       1.416  14.879  20.084  0.00  0.00    +0.000 C 
BRANCH  18  20
ATOM     20  C   UNL     1       1.370  16.945  18.648  0.00  0.00    +0.000 C 
ATOM     21  O   UNL     1       0.435  17.562  19.141  0.00  0.00    +0.000 OA
BRANCH  20  22
ATOM     22  O   UNL     1       2.405  17.581  18.050  0.00  0.00    +0.000 OA
ATOM     23  H   UNL     1       2.163  18.396  17.573  0.00  0.00    +0.000 HD
ENDBRANCH  20  22
ENDBRANCH  18  20
ENDBRANCH  13  15
ENDBRANCH   1  11
BRANCH   1  24
ATOM     24  C   UNL     1       1.120   9.976  18.523  0.00  0.00    +0.000 C 
BRANCH  24  25
ATOM     25  C   UNL     1       1.888   8.706  18.781  0.00  0.00    +0.000 A 
ATOM     26  C   UNL     1       1.741   7.946  19.947  0.00  0.00    +0.000 A 
ATOM     27  C   UNL     1       2.342   6.683  20.050  0.00  0.00    +0.000 A 
ATOM     28  C   UNL     1       3.106   6.182  18.994  0.00  0.00    +0.000 A 
ATOM     29  C   UNL     1       3.387   7.024  17.928  0.00  0.00    +0.000 A 
ATOM     30  C   UNL     1       2.753   8.247  17.795  0.00  0.00    +0.000 A 
BRANCH  28  31
ATOM     31  O   UNL     1       3.534   4.886  19.075  0.00  0.00    +0.000 OA
BRANCH  31  32
ATOM     32  C   UNL     1       3.002   3.914  18.131  0.00  0.00    +0.000 C 
ATOM     33  C   UNL     1       3.915   3.726  16.908  0.00  0.00    +0.000 C 
ATOM     34  C   UNL     1       2.991   2.563  18.878  0.00  0.00    +0.000 C 
ATOM     35  C   UNL     1       1.546   4.202  17.718  0.00  0.00    +0.000 C 
ENDBRANCH  31  32
ENDBRANCH  28  31
ENDBRANCH  24  25
ENDBRANCH   1  24
TORSDOF 11
ENDMDL
MODEL 9
REMARK VINA RESULT:      -7.1      3.565      9.867
REMARK  Name = 
REMARK  17 active torsions:
REMARK  status: ('A' for Active; 'I' for Inactive)
REMARK    1  A    between atoms: C_1  and  C_2
REMARK    2  A    between atoms: C_2  and  C_3
REMARK    3  A    between atoms: C_2  and  C_4
REMARK    4  A    between atoms: C_2  and  O_5
REMARK    5  A    between atoms: O_5  and  C_6
REMARK    6  A    between atoms: N_8  and  C_9
REMARK    7  A    between atoms: C_9  and  C_10
REMARK    8  A    between atoms: C_9  and  C_22
REMARK    9  A    between atoms: C_10  and  C_11
REMARK   10  A    between atoms: C_14  and  O_15
REMARK   11  A    between atoms: O_15  and  C_16
REMARK   12  A    between atoms: C_16  and  C_17
REMARK   13  A    between atoms: C_16  and  C_18
REMARK   14  A    between atoms: C_16  and  C_19
REMARK   15  A    between atoms: N_24  and  C_25
REMARK   16  A    between atoms: C_28  and  C_29
REMARK   17  A    between atoms: C_29  and  O_31
REMARK                            x       y       z     vdW  Elec       q    Type
REMARK                         _______ _______ _______ _____ _____    ______ ____
ROOT
ATOM      1  C   UNL     1       2.924   7.897  18.027  0.00  0.00    +0.000 C 
ENDROOT
BRANCH   1   4
ATOM      2  C   UNL     1       4.987   6.743  17.273  0.00  0.00    +0.000 C 
ATOM      3  O   UNL     1       5.232   6.374  18.423  0.00  0.00    +0.000 OA
ATOM      4  N   UNL     1       3.860   7.459  16.969  0.00  0.00    +0.000 N 
ATOM      5  H   UNL     1       3.709   7.766  16.013  0.00  0.00    +0.000 HD
BRANCH   2   6
ATOM      6  O   UNL     1       5.812   6.537  16.212  0.00  0.00    +0.000 OA
BRANCH   6   8
ATOM      7  C   UNL     1       5.038   4.216  15.768  0.00  0.00    +0.000 C 
ATOM      8  C   UNL     1       6.238   5.174  15.875  0.00  0.00    +0.000 C 
ATOM      9  C   UNL     1       7.278   4.636  16.873  0.00  0.00    +0.000 C 
ATOM     10  C   UNL     1       6.908   5.224  14.487  0.00  0.00    +0.000 C 
ENDBRANCH   6   8
ENDBRANCH   2   6
ENDBRANCH   1   4
BRANCH   1  11
ATOM     11  C   UNL     1       2.446   6.777  18.998  0.00  0.00    +0.000 C 
ATOM     12  O   UNL     1       2.170   6.998  20.174  0.00  0.00    +0.000 OA
ATOM     13  N   UNL     1       2.343   5.509  18.422  0.00  0.00    +0.000 N 
ATOM     14  H   UNL     1       2.538   5.399  17.435  0.00  0.00    +0.000 HD
BRANCH  13  15
ATOM     15  C   UNL     1       1.951   4.317  19.168  0.00  0.00    +0.000 C 
ATOM     16  C   UNL     1       1.629   3.139  18.247  0.00  0.00    +0.000 C 
ATOM     17  C   UNL     1       2.958   2.431  17.977  0.00  0.00    +0.000 C 
ATOM     18  C   UNL     1       3.923   2.871  19.091  0.00  0.00    +0.000 C 
ATOM     19  C   UNL     1       3.087   3.759  20.024  0.00  0.00    +0.000 C 
BRANCH  18  20
ATOM     20  C   UNL     1       4.550   1.720  19.848  0.00  0.00    +0.000 C 
ATOM     21  O   UNL     1       4.926   1.760  21.012  0.00  0.00    +0.000 OA
BRANCH  20  22
ATOM     22  O   UNL     1       4.639   0.588  19.111  0.00  0.00    +0.000 OA
ATOM     23  H   UNL     1       3.809   0.317  18.675  0.00  0.00    +0.000 HD
ENDBRANCH  20  22
ENDBRANCH  18  20
ENDBRANCH  13  15
ENDBRANCH   1  11
BRANCH   1  24
ATOM     24  C   UNL     1       1.691   8.641  17.469  0.00  0.00    +0.000 C 
BRANCH  24  25
ATOM     25  C   UNL     1       1.029   9.590  18.434  0.00  0.00    +0.000 A 
ATOM     26  C   UNL     1       1.738  10.329  19.388  0.00  0.00    +0.000 A 
ATOM     27  C   UNL     1       1.093  11.329  20.131  0.00  0.00    +0.000 A 
ATOM     28  C   UNL     1      -0.265  11.582  19.934  0.00  0.00    +0.000 A 
ATOM     29  C   UNL     1      -0.985  10.721  19.119  0.00  0.00    +0.000 A 
ATOM     30  C   UNL     1      -0.345   9.770  18.342  0.00  0.00    +0.000 A 
BRANCH  28  31
ATOM     31  O   UNL     1      -0.809  12.670  20.560  0.00  0.00    +0.000 OA
BRANCH  31  32
ATOM     32  C   UNL     1      -1.329  12.512  21.910  0.00  0.00    +0.000 C 
ATOM     33  C   UNL     1      -0.929  13.677  22.832  0.00  0.00    +0.000 C 
ATOM     34  C   UNL     1      -2.866  12.569  21.779  0.00  0.00    +0.000 C 
ATOM     35  C   UNL     1      -0.989  11.146  22.535  0.00  0.00    +0.000 C 
ENDBRANCH  31  32
ENDBRANCH  28  31
ENDBRANCH  24  25
ENDBRANCH   1  24
TORSDOF 11
ENDMDL
