MODEL 1
REMARK VINA RESULT:      -8.1      0.000      0.000
REMARK  Name = 
REMARK  11 active torsions:
REMARK  status: ('A' for Active; 'I' for Inactive)
REMARK    1  A    between atoms: C_1  and  O_2
REMARK    2  A    between atoms: O_2  and  C_3
REMARK    3  A    between atoms: N_10  and  C_11
REMARK    4  A    between atoms: C_20  and  O_21
REMARK    5  A    between atoms: O_21  and  C_22
REMARK    6  A    between atoms: C_22  and  C_23
REMARK    7  A    between atoms: C_23  and  C_24
REMARK    8  A    between atoms: C_24  and  C_25
REMARK    9  A    between atoms: C_25  and  C_26
REMARK   10  A    between atoms: C_26  and  C_27
REMARK   11  A    between atoms: N_29  and  O_30
REMARK                            x       y       z     vdW  Elec       q    Type
REMARK                         _______ _______ _______ _____ _____    ______ ____
ROOT
ATOM      1  C   UNL     1       5.491   4.100  16.508  0.00  0.00    +0.000 A 
ATOM      2  C   UNL     1       4.316   3.443  16.891  0.00  0.00    +0.000 A 
ATOM      3  C   UNL     1       3.456   3.970  17.829  0.00  0.00    +0.000 A 
ATOM      4  N   UNL     1       2.303   3.328  18.041  0.00  0.00    +0.000 NA
ATOM      5  C   UNL     1       1.437   3.920  18.863  0.00  0.00    +0.000 A 
ATOM      6  N   UNL     1       1.616   5.089  19.471  0.00  0.00    +0.000 NA
ATOM      7  C   UNL     1       2.787   5.726  19.258  0.00  0.00    +0.000 A 
ATOM      8  N   UNL     1       2.929   7.045  19.759  0.00  0.00    +0.000 N 
ATOM      9  C   UNL     1       3.797   5.172  18.459  0.00  0.00    +0.000 A 
ATOM     10  C   UNL     1       5.057   5.760  18.199  0.00  0.00    +0.000 A 
ATOM     11  C   UNL     1       5.898   5.241  17.213  0.00  0.00    +0.000 A 
ATOM     12  H   UNL     1       3.716   7.117  20.395  0.00  0.00    +0.000 HD
ENDROOT
BRANCH   8  13
ATOM     13  C   UNL     1       1.834   7.862  20.129  0.00  0.00    +0.000 A 
ATOM     14  C   UNL     1       1.165   7.622  21.343  0.00  0.00    +0.000 A 
ATOM     15  C   UNL     1       0.154   8.471  21.795  0.00  0.00    +0.000 A 
ATOM     16  C   UNL     1      -0.218   9.567  21.026  0.00  0.00    +0.000 A 
ATOM     17  C   UNL     1       0.390   9.791  19.789  0.00  0.00    +0.000 A 
ATOM     18  C   UNL     1       1.400   8.934  19.338  0.00  0.00    +0.000 A 
ATOM     19 BR   UNL     1       2.188   9.285  17.645  0.00  0.00    +0.000 Br
ENDBRANCH   8  13
BRANCH   1  21
ATOM     20  C   UNL     1       6.329   4.450  14.324  0.00  0.00    +0.000 C 
ATOM     21  O   UNL     1       6.257   3.613  15.482  0.00  0.00    +0.000 OA
ENDBRANCH   1  21
BRANCH  11  22
ATOM     22  O   UNL     1       7.065   5.944  17.050  0.00  0.00    +0.000 OA
BRANCH  22  23
ATOM     23  C   UNL     1       6.945   7.342  17.294  0.00  0.00    +0.000 C 
BRANCH  23  24
ATOM     24  C   UNL     1       8.060   7.819  18.222  0.00  0.00    +0.000 C 
BRANCH  24  25
ATOM     25  C   UNL     1       8.191   9.336  18.087  0.00  0.00    +0.000 C 
BRANCH  25  26
ATOM     26  C   UNL     1       9.258   9.932  18.997  0.00  0.00    +0.000 C 
BRANCH  26  27
ATOM     27  C   UNL     1       9.149  11.457  19.013  0.00  0.00    +0.000 C 
BRANCH  27  28
ATOM     28  C   UNL     1      10.082  12.105  18.014  0.00  0.00    +0.000 C 
ATOM     29  O   UNL     1       9.747  12.955  17.196  0.00  0.00    +0.000 OA
ATOM     30  N   UNL     1      11.379  11.652  18.099  0.00  0.00    +0.000 N 
ATOM     31  H   UNL     1      11.623  10.755  18.509  0.00  0.00    +0.000 HD
BRANCH  30  32
ATOM     32  O   UNL     1      12.254  12.148  17.105  0.00  0.00    +0.000 OA
ATOM     33  H   UNL     1      12.372  11.365  16.522  0.00  0.00    +0.000 HD
ENDBRANCH  30  32
ENDBRANCH  27  28
ENDBRANCH  26  27
ENDBRANCH  25  26
ENDBRANCH  24  25
ENDBRANCH  23  24
ENDBRANCH  22  23
ENDBRANCH  11  22
TORSDOF 10
ENDMDL
MODEL 2
REMARK VINA RESULT:      -7.8      1.001      1.018
REMARK  Name = 
REMARK  11 active torsions:
REMARK  status: ('A' for Active; 'I' for Inactive)
REMARK    1  A    between atoms: C_1  and  O_2
REMARK    2  A    between atoms: O_2  and  C_3
REMARK    3  A    between atoms: N_10  and  C_11
REMARK    4  A    between atoms: C_20  and  O_21
REMARK    5  A    between atoms: O_21  and  C_22
REMARK    6  A    between atoms: C_22  and  C_23
REMARK    7  A    between atoms: C_23  and  C_24
REMARK    8  A    between atoms: C_24  and  C_25
REMARK    9  A    between atoms: C_25  and  C_26
REMARK   10  A    between atoms: C_26  and  C_27
REMARK   11  A    between atoms: N_29  and  O_30
REMARK                            x       y       z     vdW  Elec       q    Type
REMARK                         _______ _______ _______ _____ _____    ______ ____
ROOT
ATOM      1  C   UNL     1       5.863   4.430  16.596  0.00  0.00    +0.000 A 
ATOM      2  C   UNL     1       4.593   3.845  16.590  0.00  0.00    +0.000 A 
ATOM      3  C   UNL     1       3.588   4.266  17.435  0.00  0.00    +0.000 A 
ATOM      4  N   UNL     1       2.376   3.727  17.271  0.00  0.00    +0.000 NA
ATOM      5  C   UNL     1       1.397   4.234  18.018  0.00  0.00    +0.000 A 
ATOM      6  N   UNL     1       1.520   5.230  18.892  0.00  0.00    +0.000 NA
ATOM      7  C   UNL     1       2.749   5.762  19.055  0.00  0.00    +0.000 A 
ATOM      8  N   UNL     1       2.869   6.929  19.852  0.00  0.00    +0.000 N 
ATOM      9  C   UNL     1       3.867   5.271  18.367  0.00  0.00    +0.000 A 
ATOM     10  C   UNL     1       5.190   5.755  18.493  0.00  0.00    +0.000 A 
ATOM     11  C   UNL     1       6.186   5.354  17.600  0.00  0.00    +0.000 A 
ATOM     12  H   UNL     1       3.505   6.784  20.629  0.00  0.00    +0.000 HD
ENDROOT
BRANCH   8  13
ATOM     13  C   UNL     1       1.777   7.772  20.171  0.00  0.00    +0.000 A 
ATOM     14  C   UNL     1       1.065   7.567  21.366  0.00  0.00    +0.000 A 
ATOM     15  C   UNL     1       0.056   8.441  21.770  0.00  0.00    +0.000 A 
ATOM     16  C   UNL     1      -0.271   9.530  20.970  0.00  0.00    +0.000 A 
ATOM     17  C   UNL     1       0.381   9.719  19.750  0.00  0.00    +0.000 A 
ATOM     18  C   UNL     1       1.389   8.837  19.347  0.00  0.00    +0.000 A 
ATOM     19 BR   UNL     1       2.237   9.142  17.675  0.00  0.00    +0.000 Br
ENDBRANCH   8  13
BRANCH   1  21
ATOM     20  C   UNL     1       6.361   4.169  14.299  0.00  0.00    +0.000 C 
ATOM     21  O   UNL     1       6.797   4.077  15.658  0.00  0.00    +0.000 OA
ENDBRANCH   1  21
BRANCH  11  22
ATOM     22  O   UNL     1       7.405   5.941  17.826  0.00  0.00    +0.000 OA
BRANCH  22  23
ATOM     23  C   UNL     1       7.452   7.330  17.517  0.00  0.00    +0.000 C 
BRANCH  23  24
ATOM     24  C   UNL     1       8.342   8.069  18.515  0.00  0.00    +0.000 C 
BRANCH  24  25
ATOM     25  C   UNL     1       8.414   9.541  18.107  0.00  0.00    +0.000 C 
BRANCH  25  26
ATOM     26  C   UNL     1       9.460  10.330  18.884  0.00  0.00    +0.000 C 
BRANCH  26  27
ATOM     27  C   UNL     1       9.975  11.499  18.042  0.00  0.00    +0.000 C 
BRANCH  27  28
ATOM     28  C   UNL     1       9.945  12.805  18.804  0.00  0.00    +0.000 C 
ATOM     29  O   UNL     1       9.007  13.594  18.799  0.00  0.00    +0.000 OA
ATOM     30  N   UNL     1      11.090  13.045  19.529  0.00  0.00    +0.000 N 
ATOM     31  H   UNL     1      11.981  12.609  19.311  0.00  0.00    +0.000 HD
BRANCH  30  32
ATOM     32  O   UNL     1      11.146  14.309  20.161  0.00  0.00    +0.000 OA
ATOM     33  H   UNL     1      10.194  14.535  20.259  0.00  0.00    +0.000 HD
ENDBRANCH  30  32
ENDBRANCH  27  28
ENDBRANCH  26  27
ENDBRANCH  25  26
ENDBRANCH  24  25
ENDBRANCH  23  24
ENDBRANCH  22  23
ENDBRANCH  11  22
TORSDOF 10
ENDMDL
MODEL 3
REMARK VINA RESULT:      -7.7      1.021      1.295
REMARK  Name = 
REMARK  11 active torsions:
REMARK  status: ('A' for Active; 'I' for Inactive)
REMARK    1  A    between atoms: C_1  and  O_2
REMARK    2  A    between atoms: O_2  and  C_3
REMARK    3  A    between atoms: N_10  and  C_11
REMARK    4  A    between atoms: C_20  and  O_21
REMARK    5  A    between atoms: O_21  and  C_22
REMARK    6  A    between atoms: C_22  and  C_23
REMARK    7  A    between atoms: C_23  and  C_24
REMARK    8  A    between atoms: C_24  and  C_25
REMARK    9  A    between atoms: C_25  and  C_26
REMARK   10  A    between atoms: C_26  and  C_27
REMARK   11  A    between atoms: N_29  and  O_30
REMARK                            x       y       z     vdW  Elec       q    Type
REMARK                         _______ _______ _______ _____ _____    ______ ____
ROOT
ATOM      1  C   UNL     1       5.556   4.670  16.347  0.00  0.00    +0.000 A 
ATOM      2  C   UNL     1       4.540   3.866  16.876  0.00  0.00    +0.000 A 
ATOM      3  C   UNL     1       3.697   4.313  17.871  0.00  0.00    +0.000 A 
ATOM      4  N   UNL     1       2.685   3.516  18.227  0.00  0.00    +0.000 NA
ATOM      5  C   UNL     1       1.816   4.018  19.104  0.00  0.00    +0.000 A 
ATOM      6  N   UNL     1       1.864   5.236  19.637  0.00  0.00    +0.000 NA
ATOM      7  C   UNL     1       2.894   6.029  19.278  0.00  0.00    +0.000 A 
ATOM      8  N   UNL     1       2.872   7.383  19.701  0.00  0.00    +0.000 N 
ATOM      9  C   UNL     1       3.901   5.589  18.408  0.00  0.00    +0.000 A 
ATOM     10  C   UNL     1       5.023   6.345  17.995  0.00  0.00    +0.000 A 
ATOM     11  C   UNL     1       5.841   5.901  16.954  0.00  0.00    +0.000 A 
ATOM     12  H   UNL     1       3.693   7.613  20.250  0.00  0.00    +0.000 HD
ENDROOT
BRANCH   8  13
ATOM     13  C   UNL     1       1.700   8.044  20.141  0.00  0.00    +0.000 A 
ATOM     14  C   UNL     1       1.091   7.652  21.346  0.00  0.00    +0.000 A 
ATOM     15  C   UNL     1       0.001   8.349  21.870  0.00  0.00    +0.000 A 
ATOM     16  C   UNL     1      -0.509   9.443  21.181  0.00  0.00    +0.000 A 
ATOM     17  C   UNL     1       0.041   9.813  19.952  0.00  0.00    +0.000 A 
ATOM     18  C   UNL     1       1.131   9.108  19.430  0.00  0.00    +0.000 A 
ATOM     19 BR   UNL     1       1.835   9.655  17.752  0.00  0.00    +0.000 Br
ENDBRANCH   8  13
BRANCH   1  21
ATOM     20  C   UNL     1       5.580   4.181  14.033  0.00  0.00    +0.000 C 
ATOM     21  O   UNL     1       6.291   4.245  15.273  0.00  0.00    +0.000 OA
ENDBRANCH   1  21
BRANCH  11  22
ATOM     22  O   UNL     1       6.862   6.763  16.643  0.00  0.00    +0.000 OA
BRANCH  22  23
ATOM     23  C   UNL     1       7.599   7.228  17.769  0.00  0.00    +0.000 C 
BRANCH  23  24
ATOM     24  C   UNL     1       7.753   8.747  17.716  0.00  0.00    +0.000 C 
BRANCH  24  25
ATOM     25  C   UNL     1       9.012   9.136  18.491  0.00  0.00    +0.000 C 
BRANCH  25  26
ATOM     26  C   UNL     1       9.003  10.584  18.965  0.00  0.00    +0.000 C 
BRANCH  26  27
ATOM     27  C   UNL     1       9.990  11.416  18.145  0.00  0.00    +0.000 C 
BRANCH  27  28
ATOM     28  C   UNL     1       9.428  12.773  17.784  0.00  0.00    +0.000 C 
ATOM     29  O   UNL     1      10.039  13.832  17.889  0.00  0.00    +0.000 OA
ATOM     30  N   UNL     1       8.137  12.725  17.312  0.00  0.00    +0.000 N 
ATOM     31  H   UNL     1       7.505  11.955  17.512  0.00  0.00    +0.000 HD
BRANCH  30  32
ATOM     32  O   UNL     1       7.537  13.984  17.075  0.00  0.00    +0.000 OA
ATOM     33  H   UNL     1       6.608  13.828  17.356  0.00  0.00    +0.000 HD
ENDBRANCH  30  32
ENDBRANCH  27  28
ENDBRANCH  26  27
ENDBRANCH  25  26
ENDBRANCH  24  25
ENDBRANCH  23  24
ENDBRANCH  22  23
ENDBRANCH  11  22
TORSDOF 10
ENDMDL
MODEL 4
REMARK VINA RESULT:      -7.6      1.461      1.604
REMARK  Name = 
REMARK  11 active torsions:
REMARK  status: ('A' for Active; 'I' for Inactive)
REMARK    1  A    between atoms: C_1  and  O_2
REMARK    2  A    between atoms: O_2  and  C_3
REMARK    3  A    between atoms: N_10  and  C_11
REMARK    4  A    between atoms: C_20  and  O_21
REMARK    5  A    between atoms: O_21  and  C_22
REMARK    6  A    between atoms: C_22  and  C_23
REMARK    7  A    between atoms: C_23  and  C_24
REMARK    8  A    between atoms: C_24  and  C_25
REMARK    9  A    between atoms: C_25  and  C_26
REMARK   10  A    between atoms: C_26  and  C_27
REMARK   11  A    between atoms: N_29  and  O_30
REMARK                            x       y       z     vdW  Elec       q    Type
REMARK                         _______ _______ _______ _____ _____    ______ ____
ROOT
ATOM      1  C   UNL     1       5.219   4.210  16.807  0.00  0.00    +0.000 A 
ATOM      2  C   UNL     1       4.229   3.517  17.511  0.00  0.00    +0.000 A 
ATOM      3  C   UNL     1       3.461   4.123  18.482  0.00  0.00    +0.000 A 
ATOM      4  N   UNL     1       2.462   3.412  19.014  0.00  0.00    +0.000 NA
ATOM      5  C   UNL     1       1.661   4.057  19.862  0.00  0.00    +0.000 A 
ATOM      6  N   UNL     1       1.764   5.338  20.207  0.00  0.00    +0.000 NA
ATOM      7  C   UNL     1       2.781   6.045  19.671  0.00  0.00    +0.000 A 
ATOM      8  N   UNL     1       2.808   7.445  19.893  0.00  0.00    +0.000 N 
ATOM      9  C   UNL     1       3.720   5.458  18.813  0.00  0.00    +0.000 A 
ATOM     10  C   UNL     1       4.824   6.118  18.224  0.00  0.00    +0.000 A 
ATOM     11  C   UNL     1       5.563   5.508  17.209  0.00  0.00    +0.000 A 
ATOM     12  H   UNL     1       3.667   7.731  20.350  0.00  0.00    +0.000 HD
ENDROOT
BRANCH   8  13
ATOM     13  C   UNL     1       1.679   8.193  20.306  0.00  0.00    +0.000 A 
ATOM     14  C   UNL     1       1.202   8.065  21.623  0.00  0.00    +0.000 A 
ATOM     15  C   UNL     1       0.163   8.864  22.100  0.00  0.00    +0.000 A 
ATOM     16  C   UNL     1      -0.431   9.794  21.256  0.00  0.00    +0.000 A 
ATOM     17  C   UNL     1      -0.016   9.897  19.927  0.00  0.00    +0.000 A 
ATOM     18  C   UNL     1       1.024   9.091  19.452  0.00  0.00    +0.000 A 
ATOM     19 BR   UNL     1       1.544   9.271  17.634  0.00  0.00    +0.000 Br
ENDBRANCH   8  13
BRANCH   1  21
ATOM     20  C   UNL     1       5.560   4.136  14.468  0.00  0.00    +0.000 C 
ATOM     21  O   UNL     1       5.875   3.615  15.762  0.00  0.00    +0.000 OA
ENDBRANCH   1  21
BRANCH  11  22
ATOM     22  O   UNL     1       6.576   6.289  16.711  0.00  0.00    +0.000 OA
BRANCH  22  23
ATOM     23  C   UNL     1       7.467   6.793  17.701  0.00  0.00    +0.000 C 
BRANCH  23  24
ATOM     24  C   UNL     1       7.741   8.278  17.466  0.00  0.00    +0.000 C 
BRANCH  24  25
ATOM     25  C   UNL     1       8.621   8.797  18.603  0.00  0.00    +0.000 C 
BRANCH  25  26
ATOM     26  C   UNL     1       8.865  10.299  18.538  0.00  0.00    +0.000 C 
BRANCH  26  27
ATOM     27  C   UNL     1       9.971  10.699  19.516  0.00  0.00    +0.000 C 
BRANCH  27  28
ATOM     28  C   UNL     1       9.621  11.951  20.288  0.00  0.00    +0.000 C 
ATOM     29  O   UNL     1       9.372  13.039  19.779  0.00  0.00    +0.000 OA
ATOM     30  N   UNL     1       9.600  11.768  21.652  0.00  0.00    +0.000 N 
ATOM     31  H   UNL     1      10.100  11.014  22.113  0.00  0.00    +0.000 HD
BRANCH  30  32
ATOM     32  O   UNL     1       9.391  12.942  22.412  0.00  0.00    +0.000 OA
ATOM     33  H   UNL     1       8.415  12.943  22.529  0.00  0.00    +0.000 HD
ENDBRANCH  30  32
ENDBRANCH  27  28
ENDBRANCH  26  27
ENDBRANCH  25  26
ENDBRANCH  24  25
ENDBRANCH  23  24
ENDBRANCH  22  23
ENDBRANCH  11  22
TORSDOF 10
ENDMDL
MODEL 5
REMARK VINA RESULT:      -7.3      4.198      6.175
REMARK  Name = 
REMARK  11 active torsions:
REMARK  status: ('A' for Active; 'I' for Inactive)
REMARK    1  A    between atoms: C_1  and  O_2
REMARK    2  A    between atoms: O_2  and  C_3
REMARK    3  A    between atoms: N_10  and  C_11
REMARK    4  A    between atoms: C_20  and  O_21
REMARK    5  A    between atoms: O_21  and  C_22
REMARK    6  A    between atoms: C_22  and  C_23
REMARK    7  A    between atoms: C_23  and  C_24
REMARK    8  A    between atoms: C_24  and  C_25
REMARK    9  A    between atoms: C_25  and  C_26
REMARK   10  A    between atoms: C_26  and  C_27
REMARK   11  A    between atoms: N_29  and  O_30
REMARK                            x       y       z     vdW  Elec       q    Type
REMARK                         _______ _______ _______ _____ _____    ______ ____
ROOT
ATOM      1  C   UNL     1       3.704   5.235  18.708  0.00  0.00    +0.000 A 
ATOM      2  C   UNL     1       3.064   5.552  19.912  0.00  0.00    +0.000 A 
ATOM      3  C   UNL     1       2.358   6.724  20.079  0.00  0.00    +0.000 A 
ATOM      4  N   UNL     1       1.683   6.882  21.222  0.00  0.00    +0.000 NA
ATOM      5  C   UNL     1       0.915   7.966  21.311  0.00  0.00    +0.000 A 
ATOM      6  N   UNL     1       0.754   8.886  20.363  0.00  0.00    +0.000 NA
ATOM      7  C   UNL     1       1.446   8.722  19.217  0.00  0.00    +0.000 A 
ATOM      8  N   UNL     1       1.161   9.595  18.136  0.00  0.00    +0.000 N 
ATOM      9  C   UNL     1       2.330   7.651  19.032  0.00  0.00    +0.000 A 
ATOM     10  C   UNL     1       3.107   7.415  17.873  0.00  0.00    +0.000 A 
ATOM     11  C   UNL     1       3.779   6.204  17.698  0.00  0.00    +0.000 A 
ATOM     12  H   UNL     1       1.989  10.100  17.839  0.00  0.00    +0.000 HD
ENDROOT
BRANCH   8  13
ATOM     13  C   UNL     1      -0.025  10.363  18.044  0.00  0.00    +0.000 A 
ATOM     14  C   UNL     1      -1.170   9.808  17.447  0.00  0.00    +0.000 A 
ATOM     15  C   UNL     1      -2.388  10.489  17.436  0.00  0.00    +0.000 A 
ATOM     16  C   UNL     1      -2.473  11.752  18.009  0.00  0.00    +0.000 A 
ATOM     17  C   UNL     1      -1.335  12.349  18.555  0.00  0.00    +0.000 A 
ATOM     18  C   UNL     1      -0.115  11.663  18.559  0.00  0.00    +0.000 A 
ATOM     19 BR   UNL     1       1.400  12.528  19.311  0.00  0.00    +0.000 Br
ENDBRANCH   8  13
BRANCH   1  21
ATOM     20  C   UNL     1       3.749   2.956  19.340  0.00  0.00    +0.000 C 
ATOM     21  O   UNL     1       4.286   4.008  18.533  0.00  0.00    +0.000 OA
ENDBRANCH   1  21
BRANCH  11  22
ATOM     22  O   UNL     1       4.454   6.109  16.507  0.00  0.00    +0.000 OA
BRANCH  22  23
ATOM     23  C   UNL     1       5.834   6.453  16.589  0.00  0.00    +0.000 C 
BRANCH  23  24
ATOM     24  C   UNL     1       6.703   5.201  16.487  0.00  0.00    +0.000 C 
BRANCH  24  25
ATOM     25  C   UNL     1       6.147   4.311  15.375  0.00  0.00    +0.000 C 
BRANCH  25  26
ATOM     26  C   UNL     1       6.040   5.022  14.032  0.00  0.00    +0.000 C 
BRANCH  26  27
ATOM     27  C   UNL     1       6.848   4.274  12.970  0.00  0.00    +0.000 C 
BRANCH  27  28
ATOM     28  C   UNL     1       6.012   3.249  12.237  0.00  0.00    +0.000 C 
ATOM     29  O   UNL     1       4.812   3.360  12.010  0.00  0.00    +0.000 OA
ATOM     30  N   UNL     1       6.728   2.146  11.830  0.00  0.00    +0.000 N 
ATOM     31  H   UNL     1       7.603   1.867  12.265  0.00  0.00    +0.000 HD
BRANCH  30  32
ATOM     32  O   UNL     1       5.959   1.114  11.245  0.00  0.00    +0.000 OA
ATOM     33  H   UNL     1       5.094   1.214  11.703  0.00  0.00    +0.000 HD
ENDBRANCH  30  32
ENDBRANCH  27  28
ENDBRANCH  26  27
ENDBRANCH  25  26
ENDBRANCH  24  25
ENDBRANCH  23  24
ENDBRANCH  22  23
ENDBRANCH  11  22
TORSDOF 10
ENDMDL
MODEL 6
REMARK VINA RESULT:      -7.2      1.505      1.999
REMARK  Name = 
REMARK  11 active torsions:
REMARK  status: ('A' for Active; 'I' for Inactive)
REMARK    1  A    between atoms: C_1  and  O_2
REMARK    2  A    between atoms: O_2  and  C_3
REMARK    3  A    between atoms: N_10  and  C_11
REMARK    4  A    between atoms: C_20  and  O_21
REMARK    5  A    between atoms: O_21  and  C_22
REMARK    6  A    between atoms: C_22  and  C_23
REMARK    7  A    between atoms: C_23  and  C_24
REMARK    8  A    between atoms: C_24  and  C_25
REMARK    9  A    between atoms: C_25  and  C_26
REMARK   10  A    between atoms: C_26  and  C_27
REMARK   11  A    between atoms: N_29  and  O_30
REMARK                            x       y       z     vdW  Elec       q    Type
REMARK                         _______ _______ _______ _____ _____    ______ ____
ROOT
ATOM      1  C   UNL     1       6.176   5.047  16.390  0.00  0.00    +0.000 A 
ATOM      2  C   UNL     1       4.996   4.326  16.601  0.00  0.00    +0.000 A 
ATOM      3  C   UNL     1       3.931   4.854  17.298  0.00  0.00    +0.000 A 
ATOM      4  N   UNL     1       2.805   4.134  17.344  0.00  0.00    +0.000 NA
ATOM      5  C   UNL     1       1.754   4.715  17.920  0.00  0.00    +0.000 A 
ATOM      6  N   UNL     1       1.727   5.943  18.432  0.00  0.00    +0.000 NA
ATOM      7  C   UNL     1       2.870   6.658  18.388  0.00  0.00    +0.000 A 
ATOM      8  N   UNL     1       2.819   8.022  18.774  0.00  0.00    +0.000 N 
ATOM      9  C   UNL     1       4.055   6.129  17.860  0.00  0.00    +0.000 A 
ATOM     10  C   UNL     1       5.299   6.800  17.792  0.00  0.00    +0.000 A 
ATOM     11  C   UNL     1       6.354   6.274  17.044  0.00  0.00    +0.000 A 
ATOM     12  H   UNL     1       3.454   8.215  19.540  0.00  0.00    +0.000 HD
ENDROOT
BRANCH   8  13
ATOM     13  C   UNL     1       1.618   8.769  18.841  0.00  0.00    +0.000 A 
ATOM     14  C   UNL     1       1.045   9.276  17.662  0.00  0.00    +0.000 A 
ATOM     15  C   UNL     1      -0.192   9.921  17.673  0.00  0.00    +0.000 A 
ATOM     16  C   UNL     1      -0.869  10.086  18.875  0.00  0.00    +0.000 A 
ATOM     17  C   UNL     1      -0.292   9.645  20.068  0.00  0.00    +0.000 A 
ATOM     18  C   UNL     1       0.951   9.003  20.052  0.00  0.00    +0.000 A 
ATOM     19 BR   UNL     1       1.689   8.429  21.705  0.00  0.00    +0.000 Br
ENDBRANCH   8  13
BRANCH   1  21
ATOM     20  C   UNL     1       6.926   4.661  14.180  0.00  0.00    +0.000 C 
ATOM     21  O   UNL     1       7.164   4.544  15.586  0.00  0.00    +0.000 OA
ENDBRANCH   1  21
BRANCH  11  22
ATOM     22  O   UNL     1       7.480   7.060  17.041  0.00  0.00    +0.000 OA
BRANCH  22  23
ATOM     23  C   UNL     1       7.262   8.395  17.485  0.00  0.00    +0.000 C 
BRANCH  23  24
ATOM     24  C   UNL     1       8.505   8.931  18.195  0.00  0.00    +0.000 C 
BRANCH  24  25
ATOM     25  C   UNL     1       8.629  10.425  17.898  0.00  0.00    +0.000 C 
BRANCH  25  26
ATOM     26  C   UNL     1       9.755  11.101  18.671  0.00  0.00    +0.000 C 
BRANCH  26  27
ATOM     27  C   UNL     1      10.877  11.515  17.719  0.00  0.00    +0.000 C 
BRANCH  27  28
ATOM     28  C   UNL     1      10.742  12.955  17.274  0.00  0.00    +0.000 C 
ATOM     29  O   UNL     1      11.446  13.491  16.424  0.00  0.00    +0.000 OA
ATOM     30  N   UNL     1       9.734  13.636  17.916  0.00  0.00    +0.000 N 
ATOM     31  H   UNL     1       9.365  13.351  18.818  0.00  0.00    +0.000 HD
BRANCH  30  32
ATOM     32  O   UNL     1       9.654  15.015  17.612  0.00  0.00    +0.000 OA
ATOM     33  H   UNL     1      10.420  15.140  17.008  0.00  0.00    +0.000 HD
ENDBRANCH  30  32
ENDBRANCH  27  28
ENDBRANCH  26  27
ENDBRANCH  25  26
ENDBRANCH  24  25
ENDBRANCH  23  24
ENDBRANCH  22  23
ENDBRANCH  11  22
TORSDOF 10
ENDMDL
MODEL 7
REMARK VINA RESULT:      -7.1      5.063      9.173
REMARK  Name = 
REMARK  11 active torsions:
REMARK  status: ('A' for Active; 'I' for Inactive)
REMARK    1  A    between atoms: C_1  and  O_2
REMARK    2  A    between atoms: O_2  and  C_3
REMARK    3  A    between atoms: N_10  and  C_11
REMARK    4  A    between atoms: C_20  and  O_21
REMARK    5  A    between atoms: O_21  and  C_22
REMARK    6  A    between atoms: C_22  and  C_23
REMARK    7  A    between atoms: C_23  and  C_24
REMARK    8  A    between atoms: C_24  and  C_25
REMARK    9  A    between atoms: C_25  and  C_26
REMARK   10  A    between atoms: C_26  and  C_27
REMARK   11  A    between atoms: N_29  and  O_30
REMARK                            x       y       z     vdW  Elec       q    Type
REMARK                         _______ _______ _______ _____ _____    ______ ____
ROOT
ATOM      1  C   UNL     1       1.515   8.091  20.740  0.00  0.00    +0.000 A 
ATOM      2  C   UNL     1       1.716   6.727  20.979  0.00  0.00    +0.000 A 
ATOM      3  C   UNL     1       2.291   5.897  20.040  0.00  0.00    +0.000 A 
ATOM      4  N   UNL     1       2.550   4.637  20.405  0.00  0.00    +0.000 NA
ATOM      5  C   UNL     1       3.212   3.889  19.523  0.00  0.00    +0.000 A 
ATOM      6  N   UNL     1       3.643   4.291  18.330  0.00  0.00    +0.000 NA
ATOM      7  C   UNL     1       3.369   5.562  17.967  0.00  0.00    +0.000 A 
ATOM      8  N   UNL     1       3.962   6.059  16.779  0.00  0.00    +0.000 N 
ATOM      9  C   UNL     1       2.629   6.423  18.788  0.00  0.00    +0.000 A 
ATOM     10  C   UNL     1       2.280   7.759  18.479  0.00  0.00    +0.000 A 
ATOM     11  C   UNL     1       1.742   8.601  19.454  0.00  0.00    +0.000 A 
ATOM     12  H   UNL     1       3.260   6.372  16.118  0.00  0.00    +0.000 HD
ENDROOT
BRANCH   8  13
ATOM     13  C   UNL     1       5.087   5.463  16.160  0.00  0.00    +0.000 A 
ATOM     14  C   UNL     1       4.905   4.402  15.256  0.00  0.00    +0.000 A 
ATOM     15  C   UNL     1       5.976   3.862  14.543  0.00  0.00    +0.000 A 
ATOM     16  C   UNL     1       7.256   4.367  14.740  0.00  0.00    +0.000 A 
ATOM     17  C   UNL     1       7.470   5.379  15.678  0.00  0.00    +0.000 A 
ATOM     18  C   UNL     1       6.394   5.914  16.393  0.00  0.00    +0.000 A 
ATOM     19 BR   UNL     1       6.746   7.285  17.659  0.00  0.00    +0.000 Br
ENDBRANCH   8  13
BRANCH   1  21
ATOM     20  C   UNL     1      -0.305   8.718  22.114  0.00  0.00    +0.000 C 
ATOM     21  O   UNL     1       1.062   8.912  21.738  0.00  0.00    +0.000 OA
ENDBRANCH   1  21
BRANCH  11  22
ATOM     22  O   UNL     1       1.495   9.877  19.013  0.00  0.00    +0.000 OA
BRANCH  22  23
ATOM     23  C   UNL     1       0.375   9.987  18.141  0.00  0.00    +0.000 C 
BRANCH  23  24
ATOM     24  C   UNL     1      -0.885  10.334  18.932  0.00  0.00    +0.000 C 
BRANCH  24  25
ATOM     25  C   UNL     1      -1.922  10.911  17.968  0.00  0.00    +0.000 C 
BRANCH  25  26
ATOM     26  C   UNL     1      -2.508   9.871  17.021  0.00  0.00    +0.000 C 
BRANCH  26  27
ATOM     27  C   UNL     1      -3.672  10.470  16.231  0.00  0.00    +0.000 C 
BRANCH  27  28
ATOM     28  C   UNL     1      -4.672  11.165  17.128  0.00  0.00    +0.000 C 
ATOM     29  O   UNL     1      -5.232  10.642  18.085  0.00  0.00    +0.000 OA
ATOM     30  N   UNL     1      -4.909  12.474  16.777  0.00  0.00    +0.000 N 
ATOM     31  H   UNL     1      -4.735  12.834  15.843  0.00  0.00    +0.000 HD
BRANCH  30  32
ATOM     32  O   UNL     1      -5.923  13.121  17.520  0.00  0.00    +0.000 OA
ATOM     33  H   UNL     1      -6.723  12.949  16.974  0.00  0.00    +0.000 HD
ENDBRANCH  30  32
ENDBRANCH  27  28
ENDBRANCH  26  27
ENDBRANCH  25  26
ENDBRANCH  24  25
ENDBRANCH  23  24
ENDBRANCH  22  23
ENDBRANCH  11  22
TORSDOF 10
ENDMDL
MODEL 8
REMARK VINA RESULT:      -7.0      4.399      6.698
REMARK  Name = 
REMARK  11 active torsions:
REMARK  status: ('A' for Active; 'I' for Inactive)
REMARK    1  A    between atoms: C_1  and  O_2
REMARK    2  A    between atoms: O_2  and  C_3
REMARK    3  A    between atoms: N_10  and  C_11
REMARK    4  A    between atoms: C_20  and  O_21
REMARK    5  A    between atoms: O_21  and  C_22
REMARK    6  A    between atoms: C_22  and  C_23
REMARK    7  A    between atoms: C_23  and  C_24
REMARK    8  A    between atoms: C_24  and  C_25
REMARK    9  A    between atoms: C_25  and  C_26
REMARK   10  A    between atoms: C_26  and  C_27
REMARK   11  A    between atoms: N_29  and  O_30
REMARK                            x       y       z     vdW  Elec       q    Type
REMARK                         _______ _______ _______ _____ _____    ______ ____
ROOT
ATOM      1  C   UNL     1       3.652   5.009  18.444  0.00  0.00    +0.000 A 
ATOM      2  C   UNL     1       3.015   5.290  19.658  0.00  0.00    +0.000 A 
ATOM      3  C   UNL     1       2.408   6.503  19.902  0.00  0.00    +0.000 A 
ATOM      4  N   UNL     1       1.724   6.633  21.043  0.00  0.00    +0.000 NA
ATOM      5  C   UNL     1       1.049   7.771  21.203  0.00  0.00    +0.000 A 
ATOM      6  N   UNL     1       0.988   8.769  20.325  0.00  0.00    +0.000 NA
ATOM      7  C   UNL     1       1.689   8.632  19.180  0.00  0.00    +0.000 A 
ATOM      8  N   UNL     1       1.504   9.604  18.165  0.00  0.00    +0.000 N 
ATOM      9  C   UNL     1       2.483   7.504  18.928  0.00  0.00    +0.000 A 
ATOM     10  C   UNL     1       3.262   7.289  17.767  0.00  0.00    +0.000 A 
ATOM     11  C   UNL     1       3.831   6.040  17.511  0.00  0.00    +0.000 A 
ATOM     12  H   UNL     1       2.378  10.055  17.920  0.00  0.00    +0.000 HD
ENDROOT
BRANCH   8  13
ATOM     13  C   UNL     1       0.390  10.476  18.113  0.00  0.00    +0.000 A 
ATOM     14  C   UNL     1      -0.873   9.974  17.752  0.00  0.00    +0.000 A 
ATOM     15  C   UNL     1      -2.014  10.775  17.795  0.00  0.00    +0.000 A 
ATOM     16  C   UNL     1      -1.905  12.104  18.185  0.00  0.00    +0.000 A 
ATOM     17  C   UNL     1      -0.653  12.642  18.490  0.00  0.00    +0.000 A 
ATOM     18  C   UNL     1       0.490  11.835  18.440  0.00  0.00    +0.000 A 
ATOM     19 BR   UNL     1       2.166  12.622  18.861  0.00  0.00    +0.000 Br
ENDBRANCH   8  13
BRANCH   1  21
ATOM     20  C   UNL     1       4.692   3.069  19.310  0.00  0.00    +0.000 C 
ATOM     21  O   UNL     1       4.131   3.752  18.185  0.00  0.00    +0.000 OA
ENDBRANCH   1  21
BRANCH  11  22
ATOM     22  O   UNL     1       4.523   5.975  16.328  0.00  0.00    +0.000 OA
BRANCH  22  23
ATOM     23  C   UNL     1       5.642   5.095  16.351  0.00  0.00    +0.000 C 
BRANCH  23  24
ATOM     24  C   UNL     1       6.358   5.107  15.002  0.00  0.00    +0.000 C 
BRANCH  24  25
ATOM     25  C   UNL     1       5.857   3.923  14.174  0.00  0.00    +0.000 C 
BRANCH  25  26
ATOM     26  C   UNL     1       6.455   3.872  12.774  0.00  0.00    +0.000 C 
BRANCH  26  27
ATOM     27  C   UNL     1       5.646   2.924  11.887  0.00  0.00    +0.000 C 
BRANCH  27  28
ATOM     28  C   UNL     1       6.459   1.728  11.444  0.00  0.00    +0.000 C 
ATOM     29  O   UNL     1       7.593   1.787  10.981  0.00  0.00    +0.000 OA
ATOM     30  N   UNL     1       5.806   0.528  11.610  0.00  0.00    +0.000 N 
ATOM     31  H   UNL     1       4.795   0.456  11.671  0.00  0.00    +0.000 HD
BRANCH  30  32
ATOM     32  O   UNL     1       6.487  -0.602  11.100  0.00  0.00    +0.000 OA
ATOM     33  H   UNL     1       5.748  -1.152  10.756  0.00  0.00    +0.000 HD
ENDBRANCH  30  32
ENDBRANCH  27  28
ENDBRANCH  26  27
ENDBRANCH  25  26
ENDBRANCH  24  25
ENDBRANCH  23  24
ENDBRANCH  22  23
ENDBRANCH  11  22
TORSDOF 10
ENDMDL
MODEL 9
REMARK VINA RESULT:      -7.0      2.174      2.629
REMARK  Name = 
REMARK  11 active torsions:
REMARK  status: ('A' for Active; 'I' for Inactive)
REMARK    1  A    between atoms: C_1  and  O_2
REMARK    2  A    between atoms: O_2  and  C_3
REMARK    3  A    between atoms: N_10  and  C_11
REMARK    4  A    between atoms: C_20  and  O_21
REMARK    5  A    between atoms: O_21  and  C_22
REMARK    6  A    between atoms: C_22  and  C_23
REMARK    7  A    between atoms: C_23  and  C_24
REMARK    8  A    between atoms: C_24  and  C_25
REMARK    9  A    between atoms: C_25  and  C_26
REMARK   10  A    between atoms: C_26  and  C_27
REMARK   11  A    between atoms: N_29  and  O_30
REMARK                            x       y       z     vdW  Elec       q    Type
REMARK                         _______ _______ _______ _____ _____    ______ ____
ROOT
ATOM      1  C   UNL     1       6.207   5.442  16.205  0.00  0.00    +0.000 A 
ATOM      2  C   UNL     1       5.076   4.654  16.449  0.00  0.00    +0.000 A 
ATOM      3  C   UNL     1       4.008   5.116  17.187  0.00  0.00    +0.000 A 
ATOM      4  N   UNL     1       2.926   4.335  17.264  0.00  0.00    +0.000 NA
ATOM      5  C   UNL     1       1.864   4.852  17.881  0.00  0.00    +0.000 A 
ATOM      6  N   UNL     1       1.788   6.072  18.407  0.00  0.00    +0.000 NA
ATOM      7  C   UNL     1       2.888   6.849  18.332  0.00  0.00    +0.000 A 
ATOM      8  N   UNL     1       2.775   8.204  18.735  0.00  0.00    +0.000 N 
ATOM      9  C   UNL     1       4.081   6.391  17.758  0.00  0.00    +0.000 A 
ATOM     10  C   UNL     1       5.283   7.130  17.655  0.00  0.00    +0.000 A 
ATOM     11  C   UNL     1       6.339   6.671  16.866  0.00  0.00    +0.000 A 
ATOM     12  H   UNL     1       3.425   8.425  19.481  0.00  0.00    +0.000 HD
ENDROOT
BRANCH   8  13
ATOM     13  C   UNL     1       1.538   8.883  18.851  0.00  0.00    +0.000 A 
ATOM     14  C   UNL     1       0.902   9.375  17.698  0.00  0.00    +0.000 A 
ATOM     15  C   UNL     1      -0.368   9.951  17.758  0.00  0.00    +0.000 A 
ATOM     16  C   UNL     1      -1.015  10.061  18.983  0.00  0.00    +0.000 A 
ATOM     17  C   UNL     1      -0.377   9.635  20.150  0.00  0.00    +0.000 A 
ATOM     18  C   UNL     1       0.898   9.062  20.085  0.00  0.00    +0.000 A 
ATOM     19 BR   UNL     1       1.718   8.505  21.705  0.00  0.00    +0.000 Br
ENDBRANCH   8  13
BRANCH   1  21
ATOM     20  C   UNL     1       6.734   4.370  14.164  0.00  0.00    +0.000 C 
ATOM     21  O   UNL     1       7.192   5.002  15.362  0.00  0.00    +0.000 OA
ENDBRANCH   1  21
BRANCH  11  22
ATOM     22  O   UNL     1       7.419   7.517  16.834  0.00  0.00    +0.000 OA
BRANCH  22  23
ATOM     23  C   UNL     1       7.524   8.375  17.966  0.00  0.00    +0.000 C 
BRANCH  23  24
ATOM     24  C   UNL     1       8.479   9.531  17.673  0.00  0.00    +0.000 C 
BRANCH  24  25
ATOM     25  C   UNL     1       9.247   9.864  18.952  0.00  0.00    +0.000 C 
BRANCH  25  26
ATOM     26  C   UNL     1       9.966  11.206  18.889  0.00  0.00    +0.000 C 
BRANCH  26  27
ATOM     27  C   UNL     1      10.421  11.629  20.287  0.00  0.00    +0.000 C 
BRANCH  27  28
ATOM     28  C   UNL     1       9.262  12.067  21.154  0.00  0.00    +0.000 C 
ATOM     29  O   UNL     1       8.605  13.088  20.977  0.00  0.00    +0.000 OA
ATOM     30  N   UNL     1       8.991  11.201  22.188  0.00  0.00    +0.000 N 
ATOM     31  H   UNL     1       9.681  10.553  22.558  0.00  0.00    +0.000 HD
BRANCH  30  32
ATOM     32  O   UNL     1       7.991  11.636  23.088  0.00  0.00    +0.000 OA
ATOM     33  H   UNL     1       7.501  10.803  23.272  0.00  0.00    +0.000 HD
ENDBRANCH  30  32
ENDBRANCH  27  28
ENDBRANCH  26  27
ENDBRANCH  25  26
ENDBRANCH  24  25
ENDBRANCH  23  24
ENDBRANCH  22  23
ENDBRANCH  11  22
TORSDOF 10
ENDMDL
