MODEL 1
REMARK VINA RESULT:      -7.8      0.000      0.000
REMARK  Name = 
REMARK  4 active torsions:
REMARK  status: ('A' for Active; 'I' for Inactive)
REMARK    1  A    between atoms: C_10  and  N_11
REMARK    2  A    between atoms: N_14  and  C_15
REMARK    3  A    between atoms: C_25  and  C_26
REMARK    4  A    between atoms: C_26  and  O_27
REMARK                            x       y       z     vdW  Elec       q    Type
REMARK                         _______ _______ _______ _____ _____    ______ ____
ROOT
ATOM      1  O   UNL     1       6.676   4.494  17.370  0.00  0.00    +0.000 OA
ATOM      2  C   UNL     1       5.503   4.473  17.730  0.00  0.00    +0.000 A 
ATOM      3  O   UNL     1       4.882   3.272  18.006  0.00  0.00    +0.000 OA
ATOM      4  C   UNL     1       3.538   3.221  18.390  0.00  0.00    +0.000 A 
ATOM      5  C   UNL     1       3.022   1.937  18.595  0.00  0.00    +0.000 A 
ATOM      6  C   UNL     1       1.693   1.785  18.963  0.00  0.00    +0.000 A 
ATOM      7  C   UNL     1       0.890   2.914  19.089  0.00  0.00    +0.000 A 
ATOM      8  C   UNL     1       1.423   4.194  18.858  0.00  0.00    +0.000 A 
ATOM      9  C   UNL     1       2.778   4.379  18.538  0.00  0.00    +0.000 A 
ATOM     10  C   UNL     1       3.426   5.697  18.329  0.00  0.00    +0.000 A 
ATOM     11  C   UNL     1       4.713   5.719  17.912  0.00  0.00    +0.000 A 
ENDROOT
BRANCH  10  12
ATOM     12  N   UNL     1       2.709   6.883  18.603  0.00  0.00    +0.000 N 
ATOM     13  C   UNL     1       1.928   7.049  19.864  0.00  0.00    +0.000 C 
ATOM     14  C   UNL     1       1.924   8.528  20.305  0.00  0.00    +0.000 C 
ATOM     15  N   UNL     1       1.408   9.385  19.221  0.00  0.00    +0.000 N 
ATOM     16  C   UNL     1       2.103   9.235  17.926  0.00  0.00    +0.000 C 
ATOM     17  C   UNL     1       2.178   7.740  17.499  0.00  0.00    +0.000 C 
BRANCH  15  18
ATOM     18  C   UNL     1       0.249  10.121  19.346  0.00  0.00    +0.000 A 
ATOM     19  C   UNL     1      -0.059  10.825  20.520  0.00  0.00    +0.000 A 
ATOM     20  C   UNL     1      -1.228  11.584  20.643  0.00  0.00    +0.000 A 
ATOM     21  C   UNL     1      -2.127  11.660  19.582  0.00  0.00    +0.000 A 
ATOM     22 CL   UNL     1      -3.552  12.611  19.798  0.00  0.00    +0.000 Cl
ATOM     23  C   UNL     1      -1.846  10.976  18.399  0.00  0.00    +0.000 A 
ATOM     24 CL   UNL     1      -2.900  11.029  17.030  0.00  0.00    +0.000 Cl
ATOM     25  C   UNL     1      -0.673  10.216  18.291  0.00  0.00    +0.000 A 
ENDBRANCH  15  18
ENDBRANCH  10  12
BRANCH  11  26
ATOM     26  C   UNL     1       5.543   6.952  17.625  0.00  0.00    +0.000 C 
BRANCH  26  27
ATOM     27  O   UNL     1       6.046   7.019  16.294  0.00  0.00    +0.000 OA
ATOM     28  H   UNL     1       7.012   6.910  16.378  0.00  0.00    +0.000 HD
ENDBRANCH  26  27
ENDBRANCH  11  26
TORSDOF 4
ENDMDL
MODEL 2
REMARK VINA RESULT:      -7.8      1.012      1.012
REMARK  Name = 
REMARK  4 active torsions:
REMARK  status: ('A' for Active; 'I' for Inactive)
REMARK    1  A    between atoms: C_10  and  N_11
REMARK    2  A    between atoms: N_14  and  C_15
REMARK    3  A    between atoms: C_25  and  C_26
REMARK    4  A    between atoms: C_26  and  O_27
REMARK                            x       y       z     vdW  Elec       q    Type
REMARK                         _______ _______ _______ _____ _____    ______ ____
ROOT
ATOM      1  O   UNL     1       6.422   4.754  17.592  0.00  0.00    +0.000 OA
ATOM      2  C   UNL     1       5.363   4.788  18.212  0.00  0.00    +0.000 A 
ATOM      3  O   UNL     1       4.976   3.714  18.986  0.00  0.00    +0.000 OA
ATOM      4  C   UNL     1       3.761   3.718  19.678  0.00  0.00    +0.000 A 
ATOM      5  C   UNL     1       3.472   2.548  20.388  0.00  0.00    +0.000 A 
ATOM      6  C   UNL     1       2.281   2.452  21.094  0.00  0.00    +0.000 A 
ATOM      7  C   UNL     1       1.381   3.512  21.053  0.00  0.00    +0.000 A 
ATOM      8  C   UNL     1       1.682   4.671  20.316  0.00  0.00    +0.000 A 
ATOM      9  C   UNL     1       2.903   4.815  19.638  0.00  0.00    +0.000 A 
ATOM     10  C   UNL     1       3.315   6.024  18.882  0.00  0.00    +0.000 A 
ATOM     11  C   UNL     1       4.472   5.978  18.183  0.00  0.00    +0.000 A 
ENDROOT
BRANCH  10  12
ATOM     12  N   UNL     1       2.522   7.191  18.939  0.00  0.00    +0.000 N 
ATOM     13  C   UNL     1       1.814   7.593  20.190  0.00  0.00    +0.000 C 
ATOM     14  C   UNL     1       1.717   9.131  20.284  0.00  0.00    +0.000 C 
ATOM     15  N   UNL     1       1.062   9.677  19.080  0.00  0.00    +0.000 N 
ATOM     16  C   UNL     1       1.680   9.277  17.800  0.00  0.00    +0.000 C 
ATOM     17  C   UNL     1       1.851   7.732  17.718  0.00  0.00    +0.000 C 
BRANCH  15  18
ATOM     18  C   UNL     1      -0.144  10.345  19.131  0.00  0.00    +0.000 A 
ATOM     19  C   UNL     1      -0.460  11.224  20.178  0.00  0.00    +0.000 A 
ATOM     20  C   UNL     1      -1.677  11.913  20.223  0.00  0.00    +0.000 A 
ATOM     21  C   UNL     1      -2.617  11.740  19.210  0.00  0.00    +0.000 A 
ATOM     22 CL   UNL     1      -4.099  12.616  19.326  0.00  0.00    +0.000 Cl
ATOM     23  C   UNL     1      -2.329  10.876  18.153  0.00  0.00    +0.000 A 
ATOM     24 CL   UNL     1      -3.433  10.616  16.847  0.00  0.00    +0.000 Cl
ATOM     25  C   UNL     1      -1.107  10.189  18.122  0.00  0.00    +0.000 A 
ENDBRANCH  15  18
ENDBRANCH  10  12
BRANCH  11  26
ATOM     26  C   UNL     1       5.055   7.090  17.337  0.00  0.00    +0.000 C 
BRANCH  26  27
ATOM     27  O   UNL     1       5.206   6.757  15.961  0.00  0.00    +0.000 OA
ATOM     28  H   UNL     1       4.406   7.105  15.523  0.00  0.00    +0.000 HD
ENDBRANCH  26  27
ENDBRANCH  11  26
TORSDOF 4
ENDMDL
MODEL 3
REMARK VINA RESULT:      -7.8      0.793      1.511
REMARK  Name = 
REMARK  4 active torsions:
REMARK  status: ('A' for Active; 'I' for Inactive)
REMARK    1  A    between atoms: C_10  and  N_11
REMARK    2  A    between atoms: N_14  and  C_15
REMARK    3  A    between atoms: C_25  and  C_26
REMARK    4  A    between atoms: C_26  and  O_27
REMARK                            x       y       z     vdW  Elec       q    Type
REMARK                         _______ _______ _______ _____ _____    ______ ____
ROOT
ATOM      1  O   UNL     1       6.324   4.409  16.699  0.00  0.00    +0.000 OA
ATOM      2  C   UNL     1       5.221   4.407  17.238  0.00  0.00    +0.000 A 
ATOM      3  O   UNL     1       4.638   3.217  17.621  0.00  0.00    +0.000 OA
ATOM      4  C   UNL     1       3.370   3.187  18.210  0.00  0.00    +0.000 A 
ATOM      5  C   UNL     1       2.878   1.911  18.508  0.00  0.00    +0.000 A 
ATOM      6  C   UNL     1       1.621   1.779  19.080  0.00  0.00    +0.000 A 
ATOM      7  C   UNL     1       0.859   2.920  19.316  0.00  0.00    +0.000 A 
ATOM      8  C   UNL     1       1.364   4.190  18.989  0.00  0.00    +0.000 A 
ATOM      9  C   UNL     1       2.655   4.355  18.460  0.00  0.00    +0.000 A 
ATOM     10  C   UNL     1       3.276   5.663  18.137  0.00  0.00    +0.000 A 
ATOM     11  C   UNL     1       4.483   5.665  17.525  0.00  0.00    +0.000 A 
ENDROOT
BRANCH  10  12
ATOM     12  N   UNL     1       2.624   6.860  18.505  0.00  0.00    +0.000 N 
ATOM     13  C   UNL     1       1.914   6.993  19.811  0.00  0.00    +0.000 C 
ATOM     14  C   UNL     1       1.993   8.448  20.322  0.00  0.00    +0.000 C 
ATOM     15  N   UNL     1       1.459   9.377  19.308  0.00  0.00    +0.000 N 
ATOM     16  C   UNL     1       2.082   9.265  17.973  0.00  0.00    +0.000 C 
ATOM     17  C   UNL     1       2.074   7.791  17.472  0.00  0.00    +0.000 C 
BRANCH  15  18
ATOM     18  C   UNL     1       0.339  10.150  19.529  0.00  0.00    +0.000 A 
ATOM     19  C   UNL     1      -0.630  10.352  18.534  0.00  0.00    +0.000 A 
ATOM     20  C   UNL     1      -1.774  11.125  18.762  0.00  0.00    +0.000 A 
ATOM     21  C   UNL     1      -1.982  11.718  20.004  0.00  0.00    +0.000 A 
ATOM     22 CL   UNL     1      -3.411  12.661  20.220  0.00  0.00    +0.000 Cl
ATOM     23  C   UNL     1      -1.039  11.531  21.016  0.00  0.00    +0.000 A 
ATOM     24 CL   UNL     1      -1.226  12.219  22.591  0.00  0.00    +0.000 Cl
ATOM     25  C   UNL     1       0.105  10.757  20.773  0.00  0.00    +0.000 A 
ENDBRANCH  15  18
ENDBRANCH  10  12
BRANCH  11  26
ATOM     26  C   UNL     1       5.272   6.884  17.096  0.00  0.00    +0.000 C 
BRANCH  26  27
ATOM     27  O   UNL     1       5.517   6.956  15.696  0.00  0.00    +0.000 OA
ATOM     28  H   UNL     1       6.428   6.628  15.577  0.00  0.00    +0.000 HD
ENDBRANCH  26  27
ENDBRANCH  11  26
TORSDOF 4
ENDMDL
MODEL 4
REMARK VINA RESULT:      -7.7      1.562      3.276
REMARK  Name = 
REMARK  4 active torsions:
REMARK  status: ('A' for Active; 'I' for Inactive)
REMARK    1  A    between atoms: C_10  and  N_11
REMARK    2  A    between atoms: N_14  and  C_15
REMARK    3  A    between atoms: C_25  and  C_26
REMARK    4  A    between atoms: C_26  and  O_27
REMARK                            x       y       z     vdW  Elec       q    Type
REMARK                         _______ _______ _______ _____ _____    ______ ____
ROOT
ATOM      1  O   UNL     1       3.590   2.425  20.397  0.00  0.00    +0.000 OA
ATOM      2  C   UNL     1       3.948   3.447  19.819  0.00  0.00    +0.000 A 
ATOM      3  O   UNL     1       5.134   3.467  19.114  0.00  0.00    +0.000 OA
ATOM      4  C   UNL     1       5.577   4.628  18.472  0.00  0.00    +0.000 A 
ATOM      5  C   UNL     1       6.816   4.523  17.832  0.00  0.00    +0.000 A 
ATOM      6  C   UNL     1       7.346   5.628  17.181  0.00  0.00    +0.000 A 
ATOM      7  C   UNL     1       6.647   6.830  17.206  0.00  0.00    +0.000 A 
ATOM      8  C   UNL     1       5.412   6.920  17.873  0.00  0.00    +0.000 A 
ATOM      9  C   UNL     1       4.829   5.803  18.493  0.00  0.00    +0.000 A 
ATOM     10  C   UNL     1       3.509   5.805  19.172  0.00  0.00    +0.000 A 
ATOM     11  C   UNL     1       3.125   4.685  19.826  0.00  0.00    +0.000 A 
ENDROOT
BRANCH  10  12
ATOM     12  N   UNL     1       2.680   6.944  19.089  0.00  0.00    +0.000 N 
ATOM     13  C   UNL     1       1.830   7.376  20.239  0.00  0.00    +0.000 C 
ATOM     14  C   UNL     1       1.676   8.912  20.248  0.00  0.00    +0.000 C 
ATOM     15  N   UNL     1       1.137   9.381  18.958  0.00  0.00    +0.000 N 
ATOM     16  C   UNL     1       1.900   8.947  17.769  0.00  0.00    +0.000 C 
ATOM     17  C   UNL     1       2.126   7.407  17.780  0.00  0.00    +0.000 C 
BRANCH  15  18
ATOM     18  C   UNL     1      -0.087  10.006  18.850  0.00  0.00    +0.000 A 
ATOM     19  C   UNL     1      -0.549  10.905  19.824  0.00  0.00    +0.000 A 
ATOM     20  C   UNL     1      -1.784  11.551  19.709  0.00  0.00    +0.000 A 
ATOM     21  C   UNL     1      -2.597  11.315  18.603  0.00  0.00    +0.000 A 
ATOM     22 CL   UNL     1      -4.110  12.141  18.521  0.00  0.00    +0.000 Cl
ATOM     23  C   UNL     1      -2.163  10.431  17.614  0.00  0.00    +0.000 A 
ATOM     24 CL   UNL     1      -3.102  10.092  16.202  0.00  0.00    +0.000 Cl
ATOM     25  C   UNL     1      -0.924   9.787  17.744  0.00  0.00    +0.000 A 
ENDBRANCH  15  18
ENDBRANCH  10  12
BRANCH  11  26
ATOM     26  C   UNL     1       1.833   4.490  20.592  0.00  0.00    +0.000 C 
BRANCH  26  27
ATOM     27  O   UNL     1       0.847   3.742  19.890  0.00  0.00    +0.000 OA
ATOM     28  H   UNL     1       0.192   4.400  19.587  0.00  0.00    +0.000 HD
ENDBRANCH  26  27
ENDBRANCH  11  26
TORSDOF 4
ENDMDL
MODEL 5
REMARK VINA RESULT:      -7.6      1.159      1.678
REMARK  Name = 
REMARK  4 active torsions:
REMARK  status: ('A' for Active; 'I' for Inactive)
REMARK    1  A    between atoms: C_10  and  N_11
REMARK    2  A    between atoms: N_14  and  C_15
REMARK    3  A    between atoms: C_25  and  C_26
REMARK    4  A    between atoms: C_26  and  O_27
REMARK                            x       y       z     vdW  Elec       q    Type
REMARK                         _______ _______ _______ _____ _____    ______ ____
ROOT
ATOM      1  O   UNL     1       6.376   4.760  17.523  0.00  0.00    +0.000 OA
ATOM      2  C   UNL     1       5.329   4.799  18.162  0.00  0.00    +0.000 A 
ATOM      3  O   UNL     1       4.952   3.727  18.945  0.00  0.00    +0.000 OA
ATOM      4  C   UNL     1       3.750   3.737  19.659  0.00  0.00    +0.000 A 
ATOM      5  C   UNL     1       3.470   2.569  20.376  0.00  0.00    +0.000 A 
ATOM      6  C   UNL     1       2.291   2.479  21.103  0.00  0.00    +0.000 A 
ATOM      7  C   UNL     1       1.395   3.542  21.078  0.00  0.00    +0.000 A 
ATOM      8  C   UNL     1       1.687   4.699  20.334  0.00  0.00    +0.000 A 
ATOM      9  C   UNL     1       2.896   4.837  19.634  0.00  0.00    +0.000 A 
ATOM     10  C   UNL     1       3.298   6.044  18.869  0.00  0.00    +0.000 A 
ATOM     11  C   UNL     1       4.442   5.992  18.148  0.00  0.00    +0.000 A 
ENDROOT
BRANCH  10  12
ATOM     12  N   UNL     1       2.511   7.214  18.940  0.00  0.00    +0.000 N 
ATOM     13  C   UNL     1       1.774   7.585  20.183  0.00  0.00    +0.000 C 
ATOM     14  C   UNL     1       1.683   9.120  20.319  0.00  0.00    +0.000 C 
ATOM     15  N   UNL     1       1.063   9.705  19.115  0.00  0.00    +0.000 N 
ATOM     16  C   UNL     1       1.712   9.338  17.840  0.00  0.00    +0.000 C 
ATOM     17  C   UNL     1       1.875   7.794  17.718  0.00  0.00    +0.000 C 
BRANCH  15  18
ATOM     18  C   UNL     1      -0.139  10.379  19.155  0.00  0.00    +0.000 A 
ATOM     19  C   UNL     1      -1.087  10.264  18.127  0.00  0.00    +0.000 A 
ATOM     20  C   UNL     1      -2.314  10.937  18.173  0.00  0.00    +0.000 A 
ATOM     21  C   UNL     1      -2.627  11.747  19.261  0.00  0.00    +0.000 A 
ATOM     22 CL   UNL     1      -4.155  12.550  19.256  0.00  0.00    +0.000 Cl
ATOM     23  C   UNL     1      -1.707  11.876  20.302  0.00  0.00    +0.000 A 
ATOM     24 CL   UNL     1      -2.023  12.848  21.697  0.00  0.00    +0.000 Cl
ATOM     25  C   UNL     1      -0.480  11.200  20.242  0.00  0.00    +0.000 A 
ENDBRANCH  15  18
ENDBRANCH  10  12
BRANCH  11  26
ATOM     26  C   UNL     1       5.014   7.101  17.290  0.00  0.00    +0.000 C 
BRANCH  26  27
ATOM     27  O   UNL     1       5.205   6.743  15.926  0.00  0.00    +0.000 OA
ATOM     28  H   UNL     1       5.557   7.545  15.496  0.00  0.00    +0.000 HD
ENDBRANCH  26  27
ENDBRANCH  11  26
TORSDOF 4
ENDMDL
MODEL 6
REMARK VINA RESULT:      -7.6      1.164      3.200
REMARK  Name = 
REMARK  4 active torsions:
REMARK  status: ('A' for Active; 'I' for Inactive)
REMARK    1  A    between atoms: C_10  and  N_11
REMARK    2  A    between atoms: N_14  and  C_15
REMARK    3  A    between atoms: C_25  and  C_26
REMARK    4  A    between atoms: C_26  and  O_27
REMARK                            x       y       z     vdW  Elec       q    Type
REMARK                         _______ _______ _______ _____ _____    ______ ____
ROOT
ATOM      1  O   UNL     1       2.682   1.993  17.797  0.00  0.00    +0.000 OA
ATOM      2  C   UNL     1       3.257   3.076  17.751  0.00  0.00    +0.000 A 
ATOM      3  O   UNL     1       4.528   3.166  17.222  0.00  0.00    +0.000 OA
ATOM      4  C   UNL     1       5.215   4.384  17.187  0.00  0.00    +0.000 A 
ATOM      5  C   UNL     1       6.512   4.324  16.666  0.00  0.00    +0.000 A 
ATOM      6  C   UNL     1       7.278   5.480  16.604  0.00  0.00    +0.000 A 
ATOM      7  C   UNL     1       6.751   6.670  17.094  0.00  0.00    +0.000 A 
ATOM      8  C   UNL     1       5.452   6.703  17.633  0.00  0.00    +0.000 A 
ATOM      9  C   UNL     1       4.637   5.560  17.656  0.00  0.00    +0.000 A 
ATOM     10  C   UNL     1       3.242   5.526  18.161  0.00  0.00    +0.000 A 
ATOM     11  C   UNL     1       2.616   4.329  18.230  0.00  0.00    +0.000 A 
ENDROOT
BRANCH  10  12
ATOM     12  N   UNL     1       2.595   6.729  18.517  0.00  0.00    +0.000 N 
ATOM     13  C   UNL     1       1.825   6.855  19.789  0.00  0.00    +0.000 C 
ATOM     14  C   UNL     1       1.906   8.300  20.328  0.00  0.00    +0.000 C 
ATOM     15  N   UNL     1       1.439   9.255  19.305  0.00  0.00    +0.000 N 
ATOM     16  C   UNL     1       2.124   9.153  18.000  0.00  0.00    +0.000 C 
ATOM     17  C   UNL     1       2.113   7.687  17.474  0.00  0.00    +0.000 C 
BRANCH  15  18
ATOM     18  C   UNL     1       0.324  10.046  19.485  0.00  0.00    +0.000 A 
ATOM     19  C   UNL     1       0.067  10.701  20.699  0.00  0.00    +0.000 A 
ATOM     20  C   UNL     1      -1.057  11.515  20.877  0.00  0.00    +0.000 A 
ATOM     21  C   UNL     1      -1.960  11.699  19.833  0.00  0.00    +0.000 A 
ATOM     22 CL   UNL     1      -3.327  12.713  20.118  0.00  0.00    +0.000 Cl
ATOM     23  C   UNL     1      -1.728  11.066  18.611  0.00  0.00    +0.000 A 
ATOM     24 CL   UNL     1      -2.790  11.253  17.259  0.00  0.00    +0.000 Cl
ATOM     25  C   UNL     1      -0.600  10.249  18.448  0.00  0.00    +0.000 A 
ENDBRANCH  15  18
ENDBRANCH  10  12
BRANCH  11  26
ATOM     26  C   UNL     1       1.209   4.078  18.730  0.00  0.00    +0.000 C 
BRANCH  26  27
ATOM     27  O   UNL     1       1.144   3.311  19.927  0.00  0.00    +0.000 OA
ATOM     28  H   UNL     1       0.197   3.112  20.054  0.00  0.00    +0.000 HD
ENDBRANCH  26  27
ENDBRANCH  11  26
TORSDOF 4
ENDMDL
MODEL 7
REMARK VINA RESULT:      -7.6      1.424      3.532
REMARK  Name = 
REMARK  4 active torsions:
REMARK  status: ('A' for Active; 'I' for Inactive)
REMARK    1  A    between atoms: C_10  and  N_11
REMARK    2  A    between atoms: N_14  and  C_15
REMARK    3  A    between atoms: C_25  and  C_26
REMARK    4  A    between atoms: C_26  and  O_27
REMARK                            x       y       z     vdW  Elec       q    Type
REMARK                         _______ _______ _______ _____ _____    ______ ____
ROOT
ATOM      1  O   UNL     1       2.522   1.955  17.758  0.00  0.00    +0.000 OA
ATOM      2  C   UNL     1       3.119   3.026  17.714  0.00  0.00    +0.000 A 
ATOM      3  O   UNL     1       4.376   3.098  17.152  0.00  0.00    +0.000 OA
ATOM      4  C   UNL     1       5.088   4.302  17.117  0.00  0.00    +0.000 A 
ATOM      5  C   UNL     1       6.369   4.224  16.559  0.00  0.00    +0.000 A 
ATOM      6  C   UNL     1       7.157   5.365  16.495  0.00  0.00    +0.000 A 
ATOM      7  C   UNL     1       6.669   6.558  17.018  0.00  0.00    +0.000 A 
ATOM      8  C   UNL     1       5.386   6.609  17.593  0.00  0.00    +0.000 A 
ATOM      9  C   UNL     1       4.548   5.482  17.621  0.00  0.00    +0.000 A 
ATOM     10  C   UNL     1       3.167   5.469  18.163  0.00  0.00    +0.000 A 
ATOM     11  C   UNL     1       2.517   4.284  18.230  0.00  0.00    +0.000 A 
ENDROOT
BRANCH  10  12
ATOM     12  N   UNL     1       2.555   6.680  18.555  0.00  0.00    +0.000 N 
ATOM     13  C   UNL     1       1.835   6.804  19.857  0.00  0.00    +0.000 C 
ATOM     14  C   UNL     1       1.962   8.241  20.408  0.00  0.00    +0.000 C 
ATOM     15  N   UNL     1       1.476   9.216  19.414  0.00  0.00    +0.000 N 
ATOM     16  C   UNL     1       2.110   9.117  18.083  0.00  0.00    +0.000 C 
ATOM     17  C   UNL     1       2.053   7.658  17.542  0.00  0.00    +0.000 C 
BRANCH  15  18
ATOM     18  C   UNL     1       0.383  10.025  19.642  0.00  0.00    +0.000 A 
ATOM     19  C   UNL     1      -0.555  10.305  18.637  0.00  0.00    +0.000 A 
ATOM     20  C   UNL     1      -1.673  11.114  18.873  0.00  0.00    +0.000 A 
ATOM     21  C   UNL     1      -1.884  11.666  20.133  0.00  0.00    +0.000 A 
ATOM     22 CL   UNL     1      -3.279  12.657  20.357  0.00  0.00    +0.000 Cl
ATOM     23  C   UNL     1      -0.971  11.401  21.156  0.00  0.00    +0.000 A 
ATOM     24 CL   UNL     1      -1.166  12.034  22.753  0.00  0.00    +0.000 Cl
ATOM     25  C   UNL     1       0.146  10.592  20.905  0.00  0.00    +0.000 A 
ENDBRANCH  15  18
ENDBRANCH  10  12
BRANCH  11  26
ATOM     26  C   UNL     1       1.119   4.055  18.764  0.00  0.00    +0.000 C 
BRANCH  26  27
ATOM     27  O   UNL     1       1.072   3.281  19.958  0.00  0.00    +0.000 OA
ATOM     28  H   UNL     1       0.797   3.904  20.657  0.00  0.00    +0.000 HD
ENDBRANCH  26  27
ENDBRANCH  11  26
TORSDOF 4
ENDMDL
MODEL 8
REMARK VINA RESULT:      -7.6      1.642      3.499
REMARK  Name = 
REMARK  4 active torsions:
REMARK  status: ('A' for Active; 'I' for Inactive)
REMARK    1  A    between atoms: C_10  and  N_11
REMARK    2  A    between atoms: N_14  and  C_15
REMARK    3  A    between atoms: C_25  and  C_26
REMARK    4  A    between atoms: C_26  and  O_27
REMARK                            x       y       z     vdW  Elec       q    Type
REMARK                         _______ _______ _______ _____ _____    ______ ____
ROOT
ATOM      1  O   UNL     1       3.586   2.518  20.533  0.00  0.00    +0.000 OA
ATOM      2  C   UNL     1       3.934   3.523  19.920  0.00  0.00    +0.000 A 
ATOM      3  O   UNL     1       5.109   3.524  19.198  0.00  0.00    +0.000 OA
ATOM      4  C   UNL     1       5.541   4.666  18.515  0.00  0.00    +0.000 A 
ATOM      5  C   UNL     1       6.771   4.543  17.861  0.00  0.00    +0.000 A 
ATOM      6  C   UNL     1       7.290   5.629  17.170  0.00  0.00    +0.000 A 
ATOM      7  C   UNL     1       6.589   6.831  17.169  0.00  0.00    +0.000 A 
ATOM      8  C   UNL     1       5.364   6.938  17.851  0.00  0.00    +0.000 A 
ATOM      9  C   UNL     1       4.792   5.839  18.512  0.00  0.00    +0.000 A 
ATOM     10  C   UNL     1       3.482   5.860  19.209  0.00  0.00    +0.000 A 
ATOM     11  C   UNL     1       3.108   4.759  19.902  0.00  0.00    +0.000 A 
ENDROOT
BRANCH  10  12
ATOM     12  N   UNL     1       2.649   6.996  19.106  0.00  0.00    +0.000 N 
ATOM     13  C   UNL     1       1.733   7.395  20.214  0.00  0.00    +0.000 C 
ATOM     14  C   UNL     1       1.567   8.930  20.249  0.00  0.00    +0.000 C 
ATOM     15  N   UNL     1       1.097   9.424  18.941  0.00  0.00    +0.000 N 
ATOM     16  C   UNL     1       1.930   9.022  17.789  0.00  0.00    +0.000 C 
ATOM     17  C   UNL     1       2.167   7.484  17.777  0.00  0.00    +0.000 C 
BRANCH  15  18
ATOM     18  C   UNL     1      -0.124  10.044  18.778  0.00  0.00    +0.000 A 
ATOM     19  C   UNL     1      -0.988   9.713  17.724  0.00  0.00    +0.000 A 
ATOM     20  C   UNL     1      -2.233  10.332  17.566  0.00  0.00    +0.000 A 
ATOM     21  C   UNL     1      -2.651  11.305  18.470  0.00  0.00    +0.000 A 
ATOM     22 CL   UNL     1      -4.196  12.031  18.218  0.00  0.00    +0.000 Cl
ATOM     23  C   UNL     1      -1.816  11.652  19.533  0.00  0.00    +0.000 A 
ATOM     24 CL   UNL     1      -2.263  12.838  20.708  0.00  0.00    +0.000 Cl
ATOM     25  C   UNL     1      -0.569  11.027  19.677  0.00  0.00    +0.000 A 
ENDBRANCH  15  18
ENDBRANCH  10  12
BRANCH  11  26
ATOM     26  C   UNL     1       1.829   4.586  20.692  0.00  0.00    +0.000 C 
BRANCH  26  27
ATOM     27  O   UNL     1       0.850   3.779  20.047  0.00  0.00    +0.000 OA
ATOM     28  H   UNL     1       0.508   3.184  20.741  0.00  0.00    +0.000 HD
ENDBRANCH  26  27
ENDBRANCH  11  26
TORSDOF 4
ENDMDL
MODEL 9
REMARK VINA RESULT:      -7.5      1.844      2.438
REMARK  Name = 
REMARK  4 active torsions:
REMARK  status: ('A' for Active; 'I' for Inactive)
REMARK    1  A    between atoms: C_10  and  N_11
REMARK    2  A    between atoms: N_14  and  C_15
REMARK    3  A    between atoms: C_25  and  C_26
REMARK    4  A    between atoms: C_26  and  O_27
REMARK                            x       y       z     vdW  Elec       q    Type
REMARK                         _______ _______ _______ _____ _____    ______ ____
ROOT
ATOM      1  O   UNL     1       6.022   4.455  16.399  0.00  0.00    +0.000 OA
ATOM      2  C   UNL     1       4.978   4.478  17.043  0.00  0.00    +0.000 A 
ATOM      3  O   UNL     1       4.439   3.307  17.534  0.00  0.00    +0.000 OA
ATOM      4  C   UNL     1       3.235   3.305  18.246  0.00  0.00    +0.000 A 
ATOM      5  C   UNL     1       2.778   2.044  18.647  0.00  0.00    +0.000 A 
ATOM      6  C   UNL     1       1.584   1.940  19.346  0.00  0.00    +0.000 A 
ATOM      7  C   UNL     1       0.847   3.090  19.605  0.00  0.00    +0.000 A 
ATOM      8  C   UNL     1       1.314   4.345  19.175  0.00  0.00    +0.000 A 
ATOM      9  C   UNL     1       2.545   4.484  18.514  0.00  0.00    +0.000 A 
ATOM     10  C   UNL     1       3.128   5.776  18.075  0.00  0.00    +0.000 A 
ATOM     11  C   UNL     1       4.268   5.748  17.347  0.00  0.00    +0.000 A 
ENDROOT
BRANCH  10  12
ATOM     12  N   UNL     1       2.512   6.989  18.452  0.00  0.00    +0.000 N 
ATOM     13  C   UNL     1       2.430   8.148  17.515  0.00  0.00    +0.000 C 
ATOM     14  C   UNL     1       1.144   8.961  17.774  0.00  0.00    +0.000 C 
ATOM     15  N   UNL     1       1.084   9.389  19.185  0.00  0.00    +0.000 N 
ATOM     16  C   UNL     1       1.210   8.296  20.172  0.00  0.00    +0.000 C 
ATOM     17  C   UNL     1       2.466   7.422  19.883  0.00  0.00    +0.000 C 
BRANCH  15  18
ATOM     18  C   UNL     1       1.105  10.716  19.558  0.00  0.00    +0.000 A 
ATOM     19  C   UNL     1       1.813  11.680  18.826  0.00  0.00    +0.000 A 
ATOM     20  C   UNL     1       1.824  13.030  19.196  0.00  0.00    +0.000 A 
ATOM     21  C   UNL     1       1.117  13.453  20.318  0.00  0.00    +0.000 A 
ATOM     22 CL   UNL     1       1.173  15.130  20.722  0.00  0.00    +0.000 Cl
ATOM     23  C   UNL     1       0.398  12.518  21.064  0.00  0.00    +0.000 A 
ATOM     24 CL   UNL     1      -0.518  12.961  22.462  0.00  0.00    +0.000 Cl
ATOM     25  C   UNL     1       0.399  11.168  20.684  0.00  0.00    +0.000 A 
ENDBRANCH  15  18
ENDBRANCH  10  12
BRANCH  11  26
ATOM     26  C   UNL     1       5.008   6.946  16.790  0.00  0.00    +0.000 C 
BRANCH  26  27
ATOM     27  O   UNL     1       5.152   6.935  15.373  0.00  0.00    +0.000 OA
ATOM     28  H   UNL     1       4.385   7.433  15.033  0.00  0.00    +0.000 HD
ENDBRANCH  26  27
ENDBRANCH  11  26
TORSDOF 4
ENDMDL
