MODEL 1
REMARK VINA RESULT:      -8.1      0.000      0.000
REMARK  Name = 
REMARK  4 active torsions:
REMARK  status: ('A' for Active; 'I' for Inactive)
REMARK    1  A    between atoms: C_2  and  C_16
REMARK    2  A    between atoms: N_3  and  C_4
REMARK    3  A    between atoms: C_4  and  C_5
REMARK    4  A    between atoms: C_6  and  O_7
REMARK                            x       y       z     vdW  Elec       q    Type
REMARK                         _______ _______ _______ _____ _____    ______ ____
ROOT
ATOM      1  C   UNL     1       4.469   5.097  18.585  0.00  0.00    +0.000 A 
ATOM      2  C   UNL     1       4.123   6.377  18.110  0.00  0.00    +0.000 A 
ATOM      3  C   UNL     1       2.938   6.993  18.495  0.00  0.00    +0.000 A 
ATOM      4  C   UNL     1       2.057   6.340  19.351  0.00  0.00    +0.000 A 
ATOM      5  C   UNL     1       2.353   5.064  19.841  0.00  0.00    +0.000 A 
ATOM      6  C   UNL     1       1.446   4.435  20.709  0.00  0.00    +0.000 A 
ATOM      7  C   UNL     1       1.711   3.176  21.237  0.00  0.00    +0.000 A 
ATOM      8  C   UNL     1       2.891   2.528  20.900  0.00  0.00    +0.000 A 
ATOM      9  C   UNL     1       3.799   3.139  20.027  0.00  0.00    +0.000 A 
ATOM     10  C   UNL     1       3.567   4.420  19.470  0.00  0.00    +0.000 A 
ENDROOT
BRANCH   2  11
ATOM     11  O   UNL     1       4.905   7.112  17.262  0.00  0.00    +0.000 OA
ATOM     12  H   UNL     1       5.104   7.991  17.633  0.00  0.00    +0.000 HD
ENDBRANCH   2  11
BRANCH   1  13
ATOM     13  C   UNL     1       5.774   4.467  18.155  0.00  0.00    +0.000 C 
BRANCH  13  16
ATOM     14  O   UNL     1       7.413   5.897  16.363  0.00  0.00    +0.000 OA
ATOM     15  C   UNL     1       6.698   5.003  15.924  0.00  0.00    +0.000 C 
ATOM     16  N   UNL     1       5.832   4.283  16.718  0.00  0.00    +0.000 N 
ATOM     17  H   UNL     1       5.327   3.499  16.329  0.00  0.00    +0.000 HD
BRANCH  15  18
ATOM     18  C   UNL     1       6.756   4.629  14.481  0.00  0.00    +0.000 A 
ATOM     19  C   UNL     1       7.679   5.282  13.653  0.00  0.00    +0.000 A 
ATOM     20  C   UNL     1       7.752   4.971  12.293  0.00  0.00    +0.000 A 
ATOM     21  C   UNL     1       6.897   4.012  11.751  0.00  0.00    +0.000 A 
ATOM     22  C   UNL     1       5.966   3.366  12.566  0.00  0.00    +0.000 A 
ATOM     23  C   UNL     1       5.892   3.674  13.928  0.00  0.00    +0.000 A 
ENDBRANCH  15  18
ENDBRANCH  13  16
ENDBRANCH   1  13
TORSDOF 4
ENDMDL
MODEL 2
REMARK VINA RESULT:      -8.1      0.078      1.058
REMARK  Name = 
REMARK  4 active torsions:
REMARK  status: ('A' for Active; 'I' for Inactive)
REMARK    1  A    between atoms: C_2  and  C_16
REMARK    2  A    between atoms: N_3  and  C_4
REMARK    3  A    between atoms: C_4  and  C_5
REMARK    4  A    between atoms: C_6  and  O_7
REMARK                            x       y       z     vdW  Elec       q    Type
REMARK                         _______ _______ _______ _____ _____    ______ ____
ROOT
ATOM      1  C   UNL     1       4.411   5.092  18.522  0.00  0.00    +0.000 A 
ATOM      2  C   UNL     1       4.039   6.358  18.030  0.00  0.00    +0.000 A 
ATOM      3  C   UNL     1       2.845   6.959  18.412  0.00  0.00    +0.000 A 
ATOM      4  C   UNL     1       1.980   6.302  19.282  0.00  0.00    +0.000 A 
ATOM      5  C   UNL     1       2.301   5.040  19.788  0.00  0.00    +0.000 A 
ATOM      6  C   UNL     1       1.410   4.406  20.670  0.00  0.00    +0.000 A 
ATOM      7  C   UNL     1       1.700   3.161  21.215  0.00  0.00    +0.000 A 
ATOM      8  C   UNL     1       2.891   2.530  20.881  0.00  0.00    +0.000 A 
ATOM      9  C   UNL     1       3.783   3.144  19.996  0.00  0.00    +0.000 A 
ATOM     10  C   UNL     1       3.525   4.412  19.421  0.00  0.00    +0.000 A 
ENDROOT
BRANCH   2  11
ATOM     11  O   UNL     1       4.804   7.096  17.168  0.00  0.00    +0.000 OA
ATOM     12  H   UNL     1       5.690   6.706  17.056  0.00  0.00    +0.000 HD
ENDBRANCH   2  11
BRANCH   1  13
ATOM     13  C   UNL     1       5.725   4.480  18.095  0.00  0.00    +0.000 C 
BRANCH  13  16
ATOM     14  O   UNL     1       7.430   5.917  16.371  0.00  0.00    +0.000 OA
ATOM     15  C   UNL     1       6.702   5.052  15.895  0.00  0.00    +0.000 C 
ATOM     16  N   UNL     1       5.805   4.333  16.655  0.00  0.00    +0.000 N 
ATOM     17  H   UNL     1       5.288   3.572  16.236  0.00  0.00    +0.000 HD
BRANCH  15  18
ATOM     18  C   UNL     1       6.777   4.716  14.444  0.00  0.00    +0.000 A 
ATOM     19  C   UNL     1       5.925   3.724  13.938  0.00  0.00    +0.000 A 
ATOM     20  C   UNL     1       5.977   3.371  12.587  0.00  0.00    +0.000 A 
ATOM     21  C   UNL     1       6.887   4.000  11.737  0.00  0.00    +0.000 A 
ATOM     22  C   UNL     1       7.746   4.981  12.235  0.00  0.00    +0.000 A 
ATOM     23  C   UNL     1       7.695   5.338  13.587  0.00  0.00    +0.000 A 
ENDBRANCH  15  18
ENDBRANCH  13  16
ENDBRANCH   1  13
TORSDOF 4
ENDMDL
MODEL 3
REMARK VINA RESULT:      -8.0      1.338      2.969
REMARK  Name = 
REMARK  4 active torsions:
REMARK  status: ('A' for Active; 'I' for Inactive)
REMARK    1  A    between atoms: C_2  and  C_16
REMARK    2  A    between atoms: N_3  and  C_4
REMARK    3  A    between atoms: C_4  and  C_5
REMARK    4  A    between atoms: C_6  and  O_7
REMARK                            x       y       z     vdW  Elec       q    Type
REMARK                         _______ _______ _______ _____ _____    ______ ____
ROOT
ATOM      1  C   UNL     1       4.909   4.463  18.696  0.00  0.00    +0.000 A 
ATOM      2  C   UNL     1       4.445   3.381  19.469  0.00  0.00    +0.000 A 
ATOM      3  C   UNL     1       3.173   3.387  20.030  0.00  0.00    +0.000 A 
ATOM      4  C   UNL     1       2.337   4.484  19.852  0.00  0.00    +0.000 A 
ATOM      5  C   UNL     1       2.756   5.586  19.101  0.00  0.00    +0.000 A 
ATOM      6  C   UNL     1       1.885   6.675  18.934  0.00  0.00    +0.000 A 
ATOM      7  C   UNL     1       2.253   7.782  18.177  0.00  0.00    +0.000 A 
ATOM      8  C   UNL     1       3.504   7.813  17.578  0.00  0.00    +0.000 A 
ATOM      9  C   UNL     1       4.387   6.741  17.745  0.00  0.00    +0.000 A 
ATOM     10  C   UNL     1       4.049   5.595  18.506  0.00  0.00    +0.000 A 
ENDROOT
BRANCH   2  11
ATOM     11  O   UNL     1       5.178   2.252  19.716  0.00  0.00    +0.000 OA
ATOM     12  H   UNL     1       5.618   2.297  20.584  0.00  0.00    +0.000 HD
ENDBRANCH   2  11
BRANCH   1  13
ATOM     13  C   UNL     1       6.292   4.412  18.089  0.00  0.00    +0.000 C 
BRANCH  13  16
ATOM     14  O   UNL     1       7.463   6.085  16.146  0.00  0.00    +0.000 OA
ATOM     15  C   UNL     1       6.879   5.071  15.778  0.00  0.00    +0.000 C 
ATOM     16  N   UNL     1       6.239   4.220  16.652  0.00  0.00    +0.000 N 
ATOM     17  H   UNL     1       5.845   3.354  16.313  0.00  0.00    +0.000 HD
BRANCH  15  18
ATOM     18  C   UNL     1       6.859   4.694  14.335  0.00  0.00    +0.000 A 
ATOM     19  C   UNL     1       5.964   3.701  13.911  0.00  0.00    +0.000 A 
ATOM     20  C   UNL     1       5.928   3.310  12.570  0.00  0.00    +0.000 A 
ATOM     21  C   UNL     1       6.791   3.900  11.648  0.00  0.00    +0.000 A 
ATOM     22  C   UNL     1       7.693   4.881  12.064  0.00  0.00    +0.000 A 
ATOM     23  C   UNL     1       7.731   5.277  13.405  0.00  0.00    +0.000 A 
ENDBRANCH  15  18
ENDBRANCH  13  16
ENDBRANCH   1  13
TORSDOF 4
ENDMDL
MODEL 4
REMARK VINA RESULT:      -8.0      1.340      2.779
REMARK  Name = 
REMARK  4 active torsions:
REMARK  status: ('A' for Active; 'I' for Inactive)
REMARK    1  A    between atoms: C_2  and  C_16
REMARK    2  A    between atoms: N_3  and  C_4
REMARK    3  A    between atoms: C_4  and  C_5
REMARK    4  A    between atoms: C_6  and  O_7
REMARK                            x       y       z     vdW  Elec       q    Type
REMARK                         _______ _______ _______ _____ _____    ______ ____
ROOT
ATOM      1  C   UNL     1       4.902   4.483  18.702  0.00  0.00    +0.000 A 
ATOM      2  C   UNL     1       4.435   3.408  19.483  0.00  0.00    +0.000 A 
ATOM      3  C   UNL     1       3.164   3.424  20.047  0.00  0.00    +0.000 A 
ATOM      4  C   UNL     1       2.332   4.524  19.863  0.00  0.00    +0.000 A 
ATOM      5  C   UNL     1       2.755   5.619  19.104  0.00  0.00    +0.000 A 
ATOM      6  C   UNL     1       1.888   6.710  18.931  0.00  0.00    +0.000 A 
ATOM      7  C   UNL     1       2.260   7.810  18.166  0.00  0.00    +0.000 A 
ATOM      8  C   UNL     1       3.510   7.832  17.563  0.00  0.00    +0.000 A 
ATOM      9  C   UNL     1       4.388   6.756  17.736  0.00  0.00    +0.000 A 
ATOM     10  C   UNL     1       4.047   5.618  18.506  0.00  0.00    +0.000 A 
ENDROOT
BRANCH   2  11
ATOM     11  O   UNL     1       5.164   2.278  19.737  0.00  0.00    +0.000 OA
ATOM     12  H   UNL     1       5.042   1.611  19.037  0.00  0.00    +0.000 HD
ENDBRANCH   2  11
BRANCH   1  13
ATOM     13  C   UNL     1       6.283   4.421  18.092  0.00  0.00    +0.000 C 
BRANCH  13  16
ATOM     14  O   UNL     1       7.468   6.049  16.119  0.00  0.00    +0.000 OA
ATOM     15  C   UNL     1       6.874   5.035  15.769  0.00  0.00    +0.000 C 
ATOM     16  N   UNL     1       6.226   4.205  16.659  0.00  0.00    +0.000 N 
ATOM     17  H   UNL     1       5.824   3.336  16.335  0.00  0.00    +0.000 HD
BRANCH  15  18
ATOM     18  C   UNL     1       6.848   4.632  14.333  0.00  0.00    +0.000 A 
ATOM     19  C   UNL     1       7.717   5.272  13.439  0.00  0.00    +0.000 A 
ATOM     20  C   UNL     1       7.711   4.933  12.083  0.00  0.00    +0.000 A 
ATOM     21  C   UNL     1       6.831   3.958  11.613  0.00  0.00    +0.000 A 
ATOM     22  C   UNL     1       5.954   3.324  12.495  0.00  0.00    +0.000 A 
ATOM     23  C   UNL     1       5.960   3.660  13.853  0.00  0.00    +0.000 A 
ENDBRANCH  15  18
ENDBRANCH  13  16
ENDBRANCH   1  13
TORSDOF 4
ENDMDL
MODEL 5
REMARK VINA RESULT:      -7.6      1.663      2.752
REMARK  Name = 
REMARK  4 active torsions:
REMARK  status: ('A' for Active; 'I' for Inactive)
REMARK    1  A    between atoms: C_2  and  C_16
REMARK    2  A    between atoms: N_3  and  C_4
REMARK    3  A    between atoms: C_4  and  C_5
REMARK    4  A    between atoms: C_6  and  O_7
REMARK                            x       y       z     vdW  Elec       q    Type
REMARK                         _______ _______ _______ _____ _____    ______ ____
ROOT
ATOM      1  C   UNL     1       3.990   3.482  18.618  0.00  0.00    +0.000 A 
ATOM      2  C   UNL     1       3.515   2.183  18.354  0.00  0.00    +0.000 A 
ATOM      3  C   UNL     1       2.225   1.800  18.706  0.00  0.00    +0.000 A 
ATOM      4  C   UNL     1       1.381   2.700  19.348  0.00  0.00    +0.000 A 
ATOM      5  C   UNL     1       1.811   3.998  19.640  0.00  0.00    +0.000 A 
ATOM      6  C   UNL     1       0.931   4.884  20.283  0.00  0.00    +0.000 A 
ATOM      7  C   UNL     1       1.310   6.190  20.571  0.00  0.00    +0.000 A 
ATOM      8  C   UNL     1       2.580   6.627  20.220  0.00  0.00    +0.000 A 
ATOM      9  C   UNL     1       3.470   5.752  19.589  0.00  0.00    +0.000 A 
ATOM     10  C   UNL     1       3.122   4.415  19.277  0.00  0.00    +0.000 A 
ENDROOT
BRANCH   2  11
ATOM     11  O   UNL     1       4.254   1.213  17.733  0.00  0.00    +0.000 OA
ATOM     12  H   UNL     1       3.719   0.715  17.089  0.00  0.00    +0.000 HD
ENDBRANCH   2  11
BRANCH   1  13
ATOM     13  C   UNL     1       5.392   3.865  18.205  0.00  0.00    +0.000 C 
BRANCH  13  16
ATOM     14  O   UNL     1       7.297   5.363  16.766  0.00  0.00    +0.000 OA
ATOM     15  C   UNL     1       6.525   4.639  16.147  0.00  0.00    +0.000 C 
ATOM     16  N   UNL     1       5.534   3.907  16.762  0.00  0.00    +0.000 N 
ATOM     17  H   UNL     1       4.978   3.259  16.222  0.00  0.00    +0.000 HD
BRANCH  15  18
ATOM     18  C   UNL     1       6.647   4.496  14.667  0.00  0.00    +0.000 A 
ATOM     19  C   UNL     1       5.790   3.607  14.004  0.00  0.00    +0.000 A 
ATOM     20  C   UNL     1       5.885   3.435  12.620  0.00  0.00    +0.000 A 
ATOM     21  C   UNL     1       6.842   4.142  11.894  0.00  0.00    +0.000 A 
ATOM     22  C   UNL     1       7.707   5.021  12.548  0.00  0.00    +0.000 A 
ATOM     23  C   UNL     1       7.613   5.197  13.933  0.00  0.00    +0.000 A 
ENDBRANCH  15  18
ENDBRANCH  13  16
ENDBRANCH   1  13
TORSDOF 4
ENDMDL
MODEL 6
REMARK VINA RESULT:      -7.6      1.700      2.541
REMARK  Name = 
REMARK  4 active torsions:
REMARK  status: ('A' for Active; 'I' for Inactive)
REMARK    1  A    between atoms: C_2  and  C_16
REMARK    2  A    between atoms: N_3  and  C_4
REMARK    3  A    between atoms: C_4  and  C_5
REMARK    4  A    between atoms: C_6  and  O_7
REMARK                            x       y       z     vdW  Elec       q    Type
REMARK                         _______ _______ _______ _____ _____    ______ ____
ROOT
ATOM      1  C   UNL     1       3.982   3.533  18.574  0.00  0.00    +0.000 A 
ATOM      2  C   UNL     1       3.547   2.234  18.248  0.00  0.00    +0.000 A 
ATOM      3  C   UNL     1       2.269   1.796  18.580  0.00  0.00    +0.000 A 
ATOM      4  C   UNL     1       1.398   2.638  19.264  0.00  0.00    +0.000 A 
ATOM      5  C   UNL     1       1.789   3.932  19.618  0.00  0.00    +0.000 A 
ATOM      6  C   UNL     1       0.882   4.759  20.302  0.00  0.00    +0.000 A 
ATOM      7  C   UNL     1       1.221   6.061  20.653  0.00  0.00    +0.000 A 
ATOM      8  C   UNL     1       2.477   6.553  20.325  0.00  0.00    +0.000 A 
ATOM      9  C   UNL     1       3.394   5.736  19.653  0.00  0.00    +0.000 A 
ATOM     10  C   UNL     1       3.087   4.406  19.276  0.00  0.00    +0.000 A 
ENDROOT
BRANCH   2  11
ATOM     11  O   UNL     1       4.315   1.318  17.582  0.00  0.00    +0.000 OA
ATOM     12  H   UNL     1       3.768   0.617  17.184  0.00  0.00    +0.000 HD
ENDBRANCH   2  11
BRANCH   1  13
ATOM     13  C   UNL     1       5.372   3.978  18.182  0.00  0.00    +0.000 C 
BRANCH  13  16
ATOM     14  O   UNL     1       5.866   6.025  16.309  0.00  0.00    +0.000 OA
ATOM     15  C   UNL     1       5.886   4.859  15.929  0.00  0.00    +0.000 C 
ATOM     16  N   UNL     1       5.611   3.798  16.763  0.00  0.00    +0.000 N 
ATOM     17  H   UNL     1       5.724   2.852  16.427  0.00  0.00    +0.000 HD
BRANCH  15  18
ATOM     18  C   UNL     1       6.243   4.532  14.518  0.00  0.00    +0.000 A 
ATOM     19  C   UNL     1       7.368   5.144  13.948  0.00  0.00    +0.000 A 
ATOM     20  C   UNL     1       7.725   4.874  12.625  0.00  0.00    +0.000 A 
ATOM     21  C   UNL     1       6.955   3.997  11.861  0.00  0.00    +0.000 A 
ATOM     22  C   UNL     1       5.827   3.392  12.417  0.00  0.00    +0.000 A 
ATOM     23  C   UNL     1       5.468   3.659  13.742  0.00  0.00    +0.000 A 
ENDBRANCH  15  18
ENDBRANCH  13  16
ENDBRANCH   1  13
TORSDOF 4
ENDMDL
MODEL 7
REMARK VINA RESULT:      -7.4      1.008      1.426
REMARK  Name = 
REMARK  4 active torsions:
REMARK  status: ('A' for Active; 'I' for Inactive)
REMARK    1  A    between atoms: C_2  and  C_16
REMARK    2  A    between atoms: N_3  and  C_4
REMARK    3  A    between atoms: C_4  and  C_5
REMARK    4  A    between atoms: C_6  and  O_7
REMARK                            x       y       z     vdW  Elec       q    Type
REMARK                         _______ _______ _______ _____ _____    ______ ____
ROOT
ATOM      1  C   UNL     1       4.814   5.283  18.420  0.00  0.00    +0.000 A 
ATOM      2  C   UNL     1       4.552   6.527  17.815  0.00  0.00    +0.000 A 
ATOM      3  C   UNL     1       3.320   7.155  17.961  0.00  0.00    +0.000 A 
ATOM      4  C   UNL     1       2.309   6.548  18.699  0.00  0.00    +0.000 A 
ATOM      5  C   UNL     1       2.519   5.308  19.310  0.00  0.00    +0.000 A 
ATOM      6  C   UNL     1       1.481   4.725  20.055  0.00  0.00    +0.000 A 
ATOM      7  C   UNL     1       1.654   3.504  20.697  0.00  0.00    +0.000 A 
ATOM      8  C   UNL     1       2.874   2.848  20.600  0.00  0.00    +0.000 A 
ATOM      9  C   UNL     1       3.913   3.412  19.853  0.00  0.00    +0.000 A 
ATOM     10  C   UNL     1       3.777   4.654  19.185  0.00  0.00    +0.000 A 
ENDROOT
BRANCH   2  11
ATOM     11  O   UNL     1       5.464   7.216  17.064  0.00  0.00    +0.000 OA
ATOM     12  H   UNL     1       6.313   6.742  17.011  0.00  0.00    +0.000 HD
ENDBRANCH   2  11
BRANCH   1  13
ATOM     13  C   UNL     1       6.171   4.640  18.252  0.00  0.00    +0.000 C 
BRANCH  13  16
ATOM     14  O   UNL     1       5.024   3.197  16.120  0.00  0.00    +0.000 OA
ATOM     15  C   UNL     1       5.958   3.957  15.884  0.00  0.00    +0.000 C 
ATOM     16  N   UNL     1       6.609   4.666  16.869  0.00  0.00    +0.000 N 
ATOM     17  H   UNL     1       7.315   5.344  16.618  0.00  0.00    +0.000 HD
BRANCH  15  18
ATOM     18  C   UNL     1       6.422   4.170  14.483  0.00  0.00    +0.000 A 
ATOM     19  C   UNL     1       5.862   3.391  13.461  0.00  0.00    +0.000 A 
ATOM     20  C   UNL     1       6.283   3.551  12.139  0.00  0.00    +0.000 A 
ATOM     21  C   UNL     1       7.273   4.483  11.831  0.00  0.00    +0.000 A 
ATOM     22  C   UNL     1       7.845   5.255  12.844  0.00  0.00    +0.000 A 
ATOM     23  C   UNL     1       7.424   5.098  14.168  0.00  0.00    +0.000 A 
ENDBRANCH  15  18
ENDBRANCH  13  16
ENDBRANCH   1  13
TORSDOF 4
ENDMDL
MODEL 8
REMARK VINA RESULT:      -7.3      1.039      1.042
REMARK  Name = 
REMARK  4 active torsions:
REMARK  status: ('A' for Active; 'I' for Inactive)
REMARK    1  A    between atoms: C_2  and  C_16
REMARK    2  A    between atoms: N_3  and  C_4
REMARK    3  A    between atoms: C_4  and  C_5
REMARK    4  A    between atoms: C_6  and  O_7
REMARK                            x       y       z     vdW  Elec       q    Type
REMARK                         _______ _______ _______ _____ _____    ______ ____
ROOT
ATOM      1  C   UNL     1       4.851   5.304  18.384  0.00  0.00    +0.000 A 
ATOM      2  C   UNL     1       4.605   6.546  17.767  0.00  0.00    +0.000 A 
ATOM      3  C   UNL     1       3.382   7.193  17.909  0.00  0.00    +0.000 A 
ATOM      4  C   UNL     1       2.365   6.607  18.656  0.00  0.00    +0.000 A 
ATOM      5  C   UNL     1       2.559   5.371  19.279  0.00  0.00    +0.000 A 
ATOM      6  C   UNL     1       1.514   4.810  20.032  0.00  0.00    +0.000 A 
ATOM      7  C   UNL     1       1.672   3.593  20.686  0.00  0.00    +0.000 A 
ATOM      8  C   UNL     1       2.881   2.919  20.593  0.00  0.00    +0.000 A 
ATOM      9  C   UNL     1       3.927   3.460  19.837  0.00  0.00    +0.000 A 
ATOM     10  C   UNL     1       3.807   4.697  19.157  0.00  0.00    +0.000 A 
ENDROOT
BRANCH   2  11
ATOM     11  O   UNL     1       5.524   7.214  17.006  0.00  0.00    +0.000 OA
ATOM     12  H   UNL     1       6.338   6.691  16.891  0.00  0.00    +0.000 HD
ENDBRANCH   2  11
BRANCH   1  13
ATOM     13  C   UNL     1       6.198   4.640  18.218  0.00  0.00    +0.000 C 
BRANCH  13  16
ATOM     14  O   UNL     1       4.951   3.223  16.125  0.00  0.00    +0.000 OA
ATOM     15  C   UNL     1       5.920   3.929  15.865  0.00  0.00    +0.000 C 
ATOM     16  N   UNL     1       6.619   4.620  16.831  0.00  0.00    +0.000 N 
ATOM     17  H   UNL     1       7.356   5.256  16.559  0.00  0.00    +0.000 HD
BRANCH  15  18
ATOM     18  C   UNL     1       6.377   4.094  14.455  0.00  0.00    +0.000 A 
ATOM     19  C   UNL     1       7.383   5.031  14.179  0.00  0.00    +0.000 A 
ATOM     20  C   UNL     1       7.827   5.225  12.868  0.00  0.00    +0.000 A 
ATOM     21  C   UNL     1       7.262   4.490  11.825  0.00  0.00    +0.000 A 
ATOM     22  C   UNL     1       6.252   3.564  12.091  0.00  0.00    +0.000 A 
ATOM     23  C   UNL     1       5.807   3.366  13.402  0.00  0.00    +0.000 A 
ENDBRANCH  15  18
ENDBRANCH  13  16
ENDBRANCH   1  13
TORSDOF 4
ENDMDL
MODEL 9
REMARK VINA RESULT:      -7.3      1.187      2.596
REMARK  Name = 
REMARK  4 active torsions:
REMARK  status: ('A' for Active; 'I' for Inactive)
REMARK    1  A    between atoms: C_2  and  C_16
REMARK    2  A    between atoms: N_3  and  C_4
REMARK    3  A    between atoms: C_4  and  C_5
REMARK    4  A    between atoms: C_6  and  O_7
REMARK                            x       y       z     vdW  Elec       q    Type
REMARK                         _______ _______ _______ _____ _____    ______ ____
ROOT
ATOM      1  C   UNL     1       4.459   5.533  18.303  0.00  0.00    +0.000 A 
ATOM      2  C   UNL     1       4.880   4.192  18.394  0.00  0.00    +0.000 A 
ATOM      3  C   UNL     1       4.255   3.297  19.255  0.00  0.00    +0.000 A 
ATOM      4  C   UNL     1       3.206   3.722  20.064  0.00  0.00    +0.000 A 
ATOM      5  C   UNL     1       2.761   5.046  20.017  0.00  0.00    +0.000 A 
ATOM      6  C   UNL     1       1.695   5.442  20.842  0.00  0.00    +0.000 A 
ATOM      7  C   UNL     1       1.205   6.742  20.810  0.00  0.00    +0.000 A 
ATOM      8  C   UNL     1       1.781   7.668  19.951  0.00  0.00    +0.000 A 
ATOM      9  C   UNL     1       2.850   7.291  19.131  0.00  0.00    +0.000 A 
ATOM     10  C   UNL     1       3.376   5.976  19.133  0.00  0.00    +0.000 A 
ENDROOT
BRANCH   2  11
ATOM     11  O   UNL     1       5.900   3.662  17.653  0.00  0.00    +0.000 OA
ATOM     12  H   UNL     1       5.619   3.478  16.739  0.00  0.00    +0.000 HD
ENDBRANCH   2  11
BRANCH   1  13
ATOM     13  C   UNL     1       5.153   6.472  17.343  0.00  0.00    +0.000 C 
BRANCH  13  16
ATOM     14  O   UNL     1       7.569   5.867  16.025  0.00  0.00    +0.000 OA
ATOM     15  C   UNL     1       6.510   5.587  15.474  0.00  0.00    +0.000 C 
ATOM     16  N   UNL     1       5.282   5.887  16.022  0.00  0.00    +0.000 N 
ATOM     17  H   UNL     1       4.438   5.561  15.573  0.00  0.00    +0.000 HD
BRANCH  15  18
ATOM     18  C   UNL     1       6.506   4.869  14.167  0.00  0.00    +0.000 A 
ATOM     19  C   UNL     1       5.474   3.958  13.902  0.00  0.00    +0.000 A 
ATOM     20  C   UNL     1       5.445   3.255  12.695  0.00  0.00    +0.000 A 
ATOM     21  C   UNL     1       6.451   3.451  11.750  0.00  0.00    +0.000 A 
ATOM     22  C   UNL     1       7.489   4.348  12.010  0.00  0.00    +0.000 A 
ATOM     23  C   UNL     1       7.520   5.055  13.217  0.00  0.00    +0.000 A 
ENDBRANCH  15  18
ENDBRANCH  13  16
ENDBRANCH   1  13
TORSDOF 4
ENDMDL
