MODEL 1
REMARK VINA RESULT:      -8.5      0.000      0.000
REMARK  Name = 
REMARK  5 active torsions:
REMARK  status: ('A' for Active; 'I' for Inactive)
REMARK    1  A    between atoms: C_1  and  C_2
REMARK    2  A    between atoms: C_2  and  C_21
REMARK    3  A    between atoms: N_3  and  N_4
REMARK    4  A    between atoms: N_4  and  C_5
REMARK    5  A    between atoms: C_7  and  C_8
REMARK                            x       y       z     vdW  Elec       q    Type
REMARK                         _______ _______ _______ _____ _____    ______ ____
ROOT
ATOM      1  C   UNL     1       4.179   5.102  19.236  0.00  0.00    +0.000 A 
ATOM      2  N   UNL     1       3.750   6.359  18.991  0.00  0.00    +0.000 NA
ATOM      3  C   UNL     1       2.533   6.701  19.452  0.00  0.00    +0.000 A 
ATOM      4  N   UNL     1       1.723   5.866  20.132  0.00  0.00    +0.000 NA
ATOM      5  C   UNL     1       2.163   4.633  20.381  0.00  0.00    +0.000 A 
ATOM      6  C   UNL     1       1.315   3.783  21.080  0.00  0.00    +0.000 A 
ATOM      7  C   UNL     1       1.681   2.475  21.405  0.00  0.00    +0.000 A 
ATOM      8  C   UNL     1       2.932   2.006  21.043  0.00  0.00    +0.000 A 
ATOM      9  C   UNL     1       3.796   2.847  20.345  0.00  0.00    +0.000 A 
ATOM     10  C   UNL     1       3.419   4.171  19.978  0.00  0.00    +0.000 A 
ENDROOT
BRANCH   3  11
ATOM     11  C   UNL     1       2.013   8.075  19.204  0.00  0.00    +0.000 A 
ATOM     12  C   UNL     1       2.270   8.739  17.996  0.00  0.00    +0.000 A 
ATOM     13  C   UNL     1       1.797  10.035  17.798  0.00  0.00    +0.000 A 
ATOM     14  C   UNL     1       1.070  10.649  18.806  0.00  0.00    +0.000 A 
ATOM     15  C   UNL     1       0.842   9.936  19.971  0.00  0.00    +0.000 A 
ATOM     16  N   UNL     1       1.290   8.679  20.191  0.00  0.00    +0.000 NA
ENDBRANCH   3  11
BRANCH   1  17
ATOM     17  N   UNL     1       5.466   4.823  18.714  0.00  0.00    +0.000 N 
ATOM     18  H   UNL     1       6.092   5.515  19.130  0.00  0.00    +0.000 HD
BRANCH  17  21
ATOM     19  C   UNL     1       7.177   6.458  17.159  0.00  0.00    +0.000 C 
ATOM     20  C   UNL     1       6.394   5.261  16.665  0.00  0.00    +0.000 C 
ATOM     21  N   UNL     1       5.587   4.543  17.392  0.00  0.00    +0.000 NA
BRANCH  20  22
ATOM     22  C   UNL     1       6.575   4.861  15.229  0.00  0.00    +0.000 A 
ATOM     23  C   UNL     1       5.700   3.961  14.603  0.00  0.00    +0.000 A 
ATOM     24  C   UNL     1       5.883   3.626  13.258  0.00  0.00    +0.000 A 
ATOM     25  C   UNL     1       6.936   4.186  12.545  0.00  0.00    +0.000 A 
ATOM     26  F   UNL     1       7.112   3.855  11.259  0.00  0.00    +0.000 F 
ATOM     27  C   UNL     1       7.805   5.089  13.146  0.00  0.00    +0.000 A 
ATOM     28  C   UNL     1       7.621   5.433  14.487  0.00  0.00    +0.000 A 
ENDBRANCH  20  22
ENDBRANCH  17  21
ENDBRANCH   1  17
TORSDOF 4
ENDMDL
MODEL 2
REMARK VINA RESULT:      -8.3      1.142      1.807
REMARK  Name = 
REMARK  5 active torsions:
REMARK  status: ('A' for Active; 'I' for Inactive)
REMARK    1  A    between atoms: C_1  and  C_2
REMARK    2  A    between atoms: C_2  and  C_21
REMARK    3  A    between atoms: N_3  and  N_4
REMARK    4  A    between atoms: N_4  and  C_5
REMARK    5  A    between atoms: C_7  and  C_8
REMARK                            x       y       z     vdW  Elec       q    Type
REMARK                         _______ _______ _______ _____ _____    ______ ____
ROOT
ATOM      1  C   UNL     1       3.999   5.560  18.917  0.00  0.00    +0.000 A 
ATOM      2  N   UNL     1       3.464   6.738  19.305  0.00  0.00    +0.000 NA
ATOM      3  C   UNL     1       2.213   6.719  19.798  0.00  0.00    +0.000 A 
ATOM      4  N   UNL     1       1.468   5.602  19.917  0.00  0.00    +0.000 NA
ATOM      5  C   UNL     1       2.010   4.444  19.545  0.00  0.00    +0.000 A 
ATOM      6  C   UNL     1       1.228   3.303  19.671  0.00  0.00    +0.000 A 
ATOM      7  C   UNL     1       1.703   2.037  19.322  0.00  0.00    +0.000 A 
ATOM      8  C   UNL     1       2.998   1.900  18.853  0.00  0.00    +0.000 A 
ATOM      9  C   UNL     1       3.798   3.034  18.725  0.00  0.00    +0.000 A 
ATOM     10  C   UNL     1       3.311   4.334  19.044  0.00  0.00    +0.000 A 
ENDROOT
BRANCH   3  11
ATOM     11  C   UNL     1       1.577   7.992  20.237  0.00  0.00    +0.000 A 
ATOM     12  C   UNL     1       1.108   8.153  21.549  0.00  0.00    +0.000 A 
ATOM     13  C   UNL     1       0.492   9.344  21.928  0.00  0.00    +0.000 A 
ATOM     14  C   UNL     1       0.356  10.360  20.996  0.00  0.00    +0.000 A 
ATOM     15  C   UNL     1       0.850  10.144  19.720  0.00  0.00    +0.000 A 
ATOM     16  N   UNL     1       1.450   8.999  19.324  0.00  0.00    +0.000 NA
ENDBRANCH   3  11
BRANCH   1  17
ATOM     17  N   UNL     1       5.317   5.668  18.407  0.00  0.00    +0.000 N 
ATOM     18  H   UNL     1       5.738   6.465  18.888  0.00  0.00    +0.000 HD
BRANCH  17  21
ATOM     19  C   UNL     1       7.734   4.481  17.527  0.00  0.00    +0.000 C 
ATOM     20  C   UNL     1       6.601   4.961  16.645  0.00  0.00    +0.000 C 
ATOM     21  N   UNL     1       5.512   5.534  17.071  0.00  0.00    +0.000 NA
BRANCH  20  22
ATOM     22  C   UNL     1       6.738   4.744  15.166  0.00  0.00    +0.000 A 
ATOM     23  C   UNL     1       7.716   5.411  14.414  0.00  0.00    +0.000 A 
ATOM     24  C   UNL     1       7.832   5.170  13.041  0.00  0.00    +0.000 A 
ATOM     25  C   UNL     1       6.973   4.267  12.426  0.00  0.00    +0.000 A 
ATOM     26  F   UNL     1       7.082   4.046  11.110  0.00  0.00    +0.000 F 
ATOM     27  C   UNL     1       6.007   3.588  13.158  0.00  0.00    +0.000 A 
ATOM     28  C   UNL     1       5.893   3.820  14.530  0.00  0.00    +0.000 A 
ENDBRANCH  20  22
ENDBRANCH  17  21
ENDBRANCH   1  17
TORSDOF 4
ENDMDL
MODEL 3
REMARK VINA RESULT:      -8.3      3.212      7.502
REMARK  Name = 
REMARK  5 active torsions:
REMARK  status: ('A' for Active; 'I' for Inactive)
REMARK    1  A    between atoms: C_1  and  C_2
REMARK    2  A    between atoms: C_2  and  C_21
REMARK    3  A    between atoms: N_3  and  N_4
REMARK    4  A    between atoms: N_4  and  C_5
REMARK    5  A    between atoms: C_7  and  C_8
REMARK                            x       y       z     vdW  Elec       q    Type
REMARK                         _______ _______ _______ _____ _____    ______ ____
ROOT
ATOM      1  C   UNL     1       3.122   5.865  19.152  0.00  0.00    +0.000 A 
ATOM      2  N   UNL     1       4.027   5.925  18.151  0.00  0.00    +0.000 NA
ATOM      3  C   UNL     1       4.267   4.795  17.462  0.00  0.00    +0.000 A 
ATOM      4  N   UNL     1       3.667   3.616  17.717  0.00  0.00    +0.000 NA
ATOM      5  C   UNL     1       2.766   3.571  18.697  0.00  0.00    +0.000 A 
ATOM      6  C   UNL     1       2.158   2.347  18.950  0.00  0.00    +0.000 A 
ATOM      7  C   UNL     1       1.192   2.192  19.945  0.00  0.00    +0.000 A 
ATOM      8  C   UNL     1       0.803   3.288  20.696  0.00  0.00    +0.000 A 
ATOM      9  C   UNL     1       1.399   4.523  20.452  0.00  0.00    +0.000 A 
ATOM     10  C   UNL     1       2.412   4.685  19.464  0.00  0.00    +0.000 A 
ENDROOT
BRANCH   3  11
ATOM     11  C   UNL     1       5.259   4.810  16.351  0.00  0.00    +0.000 A 
ATOM     12  C   UNL     1       4.997   4.160  15.136  0.00  0.00    +0.000 A 
ATOM     13  C   UNL     1       5.951   4.164  14.122  0.00  0.00    +0.000 A 
ATOM     14  C   UNL     1       7.154   4.820  14.331  0.00  0.00    +0.000 A 
ATOM     15  C   UNL     1       7.349   5.451  15.547  0.00  0.00    +0.000 A 
ATOM     16  N   UNL     1       6.441   5.462  16.550  0.00  0.00    +0.000 NA
ENDBRANCH   3  11
BRANCH   1  17
ATOM     17  N   UNL     1       2.931   7.095  19.828  0.00  0.00    +0.000 N 
ATOM     18  H   UNL     1       2.971   6.874  20.826  0.00  0.00    +0.000 HD
BRANCH  17  21
ATOM     19  C   UNL     1       1.435   8.536  21.755  0.00  0.00    +0.000 C 
ATOM     20  C   UNL     1       1.289   8.637  20.251  0.00  0.00    +0.000 C 
ATOM     21  N   UNL     1       1.966   7.940  19.385  0.00  0.00    +0.000 NA
BRANCH  20  22
ATOM     22  C   UNL     1       0.299   9.632  19.719  0.00  0.00    +0.000 A 
ATOM     23  C   UNL     1      -0.044   9.669  18.359  0.00  0.00    +0.000 A 
ATOM     24  C   UNL     1      -0.987  10.593  17.899  0.00  0.00    +0.000 A 
ATOM     25  C   UNL     1      -1.581  11.476  18.793  0.00  0.00    +0.000 A 
ATOM     26  F   UNL     1      -2.477  12.365  18.345  0.00  0.00    +0.000 F 
ATOM     27  C   UNL     1      -1.262  11.445  20.145  0.00  0.00    +0.000 A 
ATOM     28  C   UNL     1      -0.327  10.518  20.611  0.00  0.00    +0.000 A 
ENDBRANCH  20  22
ENDBRANCH  17  21
ENDBRANCH   1  17
TORSDOF 4
ENDMDL
MODEL 4
REMARK VINA RESULT:      -8.1      1.133      1.332
REMARK  Name = 
REMARK  5 active torsions:
REMARK  status: ('A' for Active; 'I' for Inactive)
REMARK    1  A    between atoms: C_1  and  C_2
REMARK    2  A    between atoms: C_2  and  C_21
REMARK    3  A    between atoms: N_3  and  N_4
REMARK    4  A    between atoms: N_4  and  C_5
REMARK    5  A    between atoms: C_7  and  C_8
REMARK                            x       y       z     vdW  Elec       q    Type
REMARK                         _______ _______ _______ _____ _____    ______ ____
ROOT
ATOM      1  C   UNL     1       4.051   5.623  18.782  0.00  0.00    +0.000 A 
ATOM      2  N   UNL     1       3.504   6.787  19.193  0.00  0.00    +0.000 NA
ATOM      3  C   UNL     1       2.260   6.743  19.704  0.00  0.00    +0.000 A 
ATOM      4  N   UNL     1       1.534   5.614  19.820  0.00  0.00    +0.000 NA
ATOM      5  C   UNL     1       2.088   4.469  19.424  0.00  0.00    +0.000 A 
ATOM      6  C   UNL     1       1.325   3.315  19.547  0.00  0.00    +0.000 A 
ATOM      7  C   UNL     1       1.814   2.061  19.175  0.00  0.00    +0.000 A 
ATOM      8  C   UNL     1       3.103   1.949  18.685  0.00  0.00    +0.000 A 
ATOM      9  C   UNL     1       3.884   3.096  18.560  0.00  0.00    +0.000 A 
ATOM     10  C   UNL     1       3.383   4.385  18.904  0.00  0.00    +0.000 A 
ENDROOT
BRANCH   3  11
ATOM     11  C   UNL     1       1.612   8.001  20.168  0.00  0.00    +0.000 A 
ATOM     12  C   UNL     1       1.332   9.045  19.275  0.00  0.00    +0.000 A 
ATOM     13  C   UNL     1       0.751  10.224  19.738  0.00  0.00    +0.000 A 
ATOM     14  C   UNL     1       0.453  10.344  21.086  0.00  0.00    +0.000 A 
ATOM     15  C   UNL     1       0.744   9.274  21.915  0.00  0.00    +0.000 A 
ATOM     16  N   UNL     1       1.309   8.120  21.494  0.00  0.00    +0.000 NA
ENDBRANCH   3  11
BRANCH   1  17
ATOM     17  N   UNL     1       5.359   5.757  18.254  0.00  0.00    +0.000 N 
ATOM     18  H   UNL     1       5.753   6.590  18.696  0.00  0.00    +0.000 HD
BRANCH  17  21
ATOM     19  C   UNL     1       7.728   4.451  17.414  0.00  0.00    +0.000 C 
ATOM     20  C   UNL     1       6.613   4.945  16.517  0.00  0.00    +0.000 C 
ATOM     21  N   UNL     1       5.548   5.572  16.923  0.00  0.00    +0.000 NA
BRANCH  20  22
ATOM     22  C   UNL     1       6.740   4.674  15.045  0.00  0.00    +0.000 A 
ATOM     23  C   UNL     1       5.903   3.755  14.394  0.00  0.00    +0.000 A 
ATOM     24  C   UNL     1       6.032   3.542  13.018  0.00  0.00    +0.000 A 
ATOM     25  C   UNL     1       6.993   4.242  12.299  0.00  0.00    +0.000 A 
ATOM     26  F   UNL     1       7.117   4.028  10.983  0.00  0.00    +0.000 F 
ATOM     27  C   UNL     1       7.821   5.165  12.925  0.00  0.00    +0.000 A 
ATOM     28  C   UNL     1       7.691   5.388  14.298  0.00  0.00    +0.000 A 
ENDBRANCH  20  22
ENDBRANCH  17  21
ENDBRANCH   1  17
TORSDOF 4
ENDMDL
MODEL 5
REMARK VINA RESULT:      -8.1      3.191      7.483
REMARK  Name = 
REMARK  5 active torsions:
REMARK  status: ('A' for Active; 'I' for Inactive)
REMARK    1  A    between atoms: C_1  and  C_2
REMARK    2  A    between atoms: C_2  and  C_21
REMARK    3  A    between atoms: N_3  and  N_4
REMARK    4  A    between atoms: N_4  and  C_5
REMARK    5  A    between atoms: C_7  and  C_8
REMARK                            x       y       z     vdW  Elec       q    Type
REMARK                         _______ _______ _______ _____ _____    ______ ____
ROOT
ATOM      1  C   UNL     1       3.166   5.843  19.127  0.00  0.00    +0.000 A 
ATOM      2  N   UNL     1       4.077   5.882  18.131  0.00  0.00    +0.000 NA
ATOM      3  C   UNL     1       4.313   4.739  17.460  0.00  0.00    +0.000 A 
ATOM      4  N   UNL     1       3.703   3.569  17.730  0.00  0.00    +0.000 NA
ATOM      5  C   UNL     1       2.796   3.545  18.706  0.00  0.00    +0.000 A 
ATOM      6  C   UNL     1       2.178   2.330  18.974  0.00  0.00    +0.000 A 
ATOM      7  C   UNL     1       1.205   2.196  19.965  0.00  0.00    +0.000 A 
ATOM      8  C   UNL     1       0.820   3.306  20.698  0.00  0.00    +0.000 A 
ATOM      9  C   UNL     1       1.426   4.534  20.438  0.00  0.00    +0.000 A 
ATOM     10  C   UNL     1       2.445   4.673  19.453  0.00  0.00    +0.000 A 
ENDROOT
BRANCH   3  11
ATOM     11  C   UNL     1       5.311   4.730  16.355  0.00  0.00    +0.000 A 
ATOM     12  C   UNL     1       6.601   5.248  16.539  0.00  0.00    +0.000 A 
ATOM     13  C   UNL     1       7.508   5.254  15.482  0.00  0.00    +0.000 A 
ATOM     14  C   UNL     1       7.118   4.738  14.256  0.00  0.00    +0.000 A 
ATOM     15  C   UNL     1       5.835   4.232  14.141  0.00  0.00    +0.000 A 
ATOM     16  N   UNL     1       4.933   4.215  15.149  0.00  0.00    +0.000 NA
ENDBRANCH   3  11
BRANCH   1  17
ATOM     17  N   UNL     1       2.979   7.085  19.784  0.00  0.00    +0.000 N 
ATOM     18  H   UNL     1       3.043   6.884  20.784  0.00  0.00    +0.000 HD
BRANCH  17  21
ATOM     19  C   UNL     1       1.475   8.508  21.716  0.00  0.00    +0.000 C 
ATOM     20  C   UNL     1       1.317   8.603  20.214  0.00  0.00    +0.000 C 
ATOM     21  N   UNL     1       1.999   7.914  19.345  0.00  0.00    +0.000 NA
BRANCH  20  22
ATOM     22  C   UNL     1       0.308   9.582  19.686  0.00  0.00    +0.000 A 
ATOM     23  C   UNL     1      -0.315  10.517  20.525  0.00  0.00    +0.000 A 
ATOM     24  C   UNL     1      -1.234  11.429  19.998  0.00  0.00    +0.000 A 
ATOM     25  C   UNL     1      -1.529  11.404  18.640  0.00  0.00    +0.000 A 
ATOM     26  F   UNL     1      -2.417  12.274  18.142  0.00  0.00    +0.000 F 
ATOM     27  C   UNL     1      -0.912  10.492  17.792  0.00  0.00    +0.000 A 
ATOM     28  C   UNL     1       0.013   9.584  18.313  0.00  0.00    +0.000 A 
ENDBRANCH  20  22
ENDBRANCH  17  21
ENDBRANCH   1  17
TORSDOF 4
ENDMDL
MODEL 6
REMARK VINA RESULT:      -8.1      3.152      7.400
REMARK  Name = 
REMARK  5 active torsions:
REMARK  status: ('A' for Active; 'I' for Inactive)
REMARK    1  A    between atoms: C_1  and  C_2
REMARK    2  A    between atoms: C_2  and  C_21
REMARK    3  A    between atoms: N_3  and  N_4
REMARK    4  A    between atoms: N_4  and  C_5
REMARK    5  A    between atoms: C_7  and  C_8
REMARK                            x       y       z     vdW  Elec       q    Type
REMARK                         _______ _______ _______ _____ _____    ______ ____
ROOT
ATOM      1  C   UNL     1       3.050   5.747  19.000  0.00  0.00    +0.000 A 
ATOM      2  N   UNL     1       4.004   5.840  18.048  0.00  0.00    +0.000 NA
ATOM      3  C   UNL     1       4.195   4.771  17.254  0.00  0.00    +0.000 A 
ATOM      4  N   UNL     1       3.502   3.620  17.361  0.00  0.00    +0.000 NA
ATOM      5  C   UNL     1       2.553   3.545  18.294  0.00  0.00    +0.000 A 
ATOM      6  C   UNL     1       1.849   2.351  18.392  0.00  0.00    +0.000 A 
ATOM      7  C   UNL     1       0.827   2.170  19.326  0.00  0.00    +0.000 A 
ATOM      8  C   UNL     1       0.482   3.210  20.172  0.00  0.00    +0.000 A 
ATOM      9  C   UNL     1       1.175   4.415  20.083  0.00  0.00    +0.000 A 
ATOM     10  C   UNL     1       2.243   4.599  19.158  0.00  0.00    +0.000 A 
ENDROOT
BRANCH   3  11
ATOM     11  C   UNL     1       5.238   4.823  16.192  0.00  0.00    +0.000 A 
ATOM     12  C   UNL     1       5.099   4.090  15.005  0.00  0.00    +0.000 A 
ATOM     13  C   UNL     1       6.101   4.132  14.037  0.00  0.00    +0.000 A 
ATOM     14  C   UNL     1       7.225   4.910  14.264  0.00  0.00    +0.000 A 
ATOM     15  C   UNL     1       7.298   5.618  15.451  0.00  0.00    +0.000 A 
ATOM     16  N   UNL     1       6.342   5.594  16.408  0.00  0.00    +0.000 NA
ENDBRANCH   3  11
BRANCH   1  17
ATOM     17  N   UNL     1       2.915   6.913  19.793  0.00  0.00    +0.000 N 
ATOM     18  H   UNL     1       2.728   6.585  20.742  0.00  0.00    +0.000 HD
BRANCH  17  21
ATOM     19  C   UNL     1       1.181   8.275  21.572  0.00  0.00    +0.000 C 
ATOM     20  C   UNL     1       1.411   8.613  20.115  0.00  0.00    +0.000 C 
ATOM     21  N   UNL     1       2.190   7.952  19.307  0.00  0.00    +0.000 NA
BRANCH  20  22
ATOM     22  C   UNL     1       0.700   9.816  19.564  0.00  0.00    +0.000 A 
ATOM     23  C   UNL     1       1.004  11.112  20.003  0.00  0.00    +0.000 A 
ATOM     24  C   UNL     1       0.339  12.213  19.454  0.00  0.00    +0.000 A 
ATOM     25  C   UNL     1      -0.625  12.016  18.473  0.00  0.00    +0.000 A 
ATOM     26  F   UNL     1      -1.265  13.073  17.956  0.00  0.00    +0.000 F 
ATOM     27  C   UNL     1      -0.929  10.740  18.017  0.00  0.00    +0.000 A 
ATOM     28  C   UNL     1      -0.262   9.638  18.556  0.00  0.00    +0.000 A 
ENDBRANCH  20  22
ENDBRANCH  17  21
ENDBRANCH   1  17
TORSDOF 4
ENDMDL
MODEL 7
REMARK VINA RESULT:      -8.0      1.213      1.560
REMARK  Name = 
REMARK  5 active torsions:
REMARK  status: ('A' for Active; 'I' for Inactive)
REMARK    1  A    between atoms: C_1  and  C_2
REMARK    2  A    between atoms: C_2  and  C_21
REMARK    3  A    between atoms: N_3  and  N_4
REMARK    4  A    between atoms: N_4  and  C_5
REMARK    5  A    between atoms: C_7  and  C_8
REMARK                            x       y       z     vdW  Elec       q    Type
REMARK                         _______ _______ _______ _____ _____    ______ ____
ROOT
ATOM      1  C   UNL     1       4.201   5.273  18.742  0.00  0.00    +0.000 A 
ATOM      2  N   UNL     1       3.691   6.474  19.091  0.00  0.00    +0.000 NA
ATOM      3  C   UNL     1       2.415   6.506  19.517  0.00  0.00    +0.000 A 
ATOM      4  N   UNL     1       1.623   5.420  19.605  0.00  0.00    +0.000 NA
ATOM      5  C   UNL     1       2.141   4.238  19.271  0.00  0.00    +0.000 A 
ATOM      6  C   UNL     1       1.311   3.128  19.365  0.00  0.00    +0.000 A 
ATOM      7  C   UNL     1       1.756   1.843  19.051  0.00  0.00    +0.000 A 
ATOM      8  C   UNL     1       3.067   1.652  18.653  0.00  0.00    +0.000 A 
ATOM      9  C   UNL     1       3.915   2.754  18.559  0.00  0.00    +0.000 A 
ATOM     10  C   UNL     1       3.461   4.075  18.842  0.00  0.00    +0.000 A 
ENDROOT
BRANCH   3  11
ATOM     11  C   UNL     1       1.806   7.807  19.911  0.00  0.00    +0.000 A 
ATOM     12  C   UNL     1       1.357   8.029  21.221  0.00  0.00    +0.000 A 
ATOM     13  C   UNL     1       0.765   9.244  21.559  0.00  0.00    +0.000 A 
ATOM     14  C   UNL     1       0.633  10.224  20.587  0.00  0.00    +0.000 A 
ATOM     15  C   UNL     1       1.105   9.947  19.316  0.00  0.00    +0.000 A 
ATOM     16  N   UNL     1       1.682   8.777  18.959  0.00  0.00    +0.000 NA
ENDBRANCH   3  11
BRANCH   1  17
ATOM     17  N   UNL     1       5.547   5.327  18.302  0.00  0.00    +0.000 N 
ATOM     18  H   UNL     1       5.873   6.271  18.518  0.00  0.00    +0.000 HD
BRANCH  17  21
ATOM     19  C   UNL     1       5.036   6.863  15.978  0.00  0.00    +0.000 C 
ATOM     20  C   UNL     1       5.666   5.488  16.019  0.00  0.00    +0.000 C 
ATOM     21  N   UNL     1       5.862   4.786  17.098  0.00  0.00    +0.000 NA
BRANCH  20  22
ATOM     22  C   UNL     1       6.117   4.895  14.714  0.00  0.00    +0.000 A 
ATOM     23  C   UNL     1       5.341   3.945  14.035  0.00  0.00    +0.000 A 
ATOM     24  C   UNL     1       5.778   3.429  12.811  0.00  0.00    +0.000 A 
ATOM     25  C   UNL     1       6.985   3.859  12.273  0.00  0.00    +0.000 A 
ATOM     26  F   UNL     1       7.403   3.355  11.105  0.00  0.00    +0.000 F 
ATOM     27  C   UNL     1       7.760   4.809  12.927  0.00  0.00    +0.000 A 
ATOM     28  C   UNL     1       7.323   5.334  14.145  0.00  0.00    +0.000 A 
ENDBRANCH  20  22
ENDBRANCH  17  21
ENDBRANCH   1  17
TORSDOF 4
ENDMDL
MODEL 8
REMARK VINA RESULT:      -8.0      0.671      1.409
REMARK  Name = 
REMARK  5 active torsions:
REMARK  status: ('A' for Active; 'I' for Inactive)
REMARK    1  A    between atoms: C_1  and  C_2
REMARK    2  A    between atoms: C_2  and  C_21
REMARK    3  A    between atoms: N_3  and  N_4
REMARK    4  A    between atoms: N_4  and  C_5
REMARK    5  A    between atoms: C_7  and  C_8
REMARK                            x       y       z     vdW  Elec       q    Type
REMARK                         _______ _______ _______ _____ _____    ______ ____
ROOT
ATOM      1  C   UNL     1       3.983   5.517  19.316  0.00  0.00    +0.000 A 
ATOM      2  N   UNL     1       3.481   6.770  19.265  0.00  0.00    +0.000 NA
ATOM      3  C   UNL     1       2.255   6.970  19.782  0.00  0.00    +0.000 A 
ATOM      4  N   UNL     1       1.504   5.997  20.335  0.00  0.00    +0.000 NA
ATOM      5  C   UNL     1       2.015   4.768  20.394  0.00  0.00    +0.000 A 
ATOM      6  C   UNL     1       1.228   3.776  20.964  0.00  0.00    +0.000 A 
ATOM      7  C   UNL     1       1.671   2.458  21.087  0.00  0.00    +0.000 A 
ATOM      8  C   UNL     1       2.939   2.120  20.648  0.00  0.00    +0.000 A 
ATOM      9  C   UNL     1       3.744   3.104  20.078  0.00  0.00    +0.000 A 
ATOM     10  C   UNL     1       3.288   4.444  19.916  0.00  0.00    +0.000 A 
ENDROOT
BRANCH   3  11
ATOM     11  C   UNL     1       1.656   8.333  19.746  0.00  0.00    +0.000 A 
ATOM     12  C   UNL     1       1.044   8.885  20.880  0.00  0.00    +0.000 A 
ATOM     13  C   UNL     1       0.466  10.151  20.815  0.00  0.00    +0.000 A 
ATOM     14  C   UNL     1       0.511  10.852  19.620  0.00  0.00    +0.000 A 
ATOM     15  C   UNL     1       1.140  10.257  18.539  0.00  0.00    +0.000 A 
ATOM     16  N   UNL     1       1.707   9.030  18.574  0.00  0.00    +0.000 NA
ENDBRANCH   3  11
BRANCH   1  17
ATOM     17  N   UNL     1       5.275   5.393  18.748  0.00  0.00    +0.000 N 
ATOM     18  H   UNL     1       5.800   6.210  19.066  0.00  0.00    +0.000 HD
BRANCH  17  21
ATOM     19  C   UNL     1       7.199   6.701  17.132  0.00  0.00    +0.000 C 
ATOM     20  C   UNL     1       6.283   5.576  16.698  0.00  0.00    +0.000 C 
ATOM     21  N   UNL     1       5.383   5.012  17.450  0.00  0.00    +0.000 NA
BRANCH  20  22
ATOM     22  C   UNL     1       6.438   5.061  15.296  0.00  0.00    +0.000 A 
ATOM     23  C   UNL     1       7.543   5.410  14.505  0.00  0.00    +0.000 A 
ATOM     24  C   UNL     1       7.669   4.895  13.211  0.00  0.00    +0.000 A 
ATOM     25  C   UNL     1       6.695   4.038  12.712  0.00  0.00    +0.000 A 
ATOM     26  F   UNL     1       6.817   3.555  11.469  0.00  0.00    +0.000 F 
ATOM     27  C   UNL     1       5.601   3.673  13.487  0.00  0.00    +0.000 A 
ATOM     28  C   UNL     1       5.475   4.177  14.783  0.00  0.00    +0.000 A 
ENDBRANCH  20  22
ENDBRANCH  17  21
ENDBRANCH   1  17
TORSDOF 4
ENDMDL
MODEL 9
REMARK VINA RESULT:      -8.0      5.135      9.729
REMARK  Name = 
REMARK  5 active torsions:
REMARK  status: ('A' for Active; 'I' for Inactive)
REMARK    1  A    between atoms: C_1  and  C_2
REMARK    2  A    between atoms: C_2  and  C_21
REMARK    3  A    between atoms: N_3  and  N_4
REMARK    4  A    between atoms: N_4  and  C_5
REMARK    5  A    between atoms: C_7  and  C_8
REMARK                            x       y       z     vdW  Elec       q    Type
REMARK                         _______ _______ _______ _____ _____    ______ ____
ROOT
ATOM      1  C   UNL     1       0.520  10.101  18.827  0.00  0.00    +0.000 A 
ATOM      2  N   UNL     1       1.282   9.195  18.177  0.00  0.00    +0.000 NA
ATOM      3  C   UNL     1       1.852   8.222  18.912  0.00  0.00    +0.000 A 
ATOM      4  N   UNL     1       1.712   8.108  20.247  0.00  0.00    +0.000 NA
ATOM      5  C   UNL     1       0.946   8.998  20.875  0.00  0.00    +0.000 A 
ATOM      6  C   UNL     1       0.814   8.868  22.252  0.00  0.00    +0.000 A 
ATOM      7  C   UNL     1       0.026   9.739  23.006  0.00  0.00    +0.000 A 
ATOM      8  C   UNL     1      -0.667  10.756  22.372  0.00  0.00    +0.000 A 
ATOM      9  C   UNL     1      -0.550  10.898  20.991  0.00  0.00    +0.000 A 
ATOM     10  C   UNL     1       0.280  10.036  20.217  0.00  0.00    +0.000 A 
ENDROOT
BRANCH   3  11
ATOM     11  C   UNL     1       2.704   7.201  18.242  0.00  0.00    +0.000 A 
ATOM     12  C   UNL     1       2.423   5.832  18.360  0.00  0.00    +0.000 A 
ATOM     13  C   UNL     1       3.251   4.894  17.747  0.00  0.00    +0.000 A 
ATOM     14  C   UNL     1       4.347   5.334  17.021  0.00  0.00    +0.000 A 
ATOM     15  C   UNL     1       4.565   6.699  16.934  0.00  0.00    +0.000 A 
ATOM     16  N   UNL     1       3.779   7.631  17.519  0.00  0.00    +0.000 NA
ENDBRANCH   3  11
BRANCH   1  17
ATOM     17  N   UNL     1      -0.039  11.092  17.982  0.00  0.00    +0.000 N 
ATOM     18  H   UNL     1       0.713  11.759  17.799  0.00  0.00    +0.000 HD
BRANCH  17  21
ATOM     19  C   UNL     1      -2.235  10.027  16.544  0.00  0.00    +0.000 C 
ATOM     20  C   UNL     1      -2.306  11.068  17.640  0.00  0.00    +0.000 C 
ATOM     21  N   UNL     1      -1.279  11.567  18.265  0.00  0.00    +0.000 NA
BRANCH  20  22
ATOM     22  C   UNL     1      -3.668  11.550  18.049  0.00  0.00    +0.000 A 
ATOM     23  C   UNL     1      -4.784  11.388  17.215  0.00  0.00    +0.000 A 
ATOM     24  C   UNL     1      -6.043  11.828  17.634  0.00  0.00    +0.000 A 
ATOM     25  C   UNL     1      -6.184  12.427  18.880  0.00  0.00    +0.000 A 
ATOM     26  F   UNL     1      -7.391  12.854  19.273  0.00  0.00    +0.000 F 
ATOM     27  C   UNL     1      -5.092  12.584  19.724  0.00  0.00    +0.000 A 
ATOM     28  C   UNL     1      -3.833  12.139  19.313  0.00  0.00    +0.000 A 
ENDBRANCH  20  22
ENDBRANCH  17  21
ENDBRANCH   1  17
TORSDOF 4
ENDMDL
