MODEL 1
REMARK VINA RESULT:      -7.9      0.000      0.000
REMARK  Name = 
REMARK  7 active torsions:
REMARK  status: ('A' for Active; 'I' for Inactive)
REMARK    1  A    between atoms: N_2  and  C_4
REMARK    2  A    between atoms: C_7  and  N_8
REMARK    3  A    between atoms: N_8  and  C_9
REMARK    4  A    between atoms: C_9  and  N_11
REMARK    5  A    between atoms: N_14  and  C_15
REMARK    6  A    between atoms: C_15  and  C_16
REMARK    7  A    between atoms: C_15  and  C_22
REMARK                            x       y       z     vdW  Elec       q    Type
REMARK                         _______ _______ _______ _____ _____    ______ ____
ROOT
ATOM      1  N   UNL     1       2.266   7.887  19.228  0.00  0.00    +0.000 N 
ATOM      2  C   UNL     1       2.838   8.127  17.895  0.00  0.00    +0.000 C 
ATOM      3  C   UNL     1       4.282   7.601  17.787  0.00  0.00    +0.000 C 
ATOM      4  N   UNL     1       4.457   6.178  18.198  0.00  0.00    +0.000 NA
ATOM      5  C   UNL     1       3.882   6.049  19.559  0.00  0.00    +0.000 C 
ATOM      6  C   UNL     1       2.419   6.503  19.696  0.00  0.00    +0.000 C 
ENDROOT
BRANCH   1   7
ATOM      7  C   UNL     1       1.200   8.701  19.636  0.00  0.00    +0.000 C 
ATOM      8  S   UNL     1       0.600   8.751  21.201  0.00  0.00    +0.000 S 
BRANCH   7   9
ATOM      9  N   UNL     1       0.798   9.525  18.592  0.00  0.00    +0.000 N 
ATOM     10  H   UNL     1       1.588   9.889  18.067  0.00  0.00    +0.000 HD
BRANCH   9  14
ATOM     11  C   UNL     1      -2.989  11.222  17.981  0.00  0.00    +0.000 A 
ATOM     12  C   UNL     1      -2.520  10.215  17.126  0.00  0.00    +0.000 A 
ATOM     13  C   UNL     1      -1.253   9.667  17.340  0.00  0.00    +0.000 A 
ATOM     14  C   UNL     1      -0.441  10.144  18.377  0.00  0.00    +0.000 A 
ATOM     15  C   UNL     1      -0.922  11.142  19.229  0.00  0.00    +0.000 A 
ATOM     16  C   UNL     1      -2.196  11.680  19.039  0.00  0.00    +0.000 A 
BRANCH  11  18
ATOM     17  O   UNL     1      -4.834  11.673  16.652  0.00  0.00    +0.000 OA
ATOM     18  N   UNL     1      -4.326  11.787  17.774  0.00  0.00    +0.000 N 
ATOM     19  O   UNL     1      -4.875  12.333  18.745  0.00  0.00    +0.000 OA
ENDBRANCH  11  18
ENDBRANCH   9  14
ENDBRANCH   7   9
ENDBRANCH   1   7
BRANCH   4  20
ATOM     20  C   UNL     1       3.875   5.228  17.193  0.00  0.00    +0.000 C 
BRANCH  20  21
ATOM     21  C   UNL     1       4.952   4.798  16.184  0.00  0.00    +0.000 A 
ATOM     22  C   UNL     1       6.316   5.019  16.446  0.00  0.00    +0.000 A 
ATOM     23  C   UNL     1       7.277   4.797  15.458  0.00  0.00    +0.000 A 
ATOM     24  C   UNL     1       6.891   4.347  14.197  0.00  0.00    +0.000 A 
ATOM     25  C   UNL     1       5.548   4.086  13.933  0.00  0.00    +0.000 A 
ATOM     26  C   UNL     1       4.584   4.300  14.921  0.00  0.00    +0.000 A 
ENDBRANCH  20  21
BRANCH  20  27
ATOM     27  C   UNL     1       3.160   4.002  17.784  0.00  0.00    +0.000 A 
ATOM     28  C   UNL     1       3.925   2.920  18.261  0.00  0.00    +0.000 A 
ATOM     29  C   UNL     1       3.312   1.787  18.804  0.00  0.00    +0.000 A 
ATOM     30  C   UNL     1       1.924   1.713  18.878  0.00  0.00    +0.000 A 
ATOM     31  C   UNL     1       1.148   2.776  18.421  0.00  0.00    +0.000 A 
ATOM     32  C   UNL     1       1.762   3.917  17.897  0.00  0.00    +0.000 A 
ENDBRANCH  20  27
ENDBRANCH   4  20
TORSDOF 7
ENDMDL
MODEL 2
REMARK VINA RESULT:      -7.9      2.471      4.688
REMARK  Name = 
REMARK  7 active torsions:
REMARK  status: ('A' for Active; 'I' for Inactive)
REMARK    1  A    between atoms: N_2  and  C_4
REMARK    2  A    between atoms: C_7  and  N_8
REMARK    3  A    between atoms: N_8  and  C_9
REMARK    4  A    between atoms: C_9  and  N_11
REMARK    5  A    between atoms: N_14  and  C_15
REMARK    6  A    between atoms: C_15  and  C_16
REMARK    7  A    between atoms: C_15  and  C_22
REMARK                            x       y       z     vdW  Elec       q    Type
REMARK                         _______ _______ _______ _____ _____    ______ ____
ROOT
ATOM      1  N   UNL     1       3.147   4.654  18.944  0.00  0.00    +0.000 N 
ATOM      2  C   UNL     1       4.559   5.002  19.168  0.00  0.00    +0.000 C 
ATOM      3  C   UNL     1       5.510   4.016  18.464  0.00  0.00    +0.000 C 
ATOM      4  N   UNL     1       5.232   3.809  17.014  0.00  0.00    +0.000 NA
ATOM      5  C   UNL     1       3.801   3.432  16.900  0.00  0.00    +0.000 C 
ATOM      6  C   UNL     1       2.812   4.425  17.533  0.00  0.00    +0.000 C 
ENDROOT
BRANCH   1   7
ATOM      7  C   UNL     1       2.205   5.125  19.870  0.00  0.00    +0.000 C 
ATOM      8  S   UNL     1       0.930   4.212  20.462  0.00  0.00    +0.000 S 
BRANCH   7   9
ATOM      9  N   UNL     1       2.549   6.402  20.296  0.00  0.00    +0.000 N 
ATOM     10  H   UNL     1       3.149   6.382  21.117  0.00  0.00    +0.000 HD
BRANCH   9  14
ATOM     11  C   UNL     1       0.683  10.002  19.222  0.00  0.00    +0.000 A 
ATOM     12  C   UNL     1       1.426   9.282  18.277  0.00  0.00    +0.000 A 
ATOM     13  C   UNL     1       2.047   8.089  18.655  0.00  0.00    +0.000 A 
ATOM     14  C   UNL     1       1.960   7.634  19.976  0.00  0.00    +0.000 A 
ATOM     15  C   UNL     1       1.209   8.353  20.908  0.00  0.00    +0.000 A 
ATOM     16  C   UNL     1       0.564   9.534  20.535  0.00  0.00    +0.000 A 
BRANCH  11  18
ATOM     17  O   UNL     1       0.488  12.311  19.230  0.00  0.00    +0.000 OA
ATOM     18  N   UNL     1       0.011  11.244  18.826  0.00  0.00    +0.000 N 
ATOM     19  O   UNL     1      -0.988  11.148  18.096  0.00  0.00    +0.000 OA
ENDBRANCH  11  18
ENDBRANCH   9  14
ENDBRANCH   7   9
ENDBRANCH   1   7
BRANCH   4  20
ATOM     20  C   UNL     1       5.619   5.003  16.193  0.00  0.00    +0.000 C 
BRANCH  20  21
ATOM     21  C   UNL     1       6.637   5.864  16.958  0.00  0.00    +0.000 A 
ATOM     22  C   UNL     1       7.523   5.284  17.881  0.00  0.00    +0.000 A 
ATOM     23  C   UNL     1       8.319   6.082  18.705  0.00  0.00    +0.000 A 
ATOM     24  C   UNL     1       8.246   7.471  18.613  0.00  0.00    +0.000 A 
ATOM     25  C   UNL     1       7.401   8.062  17.676  0.00  0.00    +0.000 A 
ATOM     26  C   UNL     1       6.608   7.266  16.846  0.00  0.00    +0.000 A 
ENDBRANCH  20  21
BRANCH  20  27
ATOM     27  C   UNL     1       6.123   4.692  14.774  0.00  0.00    +0.000 A 
ATOM     28  C   UNL     1       5.369   3.837  13.946  0.00  0.00    +0.000 A 
ATOM     29  C   UNL     1       5.794   3.530  12.650  0.00  0.00    +0.000 A 
ATOM     30  C   UNL     1       6.980   4.068  12.159  0.00  0.00    +0.000 A 
ATOM     31  C   UNL     1       7.735   4.923  12.958  0.00  0.00    +0.000 A 
ATOM     32  C   UNL     1       7.300   5.246  14.245  0.00  0.00    +0.000 A 
ENDBRANCH  20  27
ENDBRANCH   4  20
TORSDOF 7
ENDMDL
MODEL 3
REMARK VINA RESULT:      -7.9      2.576      4.767
REMARK  Name = 
REMARK  7 active torsions:
REMARK  status: ('A' for Active; 'I' for Inactive)
REMARK    1  A    between atoms: N_2  and  C_4
REMARK    2  A    between atoms: C_7  and  N_8
REMARK    3  A    between atoms: N_8  and  C_9
REMARK    4  A    between atoms: C_9  and  N_11
REMARK    5  A    between atoms: N_14  and  C_15
REMARK    6  A    between atoms: C_15  and  C_16
REMARK    7  A    between atoms: C_15  and  C_22
REMARK                            x       y       z     vdW  Elec       q    Type
REMARK                         _______ _______ _______ _____ _____    ______ ____
ROOT
ATOM      1  N   UNL     1       3.113   4.582  19.040  0.00  0.00    +0.000 N 
ATOM      2  C   UNL     1       4.489   5.045  19.271  0.00  0.00    +0.000 C 
ATOM      3  C   UNL     1       5.525   4.109  18.621  0.00  0.00    +0.000 C 
ATOM      4  N   UNL     1       5.289   3.826  17.176  0.00  0.00    +0.000 NA
ATOM      5  C   UNL     1       3.894   3.336  17.056  0.00  0.00    +0.000 C 
ATOM      6  C   UNL     1       2.820   4.273  17.634  0.00  0.00    +0.000 C 
ENDROOT
BRANCH   1   7
ATOM      7  C   UNL     1       2.122   5.015  19.932  0.00  0.00    +0.000 C 
ATOM      8  S   UNL     1       0.852   4.058  20.465  0.00  0.00    +0.000 S 
BRANCH   7   9
ATOM      9  N   UNL     1       2.409   6.297  20.385  0.00  0.00    +0.000 N 
ATOM     10  H   UNL     1       2.863   6.287  21.294  0.00  0.00    +0.000 HD
BRANCH   9  14
ATOM     11  C   UNL     1       1.005  10.062  19.183  0.00  0.00    +0.000 A 
ATOM     12  C   UNL     1       0.806   9.621  20.499  0.00  0.00    +0.000 A 
ATOM     13  C   UNL     1       1.274   8.361  20.879  0.00  0.00    +0.000 A 
ATOM     14  C   UNL     1       1.903   7.528  19.946  0.00  0.00    +0.000 A 
ATOM     15  C   UNL     1       2.105   7.980  18.639  0.00  0.00    +0.000 A 
ATOM     16  C   UNL     1       1.663   9.248  18.255  0.00  0.00    +0.000 A 
BRANCH  11  18
ATOM     17  O   UNL     1       1.357  12.316  18.777  0.00  0.00    +0.000 OA
ATOM     18  N   UNL     1       0.535  11.392  18.783  0.00  0.00    +0.000 N 
ATOM     19  O   UNL     1      -0.658  11.505  18.460  0.00  0.00    +0.000 OA
ENDBRANCH  11  18
ENDBRANCH   9  14
ENDBRANCH   7   9
ENDBRANCH   1   7
BRANCH   4  20
ATOM     20  C   UNL     1       5.599   5.014  16.314  0.00  0.00    +0.000 C 
BRANCH  20  21
ATOM     21  C   UNL     1       6.613   5.929  17.018  0.00  0.00    +0.000 A 
ATOM     22  C   UNL     1       7.555   5.404  17.920  0.00  0.00    +0.000 A 
ATOM     23  C   UNL     1       8.352   6.250  18.693  0.00  0.00    +0.000 A 
ATOM     24  C   UNL     1       8.223   7.632  18.573  0.00  0.00    +0.000 A 
ATOM     25  C   UNL     1       7.322   8.170  17.657  0.00  0.00    +0.000 A 
ATOM     26  C   UNL     1       6.528   7.326  16.876  0.00  0.00    +0.000 A 
ENDBRANCH  20  21
BRANCH  20  27
ATOM     27  C   UNL     1       6.058   4.688  14.883  0.00  0.00    +0.000 A 
ATOM     28  C   UNL     1       7.266   5.233  14.405  0.00  0.00    +0.000 A 
ATOM     29  C   UNL     1       7.718   4.961  13.111  0.00  0.00    +0.000 A 
ATOM     30  C   UNL     1       6.970   4.142  12.269  0.00  0.00    +0.000 A 
ATOM     31  C   UNL     1       5.778   3.584  12.725  0.00  0.00    +0.000 A 
ATOM     32  C   UNL     1       5.337   3.840  14.026  0.00  0.00    +0.000 A 
ENDBRANCH  20  27
ENDBRANCH   4  20
TORSDOF 7
ENDMDL
MODEL 4
REMARK VINA RESULT:      -7.7      4.776      8.493
REMARK  Name = 
REMARK  7 active torsions:
REMARK  status: ('A' for Active; 'I' for Inactive)
REMARK    1  A    between atoms: N_2  and  C_4
REMARK    2  A    between atoms: C_7  and  N_8
REMARK    3  A    between atoms: N_8  and  C_9
REMARK    4  A    between atoms: C_9  and  N_11
REMARK    5  A    between atoms: N_14  and  C_15
REMARK    6  A    between atoms: C_15  and  C_16
REMARK    7  A    between atoms: C_15  and  C_22
REMARK                            x       y       z     vdW  Elec       q    Type
REMARK                         _______ _______ _______ _____ _____    ______ ____
ROOT
ATOM      1  N   UNL     1       5.696   5.730  17.388  0.00  0.00    +0.000 N 
ATOM      2  C   UNL     1       5.314   7.076  17.839  0.00  0.00    +0.000 C 
ATOM      3  C   UNL     1       3.841   7.391  17.518  0.00  0.00    +0.000 C 
ATOM      4  N   UNL     1       2.867   6.368  17.996  0.00  0.00    +0.000 NA
ATOM      5  C   UNL     1       3.320   5.060  17.463  0.00  0.00    +0.000 C 
ATOM      6  C   UNL     1       4.767   4.676  17.817  0.00  0.00    +0.000 C 
ENDROOT
BRANCH   1   7
ATOM      7  C   UNL     1       7.057   5.480  17.163  0.00  0.00    +0.000 C 
ATOM      8  S   UNL     1       8.130   4.975  18.348  0.00  0.00    +0.000 S 
BRANCH   7   9
ATOM      9  N   UNL     1       7.351   5.604  15.810  0.00  0.00    +0.000 N 
ATOM     10  H   UNL     1       7.736   6.518  15.586  0.00  0.00    +0.000 HD
BRANCH   9  14
ATOM     11  C   UNL     1       5.903   3.346  12.585  0.00  0.00    +0.000 A 
ATOM     12  C   UNL     1       5.282   3.266  13.839  0.00  0.00    +0.000 A 
ATOM     13  C   UNL     1       5.783   4.019  14.903  0.00  0.00    +0.000 A 
ATOM     14  C   UNL     1       6.919   4.820  14.732  0.00  0.00    +0.000 A 
ATOM     15  C   UNL     1       7.526   4.901  13.475  0.00  0.00    +0.000 A 
ATOM     16  C   UNL     1       7.019   4.171  12.398  0.00  0.00    +0.000 A 
BRANCH  11  18
ATOM     17  O   UNL     1       4.291   2.933  10.972  0.00  0.00    +0.000 OA
ATOM     18  N   UNL     1       5.371   2.574  11.459  0.00  0.00    +0.000 N 
ATOM     19  O   UNL     1       6.044   1.615  11.051  0.00  0.00    +0.000 OA
ENDBRANCH  11  18
ENDBRANCH   9  14
ENDBRANCH   7   9
ENDBRANCH   1   7
BRANCH   4  20
ATOM     20  C   UNL     1       2.706   6.401  19.487  0.00  0.00    +0.000 C 
BRANCH  20  21
ATOM     21  C   UNL     1       1.863   7.618  19.903  0.00  0.00    +0.000 A 
ATOM     22  C   UNL     1       1.234   7.664  21.159  0.00  0.00    +0.000 A 
ATOM     23  C   UNL     1       0.325   8.679  21.465  0.00  0.00    +0.000 A 
ATOM     24  C   UNL     1       0.038   9.665  20.523  0.00  0.00    +0.000 A 
ATOM     25  C   UNL     1       0.681   9.656  19.287  0.00  0.00    +0.000 A 
ATOM     26  C   UNL     1       1.596   8.646  18.980  0.00  0.00    +0.000 A 
ENDBRANCH  20  21
BRANCH  20  27
ATOM     27  C   UNL     1       2.153   5.112  20.119  0.00  0.00    +0.000 A 
ATOM     28  C   UNL     1       2.777   4.584  21.266  0.00  0.00    +0.000 A 
ATOM     29  C   UNL     1       2.304   3.415  21.869  0.00  0.00    +0.000 A 
ATOM     30  C   UNL     1       1.203   2.750  21.336  0.00  0.00    +0.000 A 
ATOM     31  C   UNL     1       0.566   3.261  20.207  0.00  0.00    +0.000 A 
ATOM     32  C   UNL     1       1.026   4.441  19.617  0.00  0.00    +0.000 A 
ENDBRANCH  20  27
ENDBRANCH   4  20
TORSDOF 7
ENDMDL
MODEL 5
REMARK VINA RESULT:      -7.7      2.649      4.877
REMARK  Name = 
REMARK  7 active torsions:
REMARK  status: ('A' for Active; 'I' for Inactive)
REMARK    1  A    between atoms: N_2  and  C_4
REMARK    2  A    between atoms: C_7  and  N_8
REMARK    3  A    between atoms: N_8  and  C_9
REMARK    4  A    between atoms: C_9  and  N_11
REMARK    5  A    between atoms: N_14  and  C_15
REMARK    6  A    between atoms: C_15  and  C_16
REMARK    7  A    between atoms: C_15  and  C_22
REMARK                            x       y       z     vdW  Elec       q    Type
REMARK                         _______ _______ _______ _____ _____    ______ ____
ROOT
ATOM      1  N   UNL     1       3.012   4.362  19.020  0.00  0.00    +0.000 N 
ATOM      2  C   UNL     1       4.447   4.646  19.167  0.00  0.00    +0.000 C 
ATOM      3  C   UNL     1       5.310   3.685  18.327  0.00  0.00    +0.000 C 
ATOM      4  N   UNL     1       4.924   3.598  16.889  0.00  0.00    +0.000 NA
ATOM      5  C   UNL     1       3.476   3.277  16.850  0.00  0.00    +0.000 C 
ATOM      6  C   UNL     1       2.571   4.251  17.623  0.00  0.00    +0.000 C 
ENDROOT
BRANCH   1   7
ATOM      7  C   UNL     1       2.155   4.792  20.043  0.00  0.00    +0.000 C 
ATOM      8  S   UNL     1       0.984   3.828  20.758  0.00  0.00    +0.000 S 
BRANCH   7   9
ATOM      9  N   UNL     1       2.491   6.080  20.442  0.00  0.00    +0.000 N 
ATOM     10  H   UNL     1       2.980   6.088  21.333  0.00  0.00    +0.000 HD
BRANCH   9  14
ATOM     11  C   UNL     1       1.120   9.840  19.188  0.00  0.00    +0.000 A 
ATOM     12  C   UNL     1       0.825   9.375  20.476  0.00  0.00    +0.000 A 
ATOM     13  C   UNL     1       1.284   8.117  20.874  0.00  0.00    +0.000 A 
ATOM     14  C   UNL     1       2.000   7.309  19.982  0.00  0.00    +0.000 A 
ATOM     15  C   UNL     1       2.296   7.786  18.702  0.00  0.00    +0.000 A 
ATOM     16  C   UNL     1       1.863   9.052  18.302  0.00  0.00    +0.000 A 
BRANCH  11  18
ATOM     17  O   UNL     1      -0.532  11.295  18.463  0.00  0.00    +0.000 OA
ATOM     18  N   UNL     1       0.659  11.168  18.771  0.00  0.00    +0.000 N 
ATOM     19  O   UNL     1       1.491  12.089  18.768  0.00  0.00    +0.000 OA
ENDBRANCH  11  18
ENDBRANCH   9  14
ENDBRANCH   7   9
ENDBRANCH   1   7
BRANCH   4  20
ATOM     20  C   UNL     1       5.298   4.837  16.131  0.00  0.00    +0.000 C 
BRANCH  20  21
ATOM     21  C   UNL     1       6.190   5.740  17.000  0.00  0.00    +0.000 A 
ATOM     22  C   UNL     1       6.037   7.137  16.981  0.00  0.00    +0.000 A 
ATOM     23  C   UNL     1       6.959   7.965  17.625  0.00  0.00    +0.000 A 
ATOM     24  C   UNL     1       8.043   7.408  18.301  0.00  0.00    +0.000 A 
ATOM     25  C   UNL     1       8.188   6.023  18.362  0.00  0.00    +0.000 A 
ATOM     26  C   UNL     1       7.264   5.193  17.725  0.00  0.00    +0.000 A 
ENDBRANCH  20  21
BRANCH  20  27
ATOM     27  C   UNL     1       5.939   4.600  14.754  0.00  0.00    +0.000 A 
ATOM     28  C   UNL     1       5.299   3.748  13.833  0.00  0.00    +0.000 A 
ATOM     29  C   UNL     1       5.850   3.506  12.571  0.00  0.00    +0.000 A 
ATOM     30  C   UNL     1       7.051   4.109  12.207  0.00  0.00    +0.000 A 
ATOM     31  C   UNL     1       7.695   4.963  13.099  0.00  0.00    +0.000 A 
ATOM     32  C   UNL     1       7.134   5.220  14.353  0.00  0.00    +0.000 A 
ENDBRANCH  20  27
ENDBRANCH   4  20
TORSDOF 7
ENDMDL
MODEL 6
REMARK VINA RESULT:      -7.7      4.783      8.532
REMARK  Name = 
REMARK  7 active torsions:
REMARK  status: ('A' for Active; 'I' for Inactive)
REMARK    1  A    between atoms: N_2  and  C_4
REMARK    2  A    between atoms: C_7  and  N_8
REMARK    3  A    between atoms: N_8  and  C_9
REMARK    4  A    between atoms: C_9  and  N_11
REMARK    5  A    between atoms: N_14  and  C_15
REMARK    6  A    between atoms: C_15  and  C_16
REMARK    7  A    between atoms: C_15  and  C_22
REMARK                            x       y       z     vdW  Elec       q    Type
REMARK                         _______ _______ _______ _____ _____    ______ ____
ROOT
ATOM      1  N   UNL     1       5.598   5.782  17.385  0.00  0.00    +0.000 N 
ATOM      2  C   UNL     1       5.206   7.129  17.828  0.00  0.00    +0.000 C 
ATOM      3  C   UNL     1       3.726   7.425  17.522  0.00  0.00    +0.000 C 
ATOM      4  N   UNL     1       2.769   6.396  18.021  0.00  0.00    +0.000 NA
ATOM      5  C   UNL     1       3.230   5.088  17.495  0.00  0.00    +0.000 C 
ATOM      6  C   UNL     1       4.685   4.723  17.835  0.00  0.00    +0.000 C 
ENDROOT
BRANCH   1   7
ATOM      7  C   UNL     1       6.959   5.545  17.147  0.00  0.00    +0.000 C 
ATOM      8  S   UNL     1       8.048   5.047  18.321  0.00  0.00    +0.000 S 
BRANCH   7   9
ATOM      9  N   UNL     1       7.239   5.674  15.792  0.00  0.00    +0.000 N 
ATOM     10  H   UNL     1       7.584   6.602  15.560  0.00  0.00    +0.000 HD
BRANCH   9  14
ATOM     11  C   UNL     1       5.874   3.358  12.572  0.00  0.00    +0.000 A 
ATOM     12  C   UNL     1       5.164   3.376  13.780  0.00  0.00    +0.000 A 
ATOM     13  C   UNL     1       5.638   4.146  14.845  0.00  0.00    +0.000 A 
ATOM     14  C   UNL     1       6.832   4.868  14.720  0.00  0.00    +0.000 A 
ATOM     15  C   UNL     1       7.527   4.852  13.508  0.00  0.00    +0.000 A 
ATOM     16  C   UNL     1       7.050   4.104  12.430  0.00  0.00    +0.000 A 
BRANCH  11  18
ATOM     17  O   UNL     1       6.090   1.659  11.011  0.00  0.00    +0.000 OA
ATOM     18  N   UNL     1       5.371   2.568  11.445  0.00  0.00    +0.000 N 
ATOM     19  O   UNL     1       4.245   2.849  11.003  0.00  0.00    +0.000 OA
ENDBRANCH  11  18
ENDBRANCH   9  14
ENDBRANCH   7   9
ENDBRANCH   1   7
BRANCH   4  20
ATOM     20  C   UNL     1       2.625   6.441  19.514  0.00  0.00    +0.000 C 
BRANCH  20  21
ATOM     21  C   UNL     1       1.726   7.618  19.924  0.00  0.00    +0.000 A 
ATOM     22  C   UNL     1       1.506   8.697  19.050  0.00  0.00    +0.000 A 
ATOM     23  C   UNL     1       0.842   9.845  19.487  0.00  0.00    +0.000 A 
ATOM     24  C   UNL     1       0.384   9.929  20.800  0.00  0.00    +0.000 A 
ATOM     25  C   UNL     1       0.560   8.854  21.669  0.00  0.00    +0.000 A 
ATOM     26  C   UNL     1       1.218   7.701  21.234  0.00  0.00    +0.000 A 
ENDBRANCH  20  21
BRANCH  20  27
ATOM     27  C   UNL     1       2.148   5.134  20.170  0.00  0.00    +0.000 A 
ATOM     28  C   UNL     1       1.049   4.447  19.618  0.00  0.00    +0.000 A 
ATOM     29  C   UNL     1       0.585   3.256  20.186  0.00  0.00    +0.000 A 
ATOM     30  C   UNL     1       1.209   2.733  21.315  0.00  0.00    +0.000 A 
ATOM     31  C   UNL     1       2.303   3.392  21.870  0.00  0.00    +0.000 A 
ATOM     32  C   UNL     1       2.779   4.571  21.290  0.00  0.00    +0.000 A 
ENDBRANCH  20  27
ENDBRANCH   4  20
TORSDOF 7
ENDMDL
MODEL 7
REMARK VINA RESULT:      -7.6      2.627      3.011
REMARK  Name = 
REMARK  7 active torsions:
REMARK  status: ('A' for Active; 'I' for Inactive)
REMARK    1  A    between atoms: N_2  and  C_4
REMARK    2  A    between atoms: C_7  and  N_8
REMARK    3  A    between atoms: N_8  and  C_9
REMARK    4  A    between atoms: C_9  and  N_11
REMARK    5  A    between atoms: N_14  and  C_15
REMARK    6  A    between atoms: C_15  and  C_16
REMARK    7  A    between atoms: C_15  and  C_22
REMARK                            x       y       z     vdW  Elec       q    Type
REMARK                         _______ _______ _______ _____ _____    ______ ____
ROOT
ATOM      1  N   UNL     1       2.253   8.078  18.993  0.00  0.00    +0.000 N 
ATOM      2  C   UNL     1       3.016   8.185  17.741  0.00  0.00    +0.000 C 
ATOM      3  C   UNL     1       4.397   7.513  17.852  0.00  0.00    +0.000 C 
ATOM      4  N   UNL     1       4.367   6.105  18.344  0.00  0.00    +0.000 NA
ATOM      5  C   UNL     1       3.609   6.111  19.619  0.00  0.00    +0.000 C 
ATOM      6  C   UNL     1       2.196   6.715  19.537  0.00  0.00    +0.000 C 
ENDROOT
BRANCH   1   7
ATOM      7  C   UNL     1       1.234   9.015  19.217  0.00  0.00    +0.000 C 
ATOM      8  S   UNL     1       0.277   9.673  18.008  0.00  0.00    +0.000 S 
BRANCH   7   9
ATOM      9  N   UNL     1       1.069   9.227  20.581  0.00  0.00    +0.000 N 
ATOM     10  H   UNL     1       1.280   8.395  21.125  0.00  0.00    +0.000 HD
BRANCH   9  14
ATOM     11  C   UNL     1      -0.894  12.261  22.710  0.00  0.00    +0.000 A 
ATOM     12  C   UNL     1      -1.109  10.916  23.038  0.00  0.00    +0.000 A 
ATOM     13  C   UNL     1      -0.453   9.919  22.313  0.00  0.00    +0.000 A 
ATOM     14  C   UNL     1       0.384  10.256  21.242  0.00  0.00    +0.000 A 
ATOM     15  C   UNL     1       0.600  11.601  20.929  0.00  0.00    +0.000 A 
ATOM     16  C   UNL     1      -0.032  12.607  21.663  0.00  0.00    +0.000 A 
BRANCH  11  18
ATOM     17  O   UNL     1      -0.854  14.153  24.050  0.00  0.00    +0.000 OA
ATOM     18  N   UNL     1      -1.564  13.314  23.481  0.00  0.00    +0.000 N 
ATOM     19  O   UNL     1      -2.805  13.308  23.502  0.00  0.00    +0.000 OA
ENDBRANCH  11  18
ENDBRANCH   9  14
ENDBRANCH   7   9
ENDBRANCH   1   7
BRANCH   4  20
ATOM     20  C   UNL     1       3.824   5.162  17.312  0.00  0.00    +0.000 C 
BRANCH  20  21
ATOM     21  C   UNL     1       4.935   4.751  16.333  0.00  0.00    +0.000 A 
ATOM     22  C   UNL     1       6.290   4.860  16.692  0.00  0.00    +0.000 A 
ATOM     23  C   UNL     1       7.297   4.661  15.746  0.00  0.00    +0.000 A 
ATOM     24  C   UNL     1       6.966   4.345  14.430  0.00  0.00    +0.000 A 
ATOM     25  C   UNL     1       5.629   4.196  14.066  0.00  0.00    +0.000 A 
ATOM     26  C   UNL     1       4.619   4.387  15.011  0.00  0.00    +0.000 A 
ENDBRANCH  20  21
BRANCH  20  27
ATOM     27  C   UNL     1       3.099   3.924  17.866  0.00  0.00    +0.000 A 
ATOM     28  C   UNL     1       3.857   2.830  18.328  0.00  0.00    +0.000 A 
ATOM     29  C   UNL     1       3.235   1.687  18.839  0.00  0.00    +0.000 A 
ATOM     30  C   UNL     1       1.846   1.615  18.895  0.00  0.00    +0.000 A 
ATOM     31  C   UNL     1       1.078   2.689  18.453  0.00  0.00    +0.000 A 
ATOM     32  C   UNL     1       1.700   3.840  17.961  0.00  0.00    +0.000 A 
ENDBRANCH  20  27
ENDBRANCH   4  20
TORSDOF 7
ENDMDL
MODEL 8
REMARK VINA RESULT:      -7.6      4.784      8.508
REMARK  Name = 
REMARK  7 active torsions:
REMARK  status: ('A' for Active; 'I' for Inactive)
REMARK    1  A    between atoms: N_2  and  C_4
REMARK    2  A    between atoms: C_7  and  N_8
REMARK    3  A    between atoms: N_8  and  C_9
REMARK    4  A    between atoms: C_9  and  N_11
REMARK    5  A    between atoms: N_14  and  C_15
REMARK    6  A    between atoms: C_15  and  C_16
REMARK    7  A    between atoms: C_15  and  C_22
REMARK                            x       y       z     vdW  Elec       q    Type
REMARK                         _______ _______ _______ _____ _____    ______ ____
ROOT
ATOM      1  N   UNL     1       5.731   5.717  17.391  0.00  0.00    +0.000 N 
ATOM      2  C   UNL     1       5.349   7.069  17.827  0.00  0.00    +0.000 C 
ATOM      3  C   UNL     1       3.875   7.378  17.506  0.00  0.00    +0.000 C 
ATOM      4  N   UNL     1       2.903   6.361  18.000  0.00  0.00    +0.000 NA
ATOM      5  C   UNL     1       3.356   5.046  17.482  0.00  0.00    +0.000 C 
ATOM      6  C   UNL     1       4.804   4.668  17.836  0.00  0.00    +0.000 C 
ENDROOT
BRANCH   1   7
ATOM      7  C   UNL     1       7.092   5.465  17.165  0.00  0.00    +0.000 C 
ATOM      8  S   UNL     1       8.170   4.982  18.355  0.00  0.00    +0.000 S 
BRANCH   7   9
ATOM      9  N   UNL     1       7.381   5.567  15.810  0.00  0.00    +0.000 N 
ATOM     10  H   UNL     1       7.884   6.423  15.590  0.00  0.00    +0.000 HD
BRANCH   9  14
ATOM     11  C   UNL     1       5.878   3.364  12.573  0.00  0.00    +0.000 A 
ATOM     12  C   UNL     1       7.037   4.137  12.424  0.00  0.00    +0.000 A 
ATOM     13  C   UNL     1       7.519   4.870  13.510  0.00  0.00    +0.000 A 
ATOM     14  C   UNL     1       6.830   4.865  14.729  0.00  0.00    +0.000 A 
ATOM     15  C   UNL     1       5.680   4.084  14.871  0.00  0.00    +0.000 A 
ATOM     16  C   UNL     1       5.203   3.327  13.799  0.00  0.00    +0.000 A 
BRANCH  11  18
ATOM     17  O   UNL     1       4.301   2.910  10.936  0.00  0.00    +0.000 OA
ATOM     18  N   UNL     1       5.379   2.575  11.442  0.00  0.00    +0.000 N 
ATOM     19  O   UNL     1       6.078   1.627  11.051  0.00  0.00    +0.000 OA
ENDBRANCH  11  18
ENDBRANCH   9  14
ENDBRANCH   7   9
ENDBRANCH   1   7
BRANCH   4  20
ATOM     20  C   UNL     1       2.747   6.411  19.491  0.00  0.00    +0.000 C 
BRANCH  20  21
ATOM     21  C   UNL     1       1.893   7.625  19.893  0.00  0.00    +0.000 A 
ATOM     22  C   UNL     1       1.279   7.688  21.156  0.00  0.00    +0.000 A 
ATOM     23  C   UNL     1       0.360   8.697  21.453  0.00  0.00    +0.000 A 
ATOM     24  C   UNL     1       0.048   9.660  20.496  0.00  0.00    +0.000 A 
ATOM     25  C   UNL     1       0.676   9.634  19.252  0.00  0.00    +0.000 A 
ATOM     26  C   UNL     1       1.600   8.631  18.954  0.00  0.00    +0.000 A 
ENDBRANCH  20  21
BRANCH  20  27
ATOM     27  C   UNL     1       2.209   5.126  20.141  0.00  0.00    +0.000 A 
ATOM     28  C   UNL     1       1.105   4.470  19.564  0.00  0.00    +0.000 A 
ATOM     29  C   UNL     1       0.587   3.299  20.125  0.00  0.00    +0.000 A 
ATOM     30  C   UNL     1       1.161   2.764  21.275  0.00  0.00    +0.000 A 
ATOM     31  C   UNL     1       2.260   3.392  21.857  0.00  0.00    +0.000 A 
ATOM     32  C   UNL     1       2.790   4.550  21.284  0.00  0.00    +0.000 A 
ENDBRANCH  20  27
ENDBRANCH   4  20
TORSDOF 7
ENDMDL
MODEL 9
REMARK VINA RESULT:      -7.6      2.542      2.983
REMARK  Name = 
REMARK  7 active torsions:
REMARK  status: ('A' for Active; 'I' for Inactive)
REMARK    1  A    between atoms: N_2  and  C_4
REMARK    2  A    between atoms: C_7  and  N_8
REMARK    3  A    between atoms: N_8  and  C_9
REMARK    4  A    between atoms: C_9  and  N_11
REMARK    5  A    between atoms: N_14  and  C_15
REMARK    6  A    between atoms: C_15  and  C_16
REMARK    7  A    between atoms: C_15  and  C_22
REMARK                            x       y       z     vdW  Elec       q    Type
REMARK                         _______ _______ _______ _____ _____    ______ ____
ROOT
ATOM      1  N   UNL     1       2.403   7.974  18.995  0.00  0.00    +0.000 N 
ATOM      2  C   UNL     1       3.086   8.107  17.700  0.00  0.00    +0.000 C 
ATOM      3  C   UNL     1       4.484   7.461  17.721  0.00  0.00    +0.000 C 
ATOM      4  N   UNL     1       4.511   6.049  18.200  0.00  0.00    +0.000 NA
ATOM      5  C   UNL     1       3.832   6.029  19.519  0.00  0.00    +0.000 C 
ATOM      6  C   UNL     1       2.406   6.605  19.528  0.00  0.00    +0.000 C 
ENDROOT
BRANCH   1   7
ATOM      7  C   UNL     1       1.382   8.889  19.291  0.00  0.00    +0.000 C 
ATOM      8  S   UNL     1       0.461   9.678  18.133  0.00  0.00    +0.000 S 
BRANCH   7   9
ATOM      9  N   UNL     1       1.179   8.955  20.664  0.00  0.00    +0.000 N 
ATOM     10  H   UNL     1       1.494   8.113  21.137  0.00  0.00    +0.000 HD
BRANCH   9  14
ATOM     11  C   UNL     1      -1.391  11.547  22.731  0.00  0.00    +0.000 A 
ATOM     12  C   UNL     1      -0.800  11.951  21.526  0.00  0.00    +0.000 A 
ATOM     13  C   UNL     1       0.060  11.077  20.855  0.00  0.00    +0.000 A 
ATOM     14  C   UNL     1       0.359   9.822  21.399  0.00  0.00    +0.000 A 
ATOM     15  C   UNL     1      -0.243   9.425  22.597  0.00  0.00    +0.000 A 
ATOM     16  C   UNL     1      -1.122  10.281  23.263  0.00  0.00    +0.000 A 
BRANCH  11  18
ATOM     17  O   UNL     1      -1.937  13.615  23.624  0.00  0.00    +0.000 OA
ATOM     18  N   UNL     1      -2.310  12.451  23.429  0.00  0.00    +0.000 N 
ATOM     19  O   UNL     1      -3.414  11.997  23.769  0.00  0.00    +0.000 OA
ENDBRANCH  11  18
ENDBRANCH   9  14
ENDBRANCH   7   9
ENDBRANCH   1   7
BRANCH   4  20
ATOM     20  C   UNL     1       3.924   5.104  17.193  0.00  0.00    +0.000 C 
BRANCH  20  21
ATOM     21  C   UNL     1       4.992   4.696  16.165  0.00  0.00    +0.000 A 
ATOM     22  C   UNL     1       6.360   4.858  16.442  0.00  0.00    +0.000 A 
ATOM     23  C   UNL     1       7.318   4.660  15.446  0.00  0.00    +0.000 A 
ATOM     24  C   UNL     1       6.923   4.290  14.162  0.00  0.00    +0.000 A 
ATOM     25  C   UNL     1       5.574   4.087  13.880  0.00  0.00    +0.000 A 
ATOM     26  C   UNL     1       4.613   4.278  14.876  0.00  0.00    +0.000 A 
ENDBRANCH  20  21
BRANCH  20  27
ATOM     27  C   UNL     1       3.229   3.865  17.780  0.00  0.00    +0.000 A 
ATOM     28  C   UNL     1       1.823   3.837  17.862  0.00  0.00    +0.000 A 
ATOM     29  C   UNL     1       1.153   2.729  18.390  0.00  0.00    +0.000 A 
ATOM     30  C   UNL     1       1.876   1.630  18.848  0.00  0.00    +0.000 A 
ATOM     31  C   UNL     1       3.266   1.634  18.766  0.00  0.00    +0.000 A 
ATOM     32  C   UNL     1       3.934   2.733  18.220  0.00  0.00    +0.000 A 
ENDBRANCH  20  27
ENDBRANCH   4  20
TORSDOF 7
ENDMDL
