MODEL 1
REMARK VINA RESULT:      -8.2      0.000      0.000
REMARK  Name = 
REMARK  5 active torsions:
REMARK  status: ('A' for Active; 'I' for Inactive)
REMARK    1  A    between atoms: C_1  and  C_2
REMARK    2  A    between atoms: N_5  and  C_6
REMARK    3  A    between atoms: C_6  and  C_7
REMARK    4  A    between atoms: C_12  and  C_14
REMARK    5  A    between atoms: C_20  and  C_21
REMARK                            x       y       z     vdW  Elec       q    Type
REMARK                         _______ _______ _______ _____ _____    ______ ____
ROOT
ATOM      1  C   UNL     1       2.701  13.511  18.239  0.00  0.00    +0.000 C 
ATOM      2  C   UNL     1       1.889  12.313  18.628  0.00  0.00    +0.000 A 
ATOM      3  N   UNL     1       2.210  11.127  18.082  0.00  0.00    +0.000 NA
ATOM      4  C   UNL     1       1.457  10.071  18.418  0.00  0.00    +0.000 A 
ATOM      5  N   UNL     1       1.667   8.805  17.845  0.00  0.00    +0.000 N 
ATOM      6  C   UNL     1       0.390  10.197  19.283  0.00  0.00    +0.000 A 
ATOM      7  C   UNL     1       0.174  11.427  19.865  0.00  0.00    +0.000 A 
ATOM      8  N   UNL     1       0.906  12.506  19.524  0.00  0.00    +0.000 NA
ATOM      9  H   UNL     1       1.321   8.086  18.470  0.00  0.00    +0.000 HD
ENDROOT
BRANCH   7  10
ATOM     10  C   UNL     1      -0.830  11.621  20.927  0.00  0.00    +0.000 A 
ATOM     11  C   UNL     1      -0.635  11.090  22.216  0.00  0.00    +0.000 A 
ATOM     12  C   UNL     1      -1.565  11.279  23.245  0.00  0.00    +0.000 A 
ATOM     13  C   UNL     1      -2.727  12.028  22.997  0.00  0.00    +0.000 A 
ATOM     14  N   UNL     1      -3.721  12.306  23.921  0.00  0.00    +0.000 NA
ATOM     15  C   UNL     1      -4.649  13.037  23.352  0.00  0.00    +0.000 A 
ATOM     16  S   UNL     1      -4.414  13.428  21.702  0.00  0.00    +0.000 S 
ATOM     17  C   UNL     1      -2.925  12.560  21.721  0.00  0.00    +0.000 A 
ATOM     18  C   UNL     1      -1.997  12.368  20.682  0.00  0.00    +0.000 A 
ENDBRANCH   7  10
BRANCH   5  19
ATOM     19  C   UNL     1       3.057   8.557  17.490  0.00  0.00    +0.000 C 
BRANCH  19  20
ATOM     20  C   UNL     1       3.399   7.084  17.689  0.00  0.00    +0.000 C 
ATOM     21  C   UNL     1       4.525   6.529  16.793  0.00  0.00    +0.000 C 
ATOM     22  C   UNL     1       4.644   5.009  17.000  0.00  0.00    +0.000 C 
ATOM     23  C   UNL     1       4.744   4.624  18.485  0.00  0.00    +0.000 C 
ATOM     24  N   UNL     1       3.756   5.335  19.297  0.00  0.00    +0.000 N 
ATOM     25  C   UNL     1       2.605   4.784  19.875  0.00  0.00    +0.000 C 
ATOM     26  O   UNL     1       1.802   5.511  20.479  0.00  0.00    +0.000 OA
ATOM     27  C   UNL     1       3.775   6.785  19.142  0.00  0.00    +0.000 C 
BRANCH  25  28
ATOM     28  C   UNL     1       2.331   3.277  19.697  0.00  0.00    +0.000 C 
ATOM     29  C   UNL     1       1.045   2.739  20.393  0.00  0.00    +0.000 C 
ATOM     30  C   UNL     1       0.759   1.898  19.146  0.00  0.00    +0.000 C 
ATOM     31  C   UNL     1       1.691   2.828  18.356  0.00  0.00    +0.000 C 
ENDBRANCH  25  28
ENDBRANCH  19  20
ENDBRANCH   5  19
TORSDOF 4
ENDMDL
MODEL 2
REMARK VINA RESULT:      -8.0      3.760     10.011
REMARK  Name = 
REMARK  5 active torsions:
REMARK  status: ('A' for Active; 'I' for Inactive)
REMARK    1  A    between atoms: C_1  and  C_2
REMARK    2  A    between atoms: N_5  and  C_6
REMARK    3  A    between atoms: C_6  and  C_7
REMARK    4  A    between atoms: C_12  and  C_14
REMARK    5  A    between atoms: C_20  and  C_21
REMARK                            x       y       z     vdW  Elec       q    Type
REMARK                         _______ _______ _______ _____ _____    ______ ____
ROOT
ATOM      1  C   UNL     1       2.010   3.560  21.047  0.00  0.00    +0.000 C 
ATOM      2  C   UNL     1       2.360   4.807  20.294  0.00  0.00    +0.000 A 
ATOM      3  N   UNL     1       1.757   5.954  20.654  0.00  0.00    +0.000 NA
ATOM      4  C   UNL     1       2.059   7.055  19.952  0.00  0.00    +0.000 A 
ATOM      5  N   UNL     1       1.427   8.285  20.204  0.00  0.00    +0.000 N 
ATOM      6  C   UNL     1       2.946   7.012  18.896  0.00  0.00    +0.000 A 
ATOM      7  C   UNL     1       3.585   5.818  18.640  0.00  0.00    +0.000 A 
ATOM      8  N   UNL     1       3.279   4.695  19.320  0.00  0.00    +0.000 NA
ATOM      9  H   UNL     1       2.026   9.044  19.899  0.00  0.00    +0.000 HD
ENDROOT
BRANCH   7  10
ATOM     10  C   UNL     1       4.671   5.714  17.648  0.00  0.00    +0.000 A 
ATOM     11  C   UNL     1       5.926   6.307  17.881  0.00  0.00    +0.000 A 
ATOM     12  C   UNL     1       6.978   6.204  16.963  0.00  0.00    +0.000 A 
ATOM     13  C   UNL     1       6.789   5.478  15.775  0.00  0.00    +0.000 A 
ATOM     14  N   UNL     1       7.741   5.281  14.789  0.00  0.00    +0.000 NA
ATOM     15  C   UNL     1       7.228   4.549  13.830  0.00  0.00    +0.000 A 
ATOM     16  S   UNL     1       5.598   4.062  14.027  0.00  0.00    +0.000 S 
ATOM     17  C   UNL     1       5.547   4.884  15.540  0.00  0.00    +0.000 A 
ATOM     18  C   UNL     1       4.485   4.991  16.456  0.00  0.00    +0.000 A 
ENDBRANCH   7  10
BRANCH   5  19
ATOM     19  C   UNL     1       1.039   8.458  21.596  0.00  0.00    +0.000 C 
BRANCH  19  20
ATOM     20  C   UNL     1       0.162   9.697  21.751  0.00  0.00    +0.000 C 
ATOM     21  C   UNL     1      -0.431   9.928  23.156  0.00  0.00    +0.000 C 
ATOM     22  C   UNL     1      -1.408  11.117  23.111  0.00  0.00    +0.000 C 
ATOM     23  C   UNL     1      -0.789  12.360  22.453  0.00  0.00    +0.000 C 
ATOM     24  N   UNL     1      -0.086  12.025  21.215  0.00  0.00    +0.000 N 
ATOM     25  C   UNL     1      -0.512  12.316  19.913  0.00  0.00    +0.000 C 
ATOM     26  O   UNL     1       0.138  11.908  18.938  0.00  0.00    +0.000 OA
ATOM     27  C   UNL     1       0.912  10.970  21.351  0.00  0.00    +0.000 C 
BRANCH  25  28
ATOM     28  C   UNL     1      -1.827  13.099  19.718  0.00  0.00    +0.000 C 
ATOM     29  C   UNL     1      -3.134  12.255  19.820  0.00  0.00    +0.000 C 
ATOM     30  C   UNL     1      -3.769  13.394  20.624  0.00  0.00    +0.000 C 
ATOM     31  C   UNL     1      -2.355  13.907  20.933  0.00  0.00    +0.000 C 
ENDBRANCH  25  28
ENDBRANCH  19  20
ENDBRANCH   5  19
TORSDOF 4
ENDMDL
MODEL 3
REMARK VINA RESULT:      -8.0      1.999      2.578
REMARK  Name = 
REMARK  5 active torsions:
REMARK  status: ('A' for Active; 'I' for Inactive)
REMARK    1  A    between atoms: C_1  and  C_2
REMARK    2  A    between atoms: N_5  and  C_6
REMARK    3  A    between atoms: C_6  and  C_7
REMARK    4  A    between atoms: C_12  and  C_14
REMARK    5  A    between atoms: C_20  and  C_21
REMARK                            x       y       z     vdW  Elec       q    Type
REMARK                         _______ _______ _______ _____ _____    ______ ____
ROOT
ATOM      1  C   UNL     1      -2.777  10.023  15.974  0.00  0.00    +0.000 C 
ATOM      2  C   UNL     1      -2.077  10.372  17.252  0.00  0.00    +0.000 A 
ATOM      3  N   UNL     1      -0.872   9.821  17.485  0.00  0.00    +0.000 NA
ATOM      4  C   UNL     1      -0.272  10.121  18.645  0.00  0.00    +0.000 A 
ATOM      5  N   UNL     1       0.953   9.537  19.011  0.00  0.00    +0.000 N 
ATOM      6  C   UNL     1      -0.869  10.955  19.567  0.00  0.00    +0.000 A 
ATOM      7  C   UNL     1      -2.065  11.546  19.221  0.00  0.00    +0.000 A 
ATOM      8  N   UNL     1      -2.695  11.241  18.070  0.00  0.00    +0.000 NA
ATOM      9  H   UNL     1       1.436  10.143  19.666  0.00  0.00    +0.000 HD
ENDROOT
BRANCH   7  10
ATOM     10  C   UNL     1      -2.694  12.581  20.063  0.00  0.00    +0.000 A 
ATOM     11  C   UNL     1      -1.914  13.520  20.763  0.00  0.00    +0.000 A 
ATOM     12  C   UNL     1      -2.490  14.523  21.551  0.00  0.00    +0.000 A 
ATOM     13  C   UNL     1      -3.889  14.611  21.645  0.00  0.00    +0.000 A 
ATOM     14  N   UNL     1      -4.592  15.556  22.372  0.00  0.00    +0.000 NA
ATOM     15  C   UNL     1      -5.879  15.348  22.225  0.00  0.00    +0.000 A 
ATOM     16  S   UNL     1      -6.333  14.026  21.236  0.00  0.00    +0.000 S 
ATOM     17  C   UNL     1      -4.668  13.683  20.949  0.00  0.00    +0.000 A 
ATOM     18  C   UNL     1      -4.094  12.670  20.161  0.00  0.00    +0.000 A 
ENDBRANCH   7  10
BRANCH   5  19
ATOM     19  C   UNL     1       1.803   9.221  17.874  0.00  0.00    +0.000 C 
BRANCH  19  20
ATOM     20  C   UNL     1       2.434   7.843  18.051  0.00  0.00    +0.000 C 
ATOM     21  C   UNL     1       3.753   7.605  17.288  0.00  0.00    +0.000 C 
ATOM     22  C   UNL     1       4.176   6.133  17.442  0.00  0.00    +0.000 C 
ATOM     23  C   UNL     1       4.180   5.673  18.908  0.00  0.00    +0.000 C 
ATOM     24  N   UNL     1       2.970   6.099  19.613  0.00  0.00    +0.000 N 
ATOM     25  C   UNL     1       1.908   5.277  20.009  0.00  0.00    +0.000 C 
ATOM     26  O   UNL     1       0.898   5.772  20.533  0.00  0.00    +0.000 OA
ATOM     27  C   UNL     1       2.690   7.527  19.527  0.00  0.00    +0.000 C 
BRANCH  25  28
ATOM     28  C   UNL     1       1.994   3.763  19.730  0.00  0.00    +0.000 C 
ATOM     29  C   UNL     1       0.819   2.906  20.292  0.00  0.00    +0.000 C 
ATOM     30  C   UNL     1       0.814   2.111  18.983  0.00  0.00    +0.000 C 
ATOM     31  C   UNL     1       1.561   3.278  18.320  0.00  0.00    +0.000 C 
ENDBRANCH  25  28
ENDBRANCH  19  20
ENDBRANCH   5  19
TORSDOF 4
ENDMDL
MODEL 4
REMARK VINA RESULT:      -8.0      3.975      9.861
REMARK  Name = 
REMARK  5 active torsions:
REMARK  status: ('A' for Active; 'I' for Inactive)
REMARK    1  A    between atoms: C_1  and  C_2
REMARK    2  A    between atoms: N_5  and  C_6
REMARK    3  A    between atoms: C_6  and  C_7
REMARK    4  A    between atoms: C_12  and  C_14
REMARK    5  A    between atoms: C_20  and  C_21
REMARK                            x       y       z     vdW  Elec       q    Type
REMARK                         _______ _______ _______ _____ _____    ______ ____
ROOT
ATOM      1  C   UNL     1       2.198   4.457  21.283  0.00  0.00    +0.000 C 
ATOM      2  C   UNL     1       2.443   5.527  20.262  0.00  0.00    +0.000 A 
ATOM      3  N   UNL     1       1.740   6.669  20.361  0.00  0.00    +0.000 NA
ATOM      4  C   UNL     1       1.951   7.604  19.423  0.00  0.00    +0.000 A 
ATOM      5  N   UNL     1       1.213   8.799  19.399  0.00  0.00    +0.000 N 
ATOM      6  C   UNL     1       2.847   7.399  18.395  0.00  0.00    +0.000 A 
ATOM      7  C   UNL     1       3.589   6.238  18.408  0.00  0.00    +0.000 A 
ATOM      8  N   UNL     1       3.377   5.276  19.328  0.00  0.00    +0.000 NA
ATOM      9  H   UNL     1       1.746   9.518  18.922  0.00  0.00    +0.000 HD
ENDROOT
BRANCH   7  10
ATOM     10  C   UNL     1       4.688   6.005  17.452  0.00  0.00    +0.000 A 
ATOM     11  C   UNL     1       5.973   6.531  17.682  0.00  0.00    +0.000 A 
ATOM     12  C   UNL     1       7.035   6.306  16.800  0.00  0.00    +0.000 A 
ATOM     13  C   UNL     1       6.826   5.524  15.651  0.00  0.00    +0.000 A 
ATOM     14  N   UNL     1       7.785   5.208  14.704  0.00  0.00    +0.000 NA
ATOM     15  C   UNL     1       7.247   4.454  13.776  0.00  0.00    +0.000 A 
ATOM     16  S   UNL     1       5.585   4.084  13.958  0.00  0.00    +0.000 S 
ATOM     17  C   UNL     1       5.554   4.997  15.420  0.00  0.00    +0.000 A 
ATOM     18  C   UNL     1       4.481   5.225  16.300  0.00  0.00    +0.000 A 
ENDBRANCH   7  10
BRANCH   5  19
ATOM     19  C   UNL     1       0.801   9.249  20.720  0.00  0.00    +0.000 C 
BRANCH  19  20
ATOM     20  C   UNL     1      -0.290  10.309  20.602  0.00  0.00    +0.000 C 
ATOM     21  C   UNL     1      -0.485  11.213  21.836  0.00  0.00    +0.000 C 
ATOM     22  C   UNL     1      -1.713  12.116  21.622  0.00  0.00    +0.000 C 
ATOM     23  C   UNL     1      -1.671  12.855  20.275  0.00  0.00    +0.000 C 
ATOM     24  N   UNL     1      -1.298  11.961  19.179  0.00  0.00    +0.000 N 
ATOM     25  C   UNL     1      -2.149  11.477  18.177  0.00  0.00    +0.000 C 
ATOM     26  O   UNL     1      -1.729  10.659  17.344  0.00  0.00    +0.000 OA
ATOM     27  C   UNL     1      -0.060  11.221  19.394  0.00  0.00    +0.000 C 
BRANCH  25  28
ATOM     28  C   UNL     1      -3.622  11.932  18.167  0.00  0.00    +0.000 C 
ATOM     29  C   UNL     1      -4.442  11.534  16.903  0.00  0.00    +0.000 C 
ATOM     30  C   UNL     1      -5.621  11.185  17.816  0.00  0.00    +0.000 C 
ATOM     31  C   UNL     1      -4.631  11.081  18.985  0.00  0.00    +0.000 C 
ENDBRANCH  25  28
ENDBRANCH  19  20
ENDBRANCH   5  19
TORSDOF 4
ENDMDL
MODEL 5
REMARK VINA RESULT:      -7.8      1.818      2.174
REMARK  Name = 
REMARK  5 active torsions:
REMARK  status: ('A' for Active; 'I' for Inactive)
REMARK    1  A    between atoms: C_1  and  C_2
REMARK    2  A    between atoms: N_5  and  C_6
REMARK    3  A    between atoms: C_6  and  C_7
REMARK    4  A    between atoms: C_12  and  C_14
REMARK    5  A    between atoms: C_20  and  C_21
REMARK                            x       y       z     vdW  Elec       q    Type
REMARK                         _______ _______ _______ _____ _____    ______ ____
ROOT
ATOM      1  C   UNL     1      -2.508  10.969  16.651  0.00  0.00    +0.000 C 
ATOM      2  C   UNL     1      -1.716  10.958  17.923  0.00  0.00    +0.000 A 
ATOM      3  N   UNL     1      -0.633  10.163  17.987  0.00  0.00    +0.000 NA
ATOM      4  C   UNL     1       0.048  10.143  19.141  0.00  0.00    +0.000 A 
ATOM      5  N   UNL     1       1.149   9.290  19.330  0.00  0.00    +0.000 N 
ATOM      6  C   UNL     1      -0.351  10.900  20.223  0.00  0.00    +0.000 A 
ATOM      7  C   UNL     1      -1.421  11.751  20.054  0.00  0.00    +0.000 A 
ATOM      8  N   UNL     1      -2.133  11.771  18.909  0.00  0.00    +0.000 NA
ATOM      9  H   UNL     1       1.758   9.675  20.044  0.00  0.00    +0.000 HD
ENDROOT
BRANCH   7  10
ATOM     10  C   UNL     1      -1.816  12.722  21.091  0.00  0.00    +0.000 A 
ATOM     11  C   UNL     1      -1.054  12.880  22.264  0.00  0.00    +0.000 A 
ATOM     12  C   UNL     1      -1.398  13.810  23.253  0.00  0.00    +0.000 A 
ATOM     13  C   UNL     1      -2.530  14.622  23.074  0.00  0.00    +0.000 A 
ATOM     14  N   UNL     1      -2.978  15.590  23.957  0.00  0.00    +0.000 NA
ATOM     15  C   UNL     1      -4.052  16.161  23.467  0.00  0.00    +0.000 A 
ATOM     16  S   UNL     1      -4.601  15.588  21.951  0.00  0.00    +0.000 S 
ATOM     17  C   UNL     1      -3.288  14.472  21.910  0.00  0.00    +0.000 A 
ATOM     18  C   UNL     1      -2.950  13.535  20.917  0.00  0.00    +0.000 A 
ENDBRANCH   7  10
BRANCH   5  19
ATOM     19  C   UNL     1       1.889   9.025  18.105  0.00  0.00    +0.000 C 
BRANCH  19  20
ATOM     20  C   UNL     1       2.524   7.639  18.160  0.00  0.00    +0.000 C 
ATOM     21  C   UNL     1       3.787   7.444  17.296  0.00  0.00    +0.000 C 
ATOM     22  C   UNL     1       4.213   5.966  17.336  0.00  0.00    +0.000 C 
ATOM     23  C   UNL     1       4.316   5.423  18.770  0.00  0.00    +0.000 C 
ATOM     24  N   UNL     1       3.160   5.809  19.580  0.00  0.00    +0.000 N 
ATOM     25  C   UNL     1       2.124   4.966  20.002  0.00  0.00    +0.000 C 
ATOM     26  O   UNL     1       1.155   5.431  20.621  0.00  0.00    +0.000 OA
ATOM     27  C   UNL     1       2.880   7.240  19.594  0.00  0.00    +0.000 C 
BRANCH  25  28
ATOM     28  C   UNL     1       2.184   3.470  19.631  0.00  0.00    +0.000 C 
ATOM     29  C   UNL     1       0.955   2.618  20.069  0.00  0.00    +0.000 C 
ATOM     30  C   UNL     1       1.005   1.906  18.714  0.00  0.00    +0.000 C 
ATOM     31  C   UNL     1       1.822   3.087  18.171  0.00  0.00    +0.000 C 
ENDBRANCH  25  28
ENDBRANCH  19  20
ENDBRANCH   5  19
TORSDOF 4
ENDMDL
MODEL 6
REMARK VINA RESULT:      -7.7      4.021      9.133
REMARK  Name = 
REMARK  5 active torsions:
REMARK  status: ('A' for Active; 'I' for Inactive)
REMARK    1  A    between atoms: C_1  and  C_2
REMARK    2  A    between atoms: N_5  and  C_6
REMARK    3  A    between atoms: C_6  and  C_7
REMARK    4  A    between atoms: C_12  and  C_14
REMARK    5  A    between atoms: C_20  and  C_21
REMARK                            x       y       z     vdW  Elec       q    Type
REMARK                         _______ _______ _______ _____ _____    ______ ____
ROOT
ATOM      1  C   UNL     1      -0.108   9.508  22.813  0.00  0.00    +0.000 C 
ATOM      2  C   UNL     1       0.464   9.518  21.428  0.00  0.00    +0.000 A 
ATOM      3  N   UNL     1       0.392  10.661  20.722  0.00  0.00    +0.000 NA
ATOM      4  C   UNL     1       0.882  10.645  19.475  0.00  0.00    +0.000 A 
ATOM      5  N   UNL     1       0.787  11.767  18.634  0.00  0.00    +0.000 N 
ATOM      6  C   UNL     1       1.431   9.501  18.934  0.00  0.00    +0.000 A 
ATOM      7  C   UNL     1       1.544   8.394  19.746  0.00  0.00    +0.000 A 
ATOM      8  N   UNL     1       1.038   8.382  20.995  0.00  0.00    +0.000 NA
ATOM      9  H   UNL     1       1.522  11.733  17.936  0.00  0.00    +0.000 HD
ENDROOT
BRANCH   7  10
ATOM     10  C   UNL     1       2.268   7.184  19.316  0.00  0.00    +0.000 A 
ATOM     11  C   UNL     1       3.086   7.195  18.171  0.00  0.00    +0.000 A 
ATOM     12  C   UNL     1       3.798   6.064  17.756  0.00  0.00    +0.000 A 
ATOM     13  C   UNL     1       3.709   4.878  18.505  0.00  0.00    +0.000 A 
ATOM     14  N   UNL     1       4.367   3.694  18.222  0.00  0.00    +0.000 NA
ATOM     15  C   UNL     1       4.064   2.800  19.133  0.00  0.00    +0.000 A 
ATOM     16  S   UNL     1       2.983   3.298  20.363  0.00  0.00    +0.000 S 
ATOM     17  C   UNL     1       2.901   4.862  19.644  0.00  0.00    +0.000 A 
ATOM     18  C   UNL     1       2.179   5.994  20.061  0.00  0.00    +0.000 A 
ENDBRANCH   7  10
BRANCH   5  19
ATOM     19  C   UNL     1       0.814  13.031  19.354  0.00  0.00    +0.000 C 
BRANCH  19  20
ATOM     20  C   UNL     1       2.227  13.608  19.357  0.00  0.00    +0.000 C 
ATOM     21  C   UNL     1       2.789  14.015  17.980  0.00  0.00    +0.000 C 
ATOM     22  C   UNL     1       4.265  14.427  18.130  0.00  0.00    +0.000 C 
ATOM     23  C   UNL     1       4.476  15.458  19.250  0.00  0.00    +0.000 C 
ATOM     24  N   UNL     1       3.757  15.087  20.470  0.00  0.00    +0.000 N 
ATOM     25  C   UNL     1       4.327  14.609  21.656  0.00  0.00    +0.000 C 
ATOM     26  O   UNL     1       3.601  14.254  22.598  0.00  0.00    +0.000 OA
ATOM     27  C   UNL     1       2.336  14.825  20.279  0.00  0.00    +0.000 C 
BRANCH  25  28
ATOM     28  C   UNL     1       5.861  14.477  21.744  0.00  0.00    +0.000 C 
ATOM     29  C   UNL     1       6.603  15.677  22.407  0.00  0.00    +0.000 C 
ATOM     30  C   UNL     1       7.498  14.677  23.145  0.00  0.00    +0.000 C 
ATOM     31  C   UNL     1       6.431  13.601  22.893  0.00  0.00    +0.000 C 
ENDBRANCH  25  28
ENDBRANCH  19  20
ENDBRANCH   5  19
TORSDOF 4
ENDMDL
MODEL 7
REMARK VINA RESULT:      -7.7      4.095      9.228
REMARK  Name = 
REMARK  5 active torsions:
REMARK  status: ('A' for Active; 'I' for Inactive)
REMARK    1  A    between atoms: C_1  and  C_2
REMARK    2  A    between atoms: N_5  and  C_6
REMARK    3  A    between atoms: C_6  and  C_7
REMARK    4  A    between atoms: C_12  and  C_14
REMARK    5  A    between atoms: C_20  and  C_21
REMARK                            x       y       z     vdW  Elec       q    Type
REMARK                         _______ _______ _______ _____ _____    ______ ____
ROOT
ATOM      1  C   UNL     1       0.218   9.380  22.511  0.00  0.00    +0.000 C 
ATOM      2  C   UNL     1       0.729   9.479  21.106  0.00  0.00    +0.000 A 
ATOM      3  N   UNL     1       0.589  10.652  20.463  0.00  0.00    +0.000 NA
ATOM      4  C   UNL     1       1.024  10.715  19.197  0.00  0.00    +0.000 A 
ATOM      5  N   UNL     1       0.856  11.873  18.419  0.00  0.00    +0.000 N 
ATOM      6  C   UNL     1       1.586   9.619  18.576  0.00  0.00    +0.000 A 
ATOM      7  C   UNL     1       1.770   8.478  19.325  0.00  0.00    +0.000 A 
ATOM      8  N   UNL     1       1.320   8.386  20.592  0.00  0.00    +0.000 NA
ATOM      9  H   UNL     1       1.561  11.899  17.690  0.00  0.00    +0.000 HD
ENDROOT
BRANCH   7  10
ATOM     10  C   UNL     1       2.514   7.315  18.805  0.00  0.00    +0.000 A 
ATOM     11  C   UNL     1       2.304   6.026  19.329  0.00  0.00    +0.000 A 
ATOM     12  C   UNL     1       2.984   4.905  18.837  0.00  0.00    +0.000 A 
ATOM     13  C   UNL     1       3.897   5.060  17.781  0.00  0.00    +0.000 A 
ATOM     14  N   UNL     1       4.625   4.043  17.188  0.00  0.00    +0.000 NA
ATOM     15  C   UNL     1       5.368   4.542  16.229  0.00  0.00    +0.000 A 
ATOM     16  S   UNL     1       5.261   6.232  15.979  0.00  0.00    +0.000 S 
ATOM     17  C   UNL     1       4.107   6.337  17.255  0.00  0.00    +0.000 A 
ATOM     18  C   UNL     1       3.431   7.467  17.750  0.00  0.00    +0.000 A 
ENDBRANCH   7  10
BRANCH   5  19
ATOM     19  C   UNL     1       0.875  13.100  19.201  0.00  0.00    +0.000 C 
BRANCH  19  20
ATOM     20  C   UNL     1       2.291  13.664  19.268  0.00  0.00    +0.000 C 
ATOM     21  C   UNL     1       2.935  14.024  17.914  0.00  0.00    +0.000 C 
ATOM     22  C   UNL     1       4.404  14.427  18.136  0.00  0.00    +0.000 C 
ATOM     23  C   UNL     1       4.562  15.489  19.236  0.00  0.00    +0.000 C 
ATOM     24  N   UNL     1       3.770  15.162  20.423  0.00  0.00    +0.000 N 
ATOM     25  C   UNL     1       4.266  14.714  21.654  0.00  0.00    +0.000 C 
ATOM     26  O   UNL     1       3.484  14.395  22.562  0.00  0.00    +0.000 OA
ATOM     27  C   UNL     1       2.359  14.907  20.158  0.00  0.00    +0.000 C 
BRANCH  25  28
ATOM     28  C   UNL     1       5.791  14.572  21.834  0.00  0.00    +0.000 C 
ATOM     29  C   UNL     1       6.441  15.542  22.867  0.00  0.00    +0.000 C 
ATOM     30  C   UNL     1       7.302  14.379  23.370  0.00  0.00    +0.000 C 
ATOM     31  C   UNL     1       6.292  13.412  22.737  0.00  0.00    +0.000 C 
ENDBRANCH  25  28
ENDBRANCH  19  20
ENDBRANCH   5  19
TORSDOF 4
ENDMDL
MODEL 8
REMARK VINA RESULT:      -7.6      2.713      3.960
REMARK  Name = 
REMARK  5 active torsions:
REMARK  status: ('A' for Active; 'I' for Inactive)
REMARK    1  A    between atoms: C_1  and  C_2
REMARK    2  A    between atoms: N_5  and  C_6
REMARK    3  A    between atoms: C_6  and  C_7
REMARK    4  A    between atoms: C_12  and  C_14
REMARK    5  A    between atoms: C_20  and  C_21
REMARK                            x       y       z     vdW  Elec       q    Type
REMARK                         _______ _______ _______ _____ _____    ______ ____
ROOT
ATOM      1  C   UNL     1       1.285  13.539  18.471  0.00  0.00    +0.000 C 
ATOM      2  C   UNL     1       0.372  12.352  18.550  0.00  0.00    +0.000 A 
ATOM      3  N   UNL     1       0.926  11.139  18.722  0.00  0.00    +0.000 NA
ATOM      4  C   UNL     1       0.099  10.085  18.762  0.00  0.00    +0.000 A 
ATOM      5  N   UNL     1       0.587   8.771  18.865  0.00  0.00    +0.000 N 
ATOM      6  C   UNL     1      -1.265  10.238  18.623  0.00  0.00    +0.000 A 
ATOM      7  C   UNL     1      -1.764  11.519  18.532  0.00  0.00    +0.000 A 
ATOM      8  N   UNL     1      -0.948  12.590  18.468  0.00  0.00    +0.000 NA
ATOM      9  H   UNL     1      -0.124   8.176  19.277  0.00  0.00    +0.000 HD
ENDROOT
BRANCH   7  10
ATOM     10  C   UNL     1      -3.212  11.795  18.552  0.00  0.00    +0.000 A 
ATOM     11  C   UNL     1      -4.028  11.470  17.452  0.00  0.00    +0.000 A 
ATOM     12  C   UNL     1      -5.408  11.704  17.458  0.00  0.00    +0.000 A 
ATOM     13  C   UNL     1      -6.009  12.270  18.595  0.00  0.00    +0.000 A 
ATOM     14  N   UNL     1      -7.359  12.541  18.744  0.00  0.00    +0.000 NA
ATOM     15  C   UNL     1      -7.569  13.054  19.933  0.00  0.00    +0.000 A 
ATOM     16  S   UNL     1      -6.195  13.257  20.933  0.00  0.00    +0.000 S 
ATOM     17  C   UNL     1      -5.205  12.591  19.690  0.00  0.00    +0.000 A 
ATOM     18  C   UNL     1      -3.817  12.364  19.688  0.00  0.00    +0.000 A 
ENDBRANCH   7  10
BRANCH   5  19
ATOM     19  C   UNL     1       1.835   8.677  19.606  0.00  0.00    +0.000 C 
BRANCH  19  20
ATOM     20  C   UNL     1       2.429   7.278  19.468  0.00  0.00    +0.000 C 
ATOM     21  C   UNL     1       1.850   6.207  20.415  0.00  0.00    +0.000 C 
ATOM     22  C   UNL     1       2.653   4.902  20.265  0.00  0.00    +0.000 C 
ATOM     23  C   UNL     1       2.795   4.466  18.798  0.00  0.00    +0.000 C 
ATOM     24  N   UNL     1       3.170   5.586  17.934  0.00  0.00    +0.000 N 
ATOM     25  C   UNL     1       4.421   5.795  17.341  0.00  0.00    +0.000 C 
ATOM     26  O   UNL     1       4.638   6.828  16.690  0.00  0.00    +0.000 OA
ATOM     27  C   UNL     1       2.297   6.750  18.038  0.00  0.00    +0.000 C 
BRANCH  25  28
ATOM     28  C   UNL     1       5.533   4.750  17.564  0.00  0.00    +0.000 C 
ATOM     29  C   UNL     1       6.658   4.722  16.484  0.00  0.00    +0.000 C 
ATOM     30  C   UNL     1       7.687   4.554  17.606  0.00  0.00    +0.000 C 
ATOM     31  C   UNL     1       6.644   5.105  18.589  0.00  0.00    +0.000 C 
ENDBRANCH  25  28
ENDBRANCH  19  20
ENDBRANCH   5  19
TORSDOF 4
ENDMDL
MODEL 9
REMARK VINA RESULT:      -7.6      3.734      9.326
REMARK  Name = 
REMARK  5 active torsions:
REMARK  status: ('A' for Active; 'I' for Inactive)
REMARK    1  A    between atoms: C_1  and  C_2
REMARK    2  A    between atoms: N_5  and  C_6
REMARK    3  A    between atoms: C_6  and  C_7
REMARK    4  A    between atoms: C_12  and  C_14
REMARK    5  A    between atoms: C_20  and  C_21
REMARK                            x       y       z     vdW  Elec       q    Type
REMARK                         _______ _______ _______ _____ _____    ______ ____
ROOT
ATOM      1  C   UNL     1      -0.015   9.501  23.327  0.00  0.00    +0.000 C 
ATOM      2  C   UNL     1       0.257   9.741  21.873  0.00  0.00    +0.000 A 
ATOM      3  N   UNL     1      -0.183  10.890  21.328  0.00  0.00    +0.000 NA
ATOM      4  C   UNL     1       0.043  11.076  20.021  0.00  0.00    +0.000 A 
ATOM      5  N   UNL     1      -0.442  12.210  19.345  0.00  0.00    +0.000 N 
ATOM      6  C   UNL     1       0.693  10.125  19.262  0.00  0.00    +0.000 A 
ATOM      7  C   UNL     1       1.186   9.013  19.908  0.00  0.00    +0.000 A 
ATOM      8  N   UNL     1       0.950   8.796  21.217  0.00  0.00    +0.000 NA
ATOM      9  H   UNL     1       0.132  12.391  18.529  0.00  0.00    +0.000 HD
ENDROOT
BRANCH   7  10
ATOM     10  C   UNL     1       2.039   8.026  19.219  0.00  0.00    +0.000 A 
ATOM     11  C   UNL     1       2.662   8.335  17.995  0.00  0.00    +0.000 A 
ATOM     12  C   UNL     1       3.492   7.422  17.334  0.00  0.00    +0.000 A 
ATOM     13  C   UNL     1       3.726   6.160  17.907  0.00  0.00    +0.000 A 
ATOM     14  N   UNL     1       4.532   5.169  17.374  0.00  0.00    +0.000 NA
ATOM     15  C   UNL     1       4.531   4.131  18.176  0.00  0.00    +0.000 A 
ATOM     16  S   UNL     1       3.575   4.257  19.590  0.00  0.00    +0.000 S 
ATOM     17  C   UNL     1       3.113   5.850  19.123  0.00  0.00    +0.000 A 
ATOM     18  C   UNL     1       2.273   6.761  19.788  0.00  0.00    +0.000 A 
ENDBRANCH   7  10
BRANCH   5  19
ATOM     19  C   UNL     1      -0.527  13.391  20.191  0.00  0.00    +0.000 C 
BRANCH  19  20
ATOM     20  C   UNL     1       0.460  14.454  19.717  0.00  0.00    +0.000 C 
ATOM     21  C   UNL     1      -0.154  15.659  18.977  0.00  0.00    +0.000 C 
ATOM     22  C   UNL     1       0.972  16.554  18.431  0.00  0.00    +0.000 C 
ATOM     23  C   UNL     1       2.012  16.911  19.505  0.00  0.00    +0.000 C 
ATOM     24  N   UNL     1       2.407  15.739  20.286  0.00  0.00    +0.000 N 
ATOM     25  C   UNL     1       3.634  15.067  20.212  0.00  0.00    +0.000 C 
ATOM     26  O   UNL     1       3.821  14.035  20.874  0.00  0.00    +0.000 OA
ATOM     27  C   UNL     1       1.297  15.001  20.876  0.00  0.00    +0.000 C 
BRANCH  25  28
ATOM     28  C   UNL     1       4.718  15.602  19.254  0.00  0.00    +0.000 C 
ATOM     29  C   UNL     1       6.146  15.009  19.454  0.00  0.00    +0.000 C 
ATOM     30  C   UNL     1       6.290  14.923  17.932  0.00  0.00    +0.000 C 
ATOM     31  C   UNL     1       4.760  14.995  17.825  0.00  0.00    +0.000 C 
ENDBRANCH  25  28
ENDBRANCH  19  20
ENDBRANCH   5  19
TORSDOF 4
ENDMDL
