MODEL 1
REMARK VINA RESULT:      -9.6      0.000      0.000
REMARK  Name = 
REMARK  4 active torsions:
REMARK  status: ('A' for Active; 'I' for Inactive)
REMARK    1  A    between atoms: N_6  and  C_7
REMARK    2  A    between atoms: C_7  and  C_8
REMARK    3  A    between atoms: C_13  and  O_14
REMARK    4  A    between atoms: O_14  and  C_15
REMARK                            x       y       z     vdW  Elec       q    Type
REMARK                         _______ _______ _______ _____ _____    ______ ____
ROOT
ATOM      1  C   UNL     1       3.623   3.485  18.891  0.00  0.00    +0.000 A 
ATOM      2  C   UNL     1       3.181   2.178  19.235  0.00  0.00    +0.000 A 
ATOM      3  C   UNL     1       1.854   1.792  19.068  0.00  0.00    +0.000 A 
ATOM      4  C   UNL     1       0.937   2.713  18.585  0.00  0.00    +0.000 A 
ATOM      5  C   UNL     1       1.350   4.003  18.192  0.00  0.00    +0.000 A 
ATOM      6  C   UNL     1       2.696   4.395  18.277  0.00  0.00    +0.000 A 
ENDROOT
BRANCH   1   7
ATOM      7  C   UNL     1       5.067   3.803  19.330  0.00  0.00    +0.000 C 
BRANCH   7  13
ATOM      8  N   UNL     1       7.582   8.252  17.360  0.00  0.00    +0.000 N 
ATOM      9  C   UNL     1       7.281   6.963  17.216  0.00  0.00    +0.000 A 
ATOM     10  N   UNL     1       7.703   6.220  16.197  0.00  0.00    +0.000 NA
ATOM     11  N   UNL     1       7.154   5.040  16.495  0.00  0.00    +0.000 N 
ATOM     12  C   UNL     1       6.477   5.059  17.689  0.00  0.00    +0.000 A 
ATOM     13  N   UNL     1       5.916   3.908  18.143  0.00  0.00    +0.000 N 
ATOM     14  N   UNL     1       6.518   6.294  18.147  0.00  0.00    +0.000 NA
ATOM     15  H   UNL     1       8.363   8.604  16.818  0.00  0.00    +0.000 HD
ATOM     16  H   UNL     1       7.480   8.671  18.276  0.00  0.00    +0.000 HD
ATOM     17  H   UNL     1       7.240   4.275  15.840  0.00  0.00    +0.000 HD
ATOM     18  H   UNL     1       6.364   3.028  17.912  0.00  0.00    +0.000 HD
ENDBRANCH   7  13
ENDBRANCH   1   7
BRANCH   6  19
ATOM     19  O   UNL     1       3.132   5.662  17.900  0.00  0.00    +0.000 OA
BRANCH  19  20
ATOM     20  C   UNL     1       2.757   6.874  18.502  0.00  0.00    +0.000 A 
ATOM     21  C   UNL     1       2.533   7.932  17.612  0.00  0.00    +0.000 A 
ATOM     22  C   UNL     1       1.834   9.097  17.997  0.00  0.00    +0.000 A 
ATOM     23  C   UNL     1       1.323   9.275  19.294  0.00  0.00    +0.000 A 
ATOM     24  C   UNL     1       0.558  10.413  19.634  0.00  0.00    +0.000 A 
ATOM     25  C   UNL     1       0.045  10.599  20.917  0.00  0.00    +0.000 A 
ATOM     26  C   UNL     1       0.298   9.628  21.877  0.00  0.00    +0.000 A 
ATOM     27  C   UNL     1       1.041   8.470  21.541  0.00  0.00    +0.000 A 
ATOM     28  C   UNL     1       1.570   8.245  20.241  0.00  0.00    +0.000 A 
ATOM     29  C   UNL     1       2.292   7.049  19.822  0.00  0.00    +0.000 A 
ENDBRANCH  19  20
ENDBRANCH   6  19
TORSDOF 4
ENDMDL
MODEL 2
REMARK VINA RESULT:      -9.6      1.557      1.894
REMARK  Name = 
REMARK  4 active torsions:
REMARK  status: ('A' for Active; 'I' for Inactive)
REMARK    1  A    between atoms: N_6  and  C_7
REMARK    2  A    between atoms: C_7  and  C_8
REMARK    3  A    between atoms: C_13  and  O_14
REMARK    4  A    between atoms: O_14  and  C_15
REMARK                            x       y       z     vdW  Elec       q    Type
REMARK                         _______ _______ _______ _____ _____    ______ ____
ROOT
ATOM      1  C   UNL     1       2.305   3.723  18.403  0.00  0.00    +0.000 A 
ATOM      2  C   UNL     1       1.503   2.556  18.541  0.00  0.00    +0.000 A 
ATOM      3  C   UNL     1       0.786   2.301  19.706  0.00  0.00    +0.000 A 
ATOM      4  C   UNL     1       0.880   3.188  20.768  0.00  0.00    +0.000 A 
ATOM      5  C   UNL     1       1.629   4.377  20.648  0.00  0.00    +0.000 A 
ATOM      6  C   UNL     1       2.302   4.699  19.457  0.00  0.00    +0.000 A 
ENDROOT
BRANCH   1   7
ATOM      7  C   UNL     1       3.186   3.742  17.137  0.00  0.00    +0.000 C 
BRANCH   7  13
ATOM      8  N   UNL     1       7.447   5.357  14.099  0.00  0.00    +0.000 N 
ATOM      9  C   UNL     1       6.999   4.869  15.254  0.00  0.00    +0.000 A 
ATOM     10  N   UNL     1       7.786   4.592  16.289  0.00  0.00    +0.000 NA
ATOM     11  N   UNL     1       6.895   4.144  17.177  0.00  0.00    +0.000 N 
ATOM     12  C   UNL     1       5.606   4.211  16.710  0.00  0.00    +0.000 A 
ATOM     13  N   UNL     1       4.591   3.838  17.534  0.00  0.00    +0.000 N 
ATOM     14  N   UNL     1       5.657   4.640  15.465  0.00  0.00    +0.000 NA
ATOM     15  H   UNL     1       8.373   5.769  14.104  0.00  0.00    +0.000 HD
ATOM     16  H   UNL     1       6.787   5.808  13.479  0.00  0.00    +0.000 HD
ATOM     17  H   UNL     1       7.219   3.775  18.060  0.00  0.00    +0.000 HD
ATOM     18  H   UNL     1       4.700   3.984  18.531  0.00  0.00    +0.000 HD
ENDBRANCH   7  13
ENDBRANCH   1   7
BRANCH   6  19
ATOM     19  O   UNL     1       3.051   5.862  19.312  0.00  0.00    +0.000 OA
BRANCH  19  20
ATOM     20  C   UNL     1       2.546   7.173  19.319  0.00  0.00    +0.000 A 
ATOM     21  C   UNL     1       2.465   7.782  18.060  0.00  0.00    +0.000 A 
ATOM     22  C   UNL     1       1.681   8.935  17.837  0.00  0.00    +0.000 A 
ATOM     23  C   UNL     1       0.938   9.550  18.858  0.00  0.00    +0.000 A 
ATOM     24  C   UNL     1       0.099  10.656  18.595  0.00  0.00    +0.000 A 
ATOM     25  C   UNL     1      -0.644  11.273  19.600  0.00  0.00    +0.000 A 
ATOM     26  C   UNL     1      -0.549  10.774  20.893  0.00  0.00    +0.000 A 
ATOM     27  C   UNL     1       0.268   9.650  21.165  0.00  0.00    +0.000 A 
ATOM     28  C   UNL     1       1.031   8.992  20.161  0.00  0.00    +0.000 A 
ATOM     29  C   UNL     1       1.844   7.799  20.369  0.00  0.00    +0.000 A 
ENDBRANCH  19  20
ENDBRANCH   6  19
TORSDOF 4
ENDMDL
MODEL 3
REMARK VINA RESULT:      -9.5      1.310      1.846
REMARK  Name = 
REMARK  4 active torsions:
REMARK  status: ('A' for Active; 'I' for Inactive)
REMARK    1  A    between atoms: N_6  and  C_7
REMARK    2  A    between atoms: C_7  and  C_8
REMARK    3  A    between atoms: C_13  and  O_14
REMARK    4  A    between atoms: O_14  and  C_15
REMARK                            x       y       z     vdW  Elec       q    Type
REMARK                         _______ _______ _______ _____ _____    ______ ____
ROOT
ATOM      1  C   UNL     1       3.889   3.868  18.358  0.00  0.00    +0.000 A 
ATOM      2  C   UNL     1       3.509   2.507  18.525  0.00  0.00    +0.000 A 
ATOM      3  C   UNL     1       2.178   2.109  18.442  0.00  0.00    +0.000 A 
ATOM      4  C   UNL     1       1.197   3.066  18.222  0.00  0.00    +0.000 A 
ATOM      5  C   UNL     1       1.543   4.415  18.008  0.00  0.00    +0.000 A 
ATOM      6  C   UNL     1       2.885   4.834  18.010  0.00  0.00    +0.000 A 
ENDROOT
BRANCH   1   7
ATOM      7  C   UNL     1       5.368   4.158  18.685  0.00  0.00    +0.000 C 
BRANCH   7  13
ATOM      8  N   UNL     1       6.397   3.353  13.366  0.00  0.00    +0.000 N 
ATOM      9  C   UNL     1       6.449   4.165  14.420  0.00  0.00    +0.000 A 
ATOM     10  N   UNL     1       6.919   5.408  14.367  0.00  0.00    +0.000 NA
ATOM     11  N   UNL     1       6.764   5.795  15.636  0.00  0.00    +0.000 N 
ATOM     12  C   UNL     1       6.163   4.834  16.411  0.00  0.00    +0.000 A 
ATOM     13  N   UNL     1       5.893   5.117  17.713  0.00  0.00    +0.000 N 
ATOM     14  N   UNL     1       5.986   3.769  15.655  0.00  0.00    +0.000 NA
ATOM     15  H   UNL     1       6.475   3.784  12.451  0.00  0.00    +0.000 HD
ATOM     16  H   UNL     1       5.779   2.553  13.404  0.00  0.00    +0.000 HD
ATOM     17  H   UNL     1       7.116   6.697  15.924  0.00  0.00    +0.000 HD
ATOM     18  H   UNL     1       5.679   6.076  17.965  0.00  0.00    +0.000 HD
ENDBRANCH   7  13
ENDBRANCH   1   7
BRANCH   6  19
ATOM     19  O   UNL     1       3.256   6.159  17.804  0.00  0.00    +0.000 OA
BRANCH  19  20
ATOM     20  C   UNL     1       2.733   7.274  18.481  0.00  0.00    +0.000 A 
ATOM     21  C   UNL     1       2.331   8.332  17.656  0.00  0.00    +0.000 A 
ATOM     22  C   UNL     1       1.487   9.363  18.122  0.00  0.00    +0.000 A 
ATOM     23  C   UNL     1       1.001   9.402  19.439  0.00  0.00    +0.000 A 
ATOM     24  C   UNL     1       0.095  10.401  19.861  0.00  0.00    +0.000 A 
ATOM     25  C   UNL     1      -0.394  10.448  21.166  0.00  0.00    +0.000 A 
ATOM     26  C   UNL     1       0.027   9.477  22.066  0.00  0.00    +0.000 A 
ATOM     27  C   UNL     1       0.915   8.456  21.648  0.00  0.00    +0.000 A 
ATOM     28  C   UNL     1       1.425   8.374  20.323  0.00  0.00    +0.000 A 
ATOM     29  C   UNL     1       2.294   7.315  19.820  0.00  0.00    +0.000 A 
ENDBRANCH  19  20
ENDBRANCH   6  19
TORSDOF 4
ENDMDL
MODEL 4
REMARK VINA RESULT:      -9.5      1.104      1.393
REMARK  Name = 
REMARK  4 active torsions:
REMARK  status: ('A' for Active; 'I' for Inactive)
REMARK    1  A    between atoms: N_6  and  C_7
REMARK    2  A    between atoms: C_7  and  C_8
REMARK    3  A    between atoms: C_13  and  O_14
REMARK    4  A    between atoms: O_14  and  C_15
REMARK                            x       y       z     vdW  Elec       q    Type
REMARK                         _______ _______ _______ _____ _____    ______ ____
ROOT
ATOM      1  C   UNL     1       2.809   3.757  18.258  0.00  0.00    +0.000 A 
ATOM      2  C   UNL     1       2.049   2.576  18.032  0.00  0.00    +0.000 A 
ATOM      3  C   UNL     1       0.975   2.237  18.849  0.00  0.00    +0.000 A 
ATOM      4  C   UNL     1       0.659   3.052  19.926  0.00  0.00    +0.000 A 
ATOM      5  C   UNL     1       1.363   4.252  20.151  0.00  0.00    +0.000 A 
ATOM      6  C   UNL     1       2.402   4.660  19.298  0.00  0.00    +0.000 A 
ENDROOT
BRANCH   1   7
ATOM      7  C   UNL     1       4.080   3.869  17.390  0.00  0.00    +0.000 C 
BRANCH   7  13
ATOM      8  N   UNL     1       7.726   7.955  17.324  0.00  0.00    +0.000 N 
ATOM      9  C   UNL     1       7.341   6.789  17.837  0.00  0.00    +0.000 A 
ATOM     10  N   UNL     1       7.997   6.161  18.808  0.00  0.00    +0.000 NA
ATOM     11  N   UNL     1       7.240   5.073  18.968  0.00  0.00    +0.000 N 
ATOM     12  C   UNL     1       6.129   5.080  18.162  0.00  0.00    +0.000 A 
ATOM     13  N   UNL     1       5.239   4.057  18.263  0.00  0.00    +0.000 N 
ATOM     14  N   UNL     1       6.197   6.156  17.404  0.00  0.00    +0.000 NA
ATOM     15  H   UNL     1       8.388   8.498  17.866  0.00  0.00    +0.000 HD
ATOM     16  H   UNL     1       7.047   8.505  16.813  0.00  0.00    +0.000 HD
ATOM     17  H   UNL     1       7.542   4.349  19.605  0.00  0.00    +0.000 HD
ATOM     18  H   UNL     1       5.119   3.608  19.164  0.00  0.00    +0.000 HD
ENDBRANCH   7  13
ENDBRANCH   1   7
BRANCH   6  19
ATOM     19  O   UNL     1       3.116   5.837  19.498  0.00  0.00    +0.000 OA
BRANCH  19  20
ATOM     20  C   UNL     1       2.592   7.139  19.430  0.00  0.00    +0.000 A 
ATOM     21  C   UNL     1       2.538   7.689  18.143  0.00  0.00    +0.000 A 
ATOM     22  C   UNL     1       1.745   8.819  17.846  0.00  0.00    +0.000 A 
ATOM     23  C   UNL     1       0.965   9.468  18.818  0.00  0.00    +0.000 A 
ATOM     24  C   UNL     1       0.119  10.548  18.481  0.00  0.00    +0.000 A 
ATOM     25  C   UNL     1      -0.661  11.199  19.437  0.00  0.00    +0.000 A 
ATOM     26  C   UNL     1      -0.595  10.761  20.753  0.00  0.00    +0.000 A 
ATOM     27  C   UNL     1       0.230   9.662  21.098  0.00  0.00    +0.000 A 
ATOM     28  C   UNL     1       1.029   8.971  20.147  0.00  0.00    +0.000 A 
ATOM     29  C   UNL     1       1.852   7.801  20.432  0.00  0.00    +0.000 A 
ENDBRANCH  19  20
ENDBRANCH   6  19
TORSDOF 4
ENDMDL
MODEL 5
REMARK VINA RESULT:      -9.0      1.478      2.068
REMARK  Name = 
REMARK  4 active torsions:
REMARK  status: ('A' for Active; 'I' for Inactive)
REMARK    1  A    between atoms: N_6  and  C_7
REMARK    2  A    between atoms: C_7  and  C_8
REMARK    3  A    between atoms: C_13  and  O_14
REMARK    4  A    between atoms: O_14  and  C_15
REMARK                            x       y       z     vdW  Elec       q    Type
REMARK                         _______ _______ _______ _____ _____    ______ ____
ROOT
ATOM      1  C   UNL     1       3.778   3.774  18.684  0.00  0.00    +0.000 A 
ATOM      2  C   UNL     1       3.377   2.585  18.014  0.00  0.00    +0.000 A 
ATOM      3  C   UNL     1       2.044   2.185  17.980  0.00  0.00    +0.000 A 
ATOM      4  C   UNL     1       1.092   2.946  18.642  0.00  0.00    +0.000 A 
ATOM      5  C   UNL     1       1.449   4.153  19.277  0.00  0.00    +0.000 A 
ATOM      6  C   UNL     1       2.773   4.621  19.261  0.00  0.00    +0.000 A 
ENDROOT
BRANCH   1   7
ATOM      7  C   UNL     1       5.306   3.954  18.796  0.00  0.00    +0.000 C 
BRANCH   7  13
ATOM      8  N   UNL     1       6.370   3.434  13.448  0.00  0.00    +0.000 N 
ATOM      9  C   UNL     1       6.355   4.210  14.530  0.00  0.00    +0.000 A 
ATOM     10  N   UNL     1       6.709   5.491  14.521  0.00  0.00    +0.000 NA
ATOM     11  N   UNL     1       6.529   5.818  15.803  0.00  0.00    +0.000 N 
ATOM     12  C   UNL     1       6.021   4.780  16.545  0.00  0.00    +0.000 A 
ATOM     13  N   UNL     1       5.735   4.991  17.857  0.00  0.00    +0.000 N 
ATOM     14  N   UNL     1       5.938   3.730  15.752  0.00  0.00    +0.000 NA
ATOM     15  H   UNL     1       6.403   3.902  12.549  0.00  0.00    +0.000 HD
ATOM     16  H   UNL     1       5.827   2.580  13.460  0.00  0.00    +0.000 HD
ATOM     17  H   UNL     1       6.798   6.737  16.122  0.00  0.00    +0.000 HD
ATOM     18  H   UNL     1       5.437   5.917  18.143  0.00  0.00    +0.000 HD
ENDBRANCH   7  13
ENDBRANCH   1   7
BRANCH   6  19
ATOM     19  O   UNL     1       3.155   5.807  19.883  0.00  0.00    +0.000 OA
BRANCH  19  20
ATOM     20  C   UNL     1       2.618   7.079  19.628  0.00  0.00    +0.000 A 
ATOM     21  C   UNL     1       2.656   7.479  18.286  0.00  0.00    +0.000 A 
ATOM     22  C   UNL     1       1.871   8.549  17.803  0.00  0.00    +0.000 A 
ATOM     23  C   UNL     1       1.008   9.284  18.632  0.00  0.00    +0.000 A 
ATOM     24  C   UNL     1       0.173  10.299  18.111  0.00  0.00    +0.000 A 
ATOM     25  C   UNL     1      -0.688  11.034  18.924  0.00  0.00    +0.000 A 
ATOM     26  C   UNL     1      -0.719  10.748  20.283  0.00  0.00    +0.000 A 
ATOM     27  C   UNL     1       0.094   9.716  20.813  0.00  0.00    +0.000 A 
ATOM     28  C   UNL     1       0.976   8.942  20.010  0.00  0.00    +0.000 A 
ATOM     29  C   UNL     1       1.792   7.832  20.488  0.00  0.00    +0.000 A 
ENDBRANCH  19  20
ENDBRANCH   6  19
TORSDOF 4
ENDMDL
MODEL 6
REMARK VINA RESULT:      -9.0      1.207      1.339
REMARK  Name = 
REMARK  4 active torsions:
REMARK  status: ('A' for Active; 'I' for Inactive)
REMARK    1  A    between atoms: N_6  and  C_7
REMARK    2  A    between atoms: C_7  and  C_8
REMARK    3  A    between atoms: C_13  and  O_14
REMARK    4  A    between atoms: O_14  and  C_15
REMARK                            x       y       z     vdW  Elec       q    Type
REMARK                         _______ _______ _______ _____ _____    ______ ____
ROOT
ATOM      1  C   UNL     1       3.674   4.502  18.981  0.00  0.00    +0.000 A 
ATOM      2  C   UNL     1       3.577   3.125  19.322  0.00  0.00    +0.000 A 
ATOM      3  C   UNL     1       2.466   2.365  18.967  0.00  0.00    +0.000 A 
ATOM      4  C   UNL     1       1.416   2.973  18.293  0.00  0.00    +0.000 A 
ATOM      5  C   UNL     1       1.500   4.325  17.901  0.00  0.00    +0.000 A 
ATOM      6  C   UNL     1       2.641   5.096  18.178  0.00  0.00    +0.000 A 
ENDROOT
BRANCH   1   7
ATOM      7  C   UNL     1       4.868   5.233  19.628  0.00  0.00    +0.000 C 
BRANCH   7  13
ATOM      8  N   UNL     1       6.581   5.643  14.441  0.00  0.00    +0.000 N 
ATOM      9  C   UNL     1       6.783   5.163  15.667  0.00  0.00    +0.000 A 
ATOM     10  N   UNL     1       7.842   4.434  16.005  0.00  0.00    +0.000 NA
ATOM     11  N   UNL     1       7.594   4.204  17.297  0.00  0.00    +0.000 N 
ATOM     12  C   UNL     1       6.453   4.829  17.734  0.00  0.00    +0.000 A 
ATOM     13  N   UNL     1       6.111   4.725  19.046  0.00  0.00    +0.000 N 
ATOM     14  N   UNL     1       5.901   5.419  16.693  0.00  0.00    +0.000 NA
ATOM     15  H   UNL     1       7.383   5.670  13.822  0.00  0.00    +0.000 HD
ATOM     16  H   UNL     1       5.931   6.409  14.325  0.00  0.00    +0.000 HD
ATOM     17  H   UNL     1       8.207   3.591  17.816  0.00  0.00    +0.000 HD
ATOM     18  H   UNL     1       6.852   4.641  19.733  0.00  0.00    +0.000 HD
ENDBRANCH   7  13
ENDBRANCH   1   7
BRANCH   6  19
ATOM     19  O   UNL     1       2.750   6.433  17.806  0.00  0.00    +0.000 OA
BRANCH  19  20
ATOM     20  C   UNL     1       2.335   7.535  18.571  0.00  0.00    +0.000 A 
ATOM     21  C   UNL     1       1.905   8.642  17.828  0.00  0.00    +0.000 A 
ATOM     22  C   UNL     1       1.148   9.683  18.409  0.00  0.00    +0.000 A 
ATOM     23  C   UNL     1       0.783   9.683  19.765  0.00  0.00    +0.000 A 
ATOM     24  C   UNL     1      -0.041  10.695  20.306  0.00  0.00    +0.000 A 
ATOM     25  C   UNL     1      -0.411  10.704  21.651  0.00  0.00    +0.000 A 
ATOM     26  C   UNL     1       0.048   9.680  22.469  0.00  0.00    +0.000 A 
ATOM     27  C   UNL     1       0.853   8.646  21.933  0.00  0.00    +0.000 A 
ATOM     28  C   UNL     1       1.241   8.602  20.565  0.00  0.00    +0.000 A 
ATOM     29  C   UNL     1       2.018   7.535  19.945  0.00  0.00    +0.000 A 
ENDBRANCH  19  20
ENDBRANCH   6  19
TORSDOF 4
ENDMDL
MODEL 7
REMARK VINA RESULT:      -9.0      1.003      1.336
REMARK  Name = 
REMARK  4 active torsions:
REMARK  status: ('A' for Active; 'I' for Inactive)
REMARK    1  A    between atoms: N_6  and  C_7
REMARK    2  A    between atoms: C_7  and  C_8
REMARK    3  A    between atoms: C_13  and  O_14
REMARK    4  A    between atoms: O_14  and  C_15
REMARK                            x       y       z     vdW  Elec       q    Type
REMARK                         _______ _______ _______ _____ _____    ______ ____
ROOT
ATOM      1  C   UNL     1       3.344   3.478  19.339  0.00  0.00    +0.000 A 
ATOM      2  C   UNL     1       3.142   2.359  18.487  0.00  0.00    +0.000 A 
ATOM      3  C   UNL     1       1.866   1.870  18.218  0.00  0.00    +0.000 A 
ATOM      4  C   UNL     1       0.771   2.471  18.821  0.00  0.00    +0.000 A 
ATOM      5  C   UNL     1       0.932   3.610  19.636  0.00  0.00    +0.000 A 
ATOM      6  C   UNL     1       2.200   4.171  19.863  0.00  0.00    +0.000 A 
ENDROOT
BRANCH   1   7
ATOM      7  C   UNL     1       4.821   3.753  19.687  0.00  0.00    +0.000 C 
BRANCH   7  13
ATOM      8  N   UNL     1       7.554   7.669  17.005  0.00  0.00    +0.000 N 
ATOM      9  C   UNL     1       7.162   6.398  17.064  0.00  0.00    +0.000 A 
ATOM     10  N   UNL     1       7.495   5.484  16.157  0.00  0.00    +0.000 NA
ATOM     11  N   UNL     1       6.880   4.403  16.643  0.00  0.00    +0.000 N 
ATOM     12  C   UNL     1       6.250   4.648  17.839  0.00  0.00    +0.000 A 
ATOM     13  N   UNL     1       5.630   3.619  18.475  0.00  0.00    +0.000 N 
ATOM     14  N   UNL     1       6.391   5.931  18.105  0.00  0.00    +0.000 NA
ATOM     15  H   UNL     1       8.336   7.879  16.395  0.00  0.00    +0.000 HD
ATOM     16  H   UNL     1       7.515   8.225  17.849  0.00  0.00    +0.000 HD
ATOM     17  H   UNL     1       6.890   3.546  16.109  0.00  0.00    +0.000 HD
ATOM     18  H   UNL     1       6.010   2.685  18.367  0.00  0.00    +0.000 HD
ENDBRANCH   7  13
ENDBRANCH   1   7
BRANCH   6  19
ATOM     19  O   UNL     1       2.389   5.293  20.665  0.00  0.00    +0.000 OA
BRANCH  19  20
ATOM     20  C   UNL     1       2.240   6.629  20.259  0.00  0.00    +0.000 A 
ATOM     21  C   UNL     1       2.631   6.894  18.940  0.00  0.00    +0.000 A 
ATOM     22  C   UNL     1       2.240   8.072  18.267  0.00  0.00    +0.000 A 
ATOM     23  C   UNL     1       1.441   9.056  18.873  0.00  0.00    +0.000 A 
ATOM     24  C   UNL     1       0.997  10.189  18.155  0.00  0.00    +0.000 A 
ATOM     25  C   UNL     1       0.203  11.171  18.746  0.00  0.00    +0.000 A 
ATOM     26  C   UNL     1      -0.157  11.017  20.078  0.00  0.00    +0.000 A 
ATOM     27  C   UNL     1       0.260   9.872  20.801  0.00  0.00    +0.000 A 
ATOM     28  C   UNL     1       1.063   8.849  20.227  0.00  0.00    +0.000 A 
ATOM     29  C   UNL     1       1.474   7.623  20.902  0.00  0.00    +0.000 A 
ENDBRANCH  19  20
ENDBRANCH   6  19
TORSDOF 4
ENDMDL
MODEL 8
REMARK VINA RESULT:      -8.9      1.086      1.579
REMARK  Name = 
REMARK  4 active torsions:
REMARK  status: ('A' for Active; 'I' for Inactive)
REMARK    1  A    between atoms: N_6  and  C_7
REMARK    2  A    between atoms: C_7  and  C_8
REMARK    3  A    between atoms: C_13  and  O_14
REMARK    4  A    between atoms: O_14  and  C_15
REMARK                            x       y       z     vdW  Elec       q    Type
REMARK                         _______ _______ _______ _____ _____    ______ ____
ROOT
ATOM      1  C   UNL     1       3.493   3.264  19.166  0.00  0.00    +0.000 A 
ATOM      2  C   UNL     1       2.957   2.073  18.605  0.00  0.00    +0.000 A 
ATOM      3  C   UNL     1       1.584   1.857  18.531  0.00  0.00    +0.000 A 
ATOM      4  C   UNL     1       0.720   2.812  19.046  0.00  0.00    +0.000 A 
ATOM      5  C   UNL     1       1.216   4.025  19.568  0.00  0.00    +0.000 A 
ATOM      6  C   UNL     1       2.593   4.303  19.585  0.00  0.00    +0.000 A 
ENDROOT
BRANCH   1   7
ATOM      7  C   UNL     1       5.024   3.246  19.354  0.00  0.00    +0.000 C 
BRANCH   7  13
ATOM      8  N   UNL     1       7.443   5.114  14.810  0.00  0.00    +0.000 N 
ATOM      9  C   UNL     1       7.070   5.337  16.068  0.00  0.00    +0.000 A 
ATOM     10  N   UNL     1       7.267   6.490  16.699  0.00  0.00    +0.000 NA
ATOM     11  N   UNL     1       6.735   6.223  17.895  0.00  0.00    +0.000 N 
ATOM     12  C   UNL     1       6.180   4.969  17.957  0.00  0.00    +0.000 A 
ATOM     13  N   UNL     1       5.553   4.586  19.100  0.00  0.00    +0.000 N 
ATOM     14  N   UNL     1       6.418   4.373  16.805  0.00  0.00    +0.000 NA
ATOM     15  H   UNL     1       7.646   5.928  14.241  0.00  0.00    +0.000 HD
ATOM     16  H   UNL     1       7.016   4.345  14.309  0.00  0.00    +0.000 HD
ATOM     17  H   UNL     1       6.809   6.908  18.633  0.00  0.00    +0.000 HD
ATOM     18  H   UNL     1       5.089   5.294  19.657  0.00  0.00    +0.000 HD
ENDBRANCH   7  13
ENDBRANCH   1   7
BRANCH   6  19
ATOM     19  O   UNL     1       3.111   5.488  20.098  0.00  0.00    +0.000 OA
BRANCH  19  20
ATOM     20  C   UNL     1       2.665   6.783  19.786  0.00  0.00    +0.000 A 
ATOM     21  C   UNL     1       2.829   7.159  18.446  0.00  0.00    +0.000 A 
ATOM     22  C   UNL     1       2.143   8.261  17.890  0.00  0.00    +0.000 A 
ATOM     23  C   UNL     1       1.259   9.054  18.639  0.00  0.00    +0.000 A 
ATOM     24  C   UNL     1       0.524  10.103  18.042  0.00  0.00    +0.000 A 
ATOM     25  C   UNL     1      -0.357  10.896  18.776  0.00  0.00    +0.000 A 
ATOM     26  C   UNL     1      -0.509  10.635  20.131  0.00  0.00    +0.000 A 
ATOM     27  C   UNL     1       0.202   9.570  20.736  0.00  0.00    +0.000 A 
ATOM     28  C   UNL     1       1.101   8.737  20.015  0.00  0.00    +0.000 A 
ATOM     29  C   UNL     1       1.816   7.593  20.569  0.00  0.00    +0.000 A 
ENDBRANCH  19  20
ENDBRANCH   6  19
TORSDOF 4
ENDMDL
MODEL 9
REMARK VINA RESULT:      -8.8      1.117      1.268
REMARK  Name = 
REMARK  4 active torsions:
REMARK  status: ('A' for Active; 'I' for Inactive)
REMARK    1  A    between atoms: N_6  and  C_7
REMARK    2  A    between atoms: C_7  and  C_8
REMARK    3  A    between atoms: C_13  and  O_14
REMARK    4  A    between atoms: O_14  and  C_15
REMARK                            x       y       z     vdW  Elec       q    Type
REMARK                         _______ _______ _______ _____ _____    ______ ____
ROOT
ATOM      1  C   UNL     1       3.140   3.548  18.264  0.00  0.00    +0.000 A 
ATOM      2  C   UNL     1       2.393   2.358  18.049  0.00  0.00    +0.000 A 
ATOM      3  C   UNL     1       1.155   2.159  18.652  0.00  0.00    +0.000 A 
ATOM      4  C   UNL     1       0.654   3.129  19.508  0.00  0.00    +0.000 A 
ATOM      5  C   UNL     1       1.348   4.340  19.708  0.00  0.00    +0.000 A 
ATOM      6  C   UNL     1       2.563   4.601  19.052  0.00  0.00    +0.000 A 
ENDROOT
BRANCH   1   7
ATOM      7  C   UNL     1       4.570   3.513  17.687  0.00  0.00    +0.000 C 
BRANCH   7  13
ATOM      8  N   UNL     1       8.436   7.239  18.768  0.00  0.00    +0.000 N 
ATOM      9  C   UNL     1       7.377   6.882  18.045  0.00  0.00    +0.000 A 
ATOM     10  N   UNL     1       6.870   7.628  17.068  0.00  0.00    +0.000 NA
ATOM     11  N   UNL     1       5.852   6.864  16.663  0.00  0.00    +0.000 N 
ATOM     12  C   UNL     1       5.790   5.669  17.336  0.00  0.00    +0.000 A 
ATOM     13  N   UNL     1       4.834   4.769  16.984  0.00  0.00    +0.000 N 
ATOM     14  N   UNL     1       6.738   5.679  18.251  0.00  0.00    +0.000 NA
ATOM     15  H   UNL     1       9.024   7.973  18.389  0.00  0.00    +0.000 HD
ATOM     16  H   UNL     1       8.934   6.521  19.280  0.00  0.00    +0.000 HD
ATOM     17  H   UNL     1       5.218   7.217  15.960  0.00  0.00    +0.000 HD
ATOM     18  H   UNL     1       4.529   4.740  16.018  0.00  0.00    +0.000 HD
ENDBRANCH   7  13
ENDBRANCH   1   7
BRANCH   6  19
ATOM     19  O   UNL     1       3.271   5.786  19.233  0.00  0.00    +0.000 OA
BRANCH  19  20
ATOM     20  C   UNL     1       2.720   7.077  19.265  0.00  0.00    +0.000 A 
ATOM     21  C   UNL     1       2.631   7.714  18.021  0.00  0.00    +0.000 A 
ATOM     22  C   UNL     1       1.810   8.844  17.817  0.00  0.00    +0.000 A 
ATOM     23  C   UNL     1       1.035   9.408  18.844  0.00  0.00    +0.000 A 
ATOM     24  C   UNL     1       0.161  10.490  18.598  0.00  0.00    +0.000 A 
ATOM     25  C   UNL     1      -0.614  11.057  19.609  0.00  0.00    +0.000 A 
ATOM     26  C   UNL     1      -0.516  10.530  20.890  0.00  0.00    +0.000 A 
ATOM     27  C   UNL     1       0.338   9.428  21.145  0.00  0.00    +0.000 A 
ATOM     28  C   UNL     1       1.134   8.822  20.134  0.00  0.00    +0.000 A 
ATOM     29  C   UNL     1       1.985   7.652  20.322  0.00  0.00    +0.000 A 
ENDBRANCH  19  20
ENDBRANCH   6  19
TORSDOF 4
ENDMDL
