MODEL 1
REMARK VINA RESULT:      -7.3      0.000      0.000
REMARK  Name = 
REMARK  7 active torsions:
REMARK  status: ('A' for Active; 'I' for Inactive)
REMARK    1  A    between atoms: C_1  and  O_2
REMARK    2  A    between atoms: O_2  and  C_3
REMARK    3  A    between atoms: C_3  and  C_4
REMARK    4  A    between atoms: C_4  and  O_5
REMARK    5  A    between atoms: O_5  and  C_6
REMARK    6  A    between atoms: C_9  and  C_10
REMARK    7  A    between atoms: C_10  and  N_11
REMARK                            x       y       z     vdW  Elec       q    Type
REMARK                         _______ _______ _______ _____ _____    ______ ____
ROOT
ATOM      1  C   UNL     1       6.031   3.798  16.644  0.00  0.00    +0.000 C 
ENDROOT
BRANCH   1   2
ATOM      2  N   UNL     1       4.674   4.169  16.264  0.00  0.00    +0.000 N 
ATOM      3  C   UNL     1       3.732   3.931  17.282  0.00  0.00    +0.000 A 
ATOM      4  C   UNL     1       2.387   4.227  17.074  0.00  0.00    +0.000 A 
ATOM      5  N   UNL     1       1.417   4.026  18.001  0.00  0.00    +0.000 NA
ATOM      6  C   UNL     1       1.825   3.523  19.181  0.00  0.00    +0.000 A 
ATOM      7  C   UNL     1       0.901   3.272  20.189  0.00  0.00    +0.000 A 
ATOM      8  C   UNL     1       1.292   2.738  21.418  0.00  0.00    +0.000 A 
ATOM      9  C   UNL     1       2.633   2.458  21.648  0.00  0.00    +0.000 A 
ATOM     10  C   UNL     1       3.569   2.712  20.646  0.00  0.00    +0.000 A 
ATOM     11  C   UNL     1       3.189   3.235  19.416  0.00  0.00    +0.000 A 
ATOM     12  N   UNL     1       4.131   3.446  18.475  0.00  0.00    +0.000 NA
ATOM     13  H   UNL     1       4.375   3.702  15.412  0.00  0.00    +0.000 HD
ENDBRANCH   1   2
BRANCH   1  17
ATOM     14  C   UNL     1       7.938   7.250  18.213  0.00  0.00    +0.000 A 
ATOM     15  C   UNL     1       7.992   6.092  18.971  0.00  0.00    +0.000 A 
ATOM     16  C   UNL     1       7.380   4.943  18.466  0.00  0.00    +0.000 A 
ATOM     17  C   UNL     1       6.750   4.986  17.220  0.00  0.00    +0.000 A 
ATOM     18  C   UNL     1       6.799   6.187  16.519  0.00  0.00    +0.000 A 
ATOM     19  N   UNL     1       7.369   7.317  16.993  0.00  0.00    +0.000 NA
BRANCH  14  20
ATOM     20  O   UNL     1       8.529   8.378  18.747  0.00  0.00    +0.000 OA
BRANCH  20  21
ATOM     21  C   UNL     1       8.246   9.545  17.969  0.00  0.00    +0.000 C 
BRANCH  21  22
ATOM     22  C   UNL     1       9.126  10.697  18.443  0.00  0.00    +0.000 C 
BRANCH  22  24
ATOM     23  C   UNL     1       9.015  13.053  18.507  0.00  0.00    +0.000 C 
ATOM     24  O   UNL     1       8.753  11.885  17.744  0.00  0.00    +0.000 OA
ENDBRANCH  22  24
ENDBRANCH  21  22
ENDBRANCH  20  21
ENDBRANCH  14  20
ENDBRANCH   1  17
TORSDOF 6
ENDMDL
MODEL 2
REMARK VINA RESULT:      -7.2      1.050      1.280
REMARK  Name = 
REMARK  7 active torsions:
REMARK  status: ('A' for Active; 'I' for Inactive)
REMARK    1  A    between atoms: C_1  and  O_2
REMARK    2  A    between atoms: O_2  and  C_3
REMARK    3  A    between atoms: C_3  and  C_4
REMARK    4  A    between atoms: C_4  and  O_5
REMARK    5  A    between atoms: O_5  and  C_6
REMARK    6  A    between atoms: C_9  and  C_10
REMARK    7  A    between atoms: C_10  and  N_11
REMARK                            x       y       z     vdW  Elec       q    Type
REMARK                         _______ _______ _______ _____ _____    ______ ____
ROOT
ATOM      1  C   UNL     1       6.785   4.392  18.000  0.00  0.00    +0.000 C 
ENDROOT
BRANCH   1   2
ATOM      2  N   UNL     1       5.699   4.166  17.055  0.00  0.00    +0.000 N 
ATOM      3  C   UNL     1       4.479   3.851  17.683  0.00  0.00    +0.000 A 
ATOM      4  C   UNL     1       3.342   3.600  16.918  0.00  0.00    +0.000 A 
ATOM      5  N   UNL     1       2.132   3.288  17.444  0.00  0.00    +0.000 NA
ATOM      6  C   UNL     1       2.066   3.244  18.788  0.00  0.00    +0.000 A 
ATOM      7  C   UNL     1       0.870   2.922  19.418  0.00  0.00    +0.000 A 
ATOM      8  C   UNL     1       0.775   2.856  20.810  0.00  0.00    +0.000 A 
ATOM      9  C   UNL     1       1.895   3.125  21.586  0.00  0.00    +0.000 A 
ATOM     10  C   UNL     1       3.098   3.456  20.965  0.00  0.00    +0.000 A 
ATOM     11  C   UNL     1       3.206   3.516  19.580  0.00  0.00    +0.000 A 
ATOM     12  N   UNL     1       4.396   3.823  19.028  0.00  0.00    +0.000 NA
ATOM     13  H   UNL     1       5.926   3.442  16.379  0.00  0.00    +0.000 HD
ENDBRANCH   1   2
BRANCH   1  17
ATOM     14  C   UNL     1       7.857   8.495  17.830  0.00  0.00    +0.000 A 
ATOM     15  C   UNL     1       8.442   7.724  18.819  0.00  0.00    +0.000 A 
ATOM     16  C   UNL     1       8.111   6.370  18.885  0.00  0.00    +0.000 A 
ATOM     17  C   UNL     1       7.220   5.831  17.953  0.00  0.00    +0.000 A 
ATOM     18  C   UNL     1       6.729   6.682  16.969  0.00  0.00    +0.000 A 
ATOM     19  N   UNL     1       7.021   8.000  16.895  0.00  0.00    +0.000 NA
BRANCH  14  20
ATOM     20  O   UNL     1       8.183   9.837  17.804  0.00  0.00    +0.000 OA
BRANCH  20  21
ATOM     21  C   UNL     1       9.189  10.157  18.770  0.00  0.00    +0.000 C 
BRANCH  21  22
ATOM     22  C   UNL     1       9.133  11.648  19.087  0.00  0.00    +0.000 C 
BRANCH  22  24
ATOM     23  C   UNL     1      11.216  11.576  17.982  0.00  0.00    +0.000 C 
ATOM     24  O   UNL     1      10.047  12.340  18.236  0.00  0.00    +0.000 OA
ENDBRANCH  22  24
ENDBRANCH  21  22
ENDBRANCH  20  21
ENDBRANCH  14  20
ENDBRANCH   1  17
TORSDOF 6
ENDMDL
MODEL 3
REMARK VINA RESULT:      -7.2      0.953      1.287
REMARK  Name = 
REMARK  7 active torsions:
REMARK  status: ('A' for Active; 'I' for Inactive)
REMARK    1  A    between atoms: C_1  and  O_2
REMARK    2  A    between atoms: O_2  and  C_3
REMARK    3  A    between atoms: C_3  and  C_4
REMARK    4  A    between atoms: C_4  and  O_5
REMARK    5  A    between atoms: O_5  and  C_6
REMARK    6  A    between atoms: C_9  and  C_10
REMARK    7  A    between atoms: C_10  and  N_11
REMARK                            x       y       z     vdW  Elec       q    Type
REMARK                         _______ _______ _______ _____ _____    ______ ____
ROOT
ATOM      1  C   UNL     1       5.989   3.881  16.736  0.00  0.00    +0.000 C 
ENDROOT
BRANCH   1   2
ATOM      2  N   UNL     1       4.624   4.178  16.320  0.00  0.00    +0.000 N 
ATOM      3  C   UNL     1       3.675   3.927  17.328  0.00  0.00    +0.000 A 
ATOM      4  C   UNL     1       2.321   4.153  17.087  0.00  0.00    +0.000 A 
ATOM      5  N   UNL     1       1.344   3.935  18.001  0.00  0.00    +0.000 NA
ATOM      6  C   UNL     1       1.751   3.487  19.203  0.00  0.00    +0.000 A 
ATOM      7  C   UNL     1       0.821   3.224  20.202  0.00  0.00    +0.000 A 
ATOM      8  C   UNL     1       1.212   2.746  21.454  0.00  0.00    +0.000 A 
ATOM      9  C   UNL     1       2.560   2.536  21.717  0.00  0.00    +0.000 A 
ATOM     10  C   UNL     1       3.503   2.803  20.725  0.00  0.00    +0.000 A 
ATOM     11  C   UNL     1       3.123   3.271  19.472  0.00  0.00    +0.000 A 
ATOM     12  N   UNL     1       4.072   3.496  18.542  0.00  0.00    +0.000 NA
ATOM     13  H   UNL     1       4.364   3.671  15.477  0.00  0.00    +0.000 HD
ENDBRANCH   1   2
BRANCH   1  17
ATOM     14  C   UNL     1       7.968   7.285  18.322  0.00  0.00    +0.000 A 
ATOM     15  C   UNL     1       7.163   7.476  17.212  0.00  0.00    +0.000 A 
ATOM     16  C   UNL     1       6.495   6.370  16.682  0.00  0.00    +0.000 A 
ATOM     17  C   UNL     1       6.641   5.119  17.287  0.00  0.00    +0.000 A 
ATOM     18  C   UNL     1       7.434   5.049  18.428  0.00  0.00    +0.000 A 
ATOM     19  N   UNL     1       8.105   6.100  18.949  0.00  0.00    +0.000 NA
BRANCH  14  20
ATOM     20  O   UNL     1       8.637   8.391  18.809  0.00  0.00    +0.000 OA
BRANCH  20  21
ATOM     21  C   UNL     1       8.306   9.576  18.078  0.00  0.00    +0.000 C 
BRANCH  21  22
ATOM     22  C   UNL     1       9.325  10.667  18.393  0.00  0.00    +0.000 C 
BRANCH  22  24
ATOM     23  C   UNL     1       9.290  11.303  20.665  0.00  0.00    +0.000 C 
ATOM     24  O   UNL     1       9.863  10.439  19.695  0.00  0.00    +0.000 OA
ENDBRANCH  22  24
ENDBRANCH  21  22
ENDBRANCH  20  21
ENDBRANCH  14  20
ENDBRANCH   1  17
TORSDOF 6
ENDMDL
MODEL 4
REMARK VINA RESULT:      -7.0      6.244      8.393
REMARK  Name = 
REMARK  7 active torsions:
REMARK  status: ('A' for Active; 'I' for Inactive)
REMARK    1  A    between atoms: C_1  and  O_2
REMARK    2  A    between atoms: O_2  and  C_3
REMARK    3  A    between atoms: C_3  and  C_4
REMARK    4  A    between atoms: C_4  and  O_5
REMARK    5  A    between atoms: O_5  and  C_6
REMARK    6  A    between atoms: C_9  and  C_10
REMARK    7  A    between atoms: C_10  and  N_11
REMARK                            x       y       z     vdW  Elec       q    Type
REMARK                         _______ _______ _______ _____ _____    ______ ____
ROOT
ATOM      1  C   UNL     1       1.925   8.933  17.802  0.00  0.00    +0.000 C 
ENDROOT
BRANCH   1   2
ATOM      2  N   UNL     1       1.421   9.637  18.974  0.00  0.00    +0.000 N 
ATOM      3  C   UNL     1       0.122  10.148  18.793  0.00  0.00    +0.000 A 
ATOM      4  C   UNL     1      -0.502  10.853  19.819  0.00  0.00    +0.000 A 
ATOM      5  N   UNL     1      -1.748  11.380  19.725  0.00  0.00    +0.000 NA
ATOM      6  C   UNL     1      -2.389  11.172  18.559  0.00  0.00    +0.000 A 
ATOM      7  C   UNL     1      -3.667  11.684  18.365  0.00  0.00    +0.000 A 
ATOM      8  C   UNL     1      -4.351  11.496  17.162  0.00  0.00    +0.000 A 
ATOM      9  C   UNL     1      -3.750  10.776  16.137  0.00  0.00    +0.000 A 
ATOM     10  C   UNL     1      -2.471  10.253  16.324  0.00  0.00    +0.000 A 
ATOM     11  C   UNL     1      -1.778  10.441  17.514  0.00  0.00    +0.000 A 
ATOM     12  N   UNL     1      -0.537   9.930  17.638  0.00  0.00    +0.000 NA
ATOM     13  H   UNL     1       2.042  10.388  19.265  0.00  0.00    +0.000 HD
ENDBRANCH   1   2
BRANCH   1  17
ATOM     14  C   UNL     1       3.842   5.349  19.028  0.00  0.00    +0.000 A 
ATOM     15  C   UNL     1       4.329   5.977  17.894  0.00  0.00    +0.000 A 
ATOM     16  C   UNL     1       3.719   7.163  17.482  0.00  0.00    +0.000 A 
ATOM     17  C   UNL     1       2.656   7.688  18.222  0.00  0.00    +0.000 A 
ATOM     18  C   UNL     1       2.279   7.004  19.373  0.00  0.00    +0.000 A 
ATOM     19  N   UNL     1       2.841   5.845  19.784  0.00  0.00    +0.000 NA
BRANCH  14  20
ATOM     20  O   UNL     1       4.447   4.165  19.399  0.00  0.00    +0.000 OA
BRANCH  20  21
ATOM     21  C   UNL     1       3.489   3.121  19.602  0.00  0.00    +0.000 C 
BRANCH  21  22
ATOM     22  C   UNL     1       3.252   2.386  18.287  0.00  0.00    +0.000 C 
BRANCH  22  24
ATOM     23  C   UNL     1       0.932   2.465  18.707  0.00  0.00    +0.000 C 
ATOM     24  O   UNL     1       1.968   2.745  17.778  0.00  0.00    +0.000 OA
ENDBRANCH  22  24
ENDBRANCH  21  22
ENDBRANCH  20  21
ENDBRANCH  14  20
ENDBRANCH   1  17
TORSDOF 6
ENDMDL
MODEL 5
REMARK VINA RESULT:      -7.0      5.348      6.878
REMARK  Name = 
REMARK  7 active torsions:
REMARK  status: ('A' for Active; 'I' for Inactive)
REMARK    1  A    between atoms: C_1  and  O_2
REMARK    2  A    between atoms: O_2  and  C_3
REMARK    3  A    between atoms: C_3  and  C_4
REMARK    4  A    between atoms: C_4  and  O_5
REMARK    5  A    between atoms: O_5  and  C_6
REMARK    6  A    between atoms: C_9  and  C_10
REMARK    7  A    between atoms: C_10  and  N_11
REMARK                            x       y       z     vdW  Elec       q    Type
REMARK                         _______ _______ _______ _____ _____    ______ ____
ROOT
ATOM      1  C   UNL     1       2.831   6.758  18.656  0.00  0.00    +0.000 C 
ENDROOT
BRANCH   1   2
ATOM      2  N   UNL     1       2.424   8.008  18.029  0.00  0.00    +0.000 N 
ATOM      3  C   UNL     1       1.690   8.843  18.891  0.00  0.00    +0.000 A 
ATOM      4  C   UNL     1       1.220  10.075  18.440  0.00  0.00    +0.000 A 
ATOM      5  N   UNL     1       0.504  10.936  19.205  0.00  0.00    +0.000 NA
ATOM      6  C   UNL     1       0.269  10.544  20.471  0.00  0.00    +0.000 A 
ATOM      7  C   UNL     1      -0.467  11.356  21.327  0.00  0.00    +0.000 A 
ATOM      8  C   UNL     1      -0.738  10.970  22.642  0.00  0.00    +0.000 A 
ATOM      9  C   UNL     1      -0.258   9.755  23.112  0.00  0.00    +0.000 A 
ATOM     10  C   UNL     1       0.487   8.936  22.264  0.00  0.00    +0.000 A 
ATOM     11  C   UNL     1       0.755   9.306  20.951  0.00  0.00    +0.000 A 
ATOM     12  N   UNL     1       1.464   8.471  20.167  0.00  0.00    +0.000 NA
ATOM     13  H   UNL     1       1.892   7.851  17.176  0.00  0.00    +0.000 HD
ENDBRANCH   1   2
BRANCH   1  17
ATOM     14  C   UNL     1       5.234   4.519  15.966  0.00  0.00    +0.000 A 
ATOM     15  C   UNL     1       4.295   3.825  16.711  0.00  0.00    +0.000 A 
ATOM     16  C   UNL     1       3.488   4.546  17.593  0.00  0.00    +0.000 A 
ATOM     17  C   UNL     1       3.635   5.932  17.689  0.00  0.00    +0.000 A 
ATOM     18  C   UNL     1       4.573   6.536  16.859  0.00  0.00    +0.000 A 
ATOM     19  N   UNL     1       5.378   5.859  16.010  0.00  0.00    +0.000 NA
BRANCH  14  20
ATOM     20  O   UNL     1       6.036   3.778  15.120  0.00  0.00    +0.000 OA
BRANCH  20  21
ATOM     21  C   UNL     1       6.705   4.606  14.164  0.00  0.00    +0.000 C 
BRANCH  21  22
ATOM     22  C   UNL     1       6.744   3.894  12.816  0.00  0.00    +0.000 C 
BRANCH  22  24
ATOM     23  C   UNL     1       5.452   2.336  11.603  0.00  0.00    +0.000 C 
ATOM     24  O   UNL     1       5.429   3.446  12.488  0.00  0.00    +0.000 OA
ENDBRANCH  22  24
ENDBRANCH  21  22
ENDBRANCH  20  21
ENDBRANCH  14  20
ENDBRANCH   1  17
TORSDOF 6
ENDMDL
MODEL 6
REMARK VINA RESULT:      -6.9      0.961      1.322
REMARK  Name = 
REMARK  7 active torsions:
REMARK  status: ('A' for Active; 'I' for Inactive)
REMARK    1  A    between atoms: C_1  and  O_2
REMARK    2  A    between atoms: O_2  and  C_3
REMARK    3  A    between atoms: C_3  and  C_4
REMARK    4  A    between atoms: C_4  and  O_5
REMARK    5  A    between atoms: O_5  and  C_6
REMARK    6  A    between atoms: C_9  and  C_10
REMARK    7  A    between atoms: C_10  and  N_11
REMARK                            x       y       z     vdW  Elec       q    Type
REMARK                         _______ _______ _______ _____ _____    ______ ____
ROOT
ATOM      1  C   UNL     1       6.624   4.210  17.619  0.00  0.00    +0.000 C 
ENDROOT
BRANCH   1   2
ATOM      2  N   UNL     1       5.437   4.051  16.789  0.00  0.00    +0.000 N 
ATOM      3  C   UNL     1       4.281   3.752  17.533  0.00  0.00    +0.000 A 
ATOM      4  C   UNL     1       3.061   3.563  16.886  0.00  0.00    +0.000 A 
ATOM      5  N   UNL     1       1.903   3.270  17.527  0.00  0.00    +0.000 NA
ATOM      6  C   UNL     1       1.979   3.179  18.868  0.00  0.00    +0.000 A 
ATOM      7  C   UNL     1       0.845   2.871  19.612  0.00  0.00    +0.000 A 
ATOM      8  C   UNL     1       0.896   2.758  21.003  0.00  0.00    +0.000 A 
ATOM      9  C   UNL     1       2.100   2.965  21.664  0.00  0.00    +0.000 A 
ATOM     10  C   UNL     1       3.242   3.282  20.928  0.00  0.00    +0.000 A 
ATOM     11  C   UNL     1       3.204   3.388  19.543  0.00  0.00    +0.000 A 
ATOM     12  N   UNL     1       4.339   3.678  18.877  0.00  0.00    +0.000 NA
ATOM     13  H   UNL     1       5.567   3.345  16.068  0.00  0.00    +0.000 HD
ENDBRANCH   1   2
BRANCH   1  17
ATOM     14  C   UNL     1       7.832   8.268  17.919  0.00  0.00    +0.000 A 
ATOM     15  C   UNL     1       6.883   7.955  16.961  0.00  0.00    +0.000 A 
ATOM     16  C   UNL     1       6.464   6.627  16.854  0.00  0.00    +0.000 A 
ATOM     17  C   UNL     1       6.996   5.664  17.716  0.00  0.00    +0.000 A 
ATOM     18  C   UNL     1       7.906   6.095  18.675  0.00  0.00    +0.000 A 
ATOM     19  N   UNL     1       8.340   7.371  18.787  0.00  0.00    +0.000 NA
BRANCH  14  20
ATOM     20  O   UNL     1       8.247   9.584  17.985  0.00  0.00    +0.000 OA
BRANCH  20  21
ATOM     21  C   UNL     1       9.153   9.800  19.071  0.00  0.00    +0.000 C 
BRANCH  21  22
ATOM     22  C   UNL     1       9.926  11.094  18.837  0.00  0.00    +0.000 C 
BRANCH  22  24
ATOM     23  C   UNL     1       9.630  13.259  17.944  0.00  0.00    +0.000 C 
ATOM     24  O   UNL     1       9.207  11.904  17.906  0.00  0.00    +0.000 OA
ENDBRANCH  22  24
ENDBRANCH  21  22
ENDBRANCH  20  21
ENDBRANCH  14  20
ENDBRANCH   1  17
TORSDOF 6
ENDMDL
MODEL 7
REMARK VINA RESULT:      -6.9      7.006      8.579
REMARK  Name = 
REMARK  7 active torsions:
REMARK  status: ('A' for Active; 'I' for Inactive)
REMARK    1  A    between atoms: C_1  and  O_2
REMARK    2  A    between atoms: O_2  and  C_3
REMARK    3  A    between atoms: C_3  and  C_4
REMARK    4  A    between atoms: C_4  and  O_5
REMARK    5  A    between atoms: O_5  and  C_6
REMARK    6  A    between atoms: C_9  and  C_10
REMARK    7  A    between atoms: C_10  and  N_11
REMARK                            x       y       z     vdW  Elec       q    Type
REMARK                         _______ _______ _______ _____ _____    ______ ____
ROOT
ATOM      1  C   UNL     1       1.163   7.703  21.363  0.00  0.00    +0.000 C 
ENDROOT
BRANCH   1   2
ATOM      2  N   UNL     1       2.067   7.898  20.238  0.00  0.00    +0.000 N 
ATOM      3  C   UNL     1       2.322   6.712  19.523  0.00  0.00    +0.000 A 
ATOM      4  C   UNL     1       3.174   6.728  18.421  0.00  0.00    +0.000 A 
ATOM      5  N   UNL     1       3.472   5.632  17.682  0.00  0.00    +0.000 NA
ATOM      6  C   UNL     1       2.879   4.485  18.061  0.00  0.00    +0.000 A 
ATOM      7  C   UNL     1       3.133   3.305  17.371  0.00  0.00    +0.000 A 
ATOM      8  C   UNL     1       2.541   2.098  17.749  0.00  0.00    +0.000 A 
ATOM      9  C   UNL     1       1.673   2.071  18.833  0.00  0.00    +0.000 A 
ATOM     10  C   UNL     1       1.405   3.249  19.529  0.00  0.00    +0.000 A 
ATOM     11  C   UNL     1       1.995   4.454  19.165  0.00  0.00    +0.000 A 
ATOM     12  N   UNL     1       1.718   5.562  19.882  0.00  0.00    +0.000 NA
ATOM     13  H   UNL     1       2.949   8.314  20.525  0.00  0.00    +0.000 HD
ENDBRANCH   1   2
BRANCH   1  17
ATOM     14  C   UNL     1      -0.789  11.344  22.340  0.00  0.00    +0.000 A 
ATOM     15  C   UNL     1      -0.688  11.014  20.999  0.00  0.00    +0.000 A 
ATOM     16  C   UNL     1      -0.060   9.815  20.658  0.00  0.00    +0.000 A 
ATOM     17  C   UNL     1       0.432   8.982  21.666  0.00  0.00    +0.000 A 
ATOM     18  C   UNL     1       0.233   9.383  22.983  0.00  0.00    +0.000 A 
ATOM     19  N   UNL     1      -0.356  10.547  23.338  0.00  0.00    +0.000 NA
BRANCH  14  20
ATOM     20  O   UNL     1      -1.392  12.547  22.648  0.00  0.00    +0.000 OA
BRANCH  20  21
ATOM     21  C   UNL     1      -2.701  12.360  23.195  0.00  0.00    +0.000 C 
BRANCH  21  22
ATOM     22  C   UNL     1      -3.732  13.011  22.279  0.00  0.00    +0.000 C 
BRANCH  22  24
ATOM     23  C   UNL     1      -6.081  13.099  22.492  0.00  0.00    +0.000 C 
ATOM     24  O   UNL     1      -4.945  12.260  22.336  0.00  0.00    +0.000 OA
ENDBRANCH  22  24
ENDBRANCH  21  22
ENDBRANCH  20  21
ENDBRANCH  14  20
ENDBRANCH   1  17
TORSDOF 6
ENDMDL
MODEL 8
REMARK VINA RESULT:      -6.8      4.387      7.247
REMARK  Name = 
REMARK  7 active torsions:
REMARK  status: ('A' for Active; 'I' for Inactive)
REMARK    1  A    between atoms: C_1  and  O_2
REMARK    2  A    between atoms: O_2  and  C_3
REMARK    3  A    between atoms: C_3  and  C_4
REMARK    4  A    between atoms: C_4  and  O_5
REMARK    5  A    between atoms: O_5  and  C_6
REMARK    6  A    between atoms: C_9  and  C_10
REMARK    7  A    between atoms: C_10  and  N_11
REMARK                            x       y       z     vdW  Elec       q    Type
REMARK                         _______ _______ _______ _____ _____    ______ ____
ROOT
ATOM      1  C   UNL     1       4.146   4.462  18.113  0.00  0.00    +0.000 C 
ENDROOT
BRANCH   1   2
ATOM      2  N   UNL     1       5.397   5.187  17.932  0.00  0.00    +0.000 N 
ATOM      3  C   UNL     1       5.925   5.058  16.634  0.00  0.00    +0.000 A 
ATOM      4  C   UNL     1       7.123   5.687  16.300  0.00  0.00    +0.000 A 
ATOM      5  N   UNL     1       7.699   5.612  15.075  0.00  0.00    +0.000 NA
ATOM      6  C   UNL     1       7.035   4.889  14.154  0.00  0.00    +0.000 A 
ATOM      7  C   UNL     1       7.554   4.745  12.873  0.00  0.00    +0.000 A 
ATOM      8  C   UNL     1       6.894   3.992  11.900  0.00  0.00    +0.000 A 
ATOM      9  C   UNL     1       5.688   3.377  12.212  0.00  0.00    +0.000 A 
ATOM     10  C   UNL     1       5.154   3.520  13.492  0.00  0.00    +0.000 A 
ATOM     11  C   UNL     1       5.808   4.261  14.470  0.00  0.00    +0.000 A 
ATOM     12  N   UNL     1       5.259   4.354  15.697  0.00  0.00    +0.000 NA
ATOM     13  H   UNL     1       6.100   4.908  18.612  0.00  0.00    +0.000 HD
ENDBRANCH   1   2
BRANCH   1  17
ATOM     14  C   UNL     1       1.503   6.678  20.588  0.00  0.00    +0.000 A 
ATOM     15  C   UNL     1       2.160   7.365  19.581  0.00  0.00    +0.000 A 
ATOM     16  C   UNL     1       3.025   6.651  18.749  0.00  0.00    +0.000 A 
ATOM     17  C   UNL     1       3.192   5.277  18.942  0.00  0.00    +0.000 A 
ATOM     18  C   UNL     1       2.445   4.676  19.950  0.00  0.00    +0.000 A 
ATOM     19  N   UNL     1       1.615   5.348  20.779  0.00  0.00    +0.000 NA
BRANCH  14  20
ATOM     20  O   UNL     1       0.673   7.413  21.411  0.00  0.00    +0.000 OA
BRANCH  20  21
ATOM     21  C   UNL     1       0.930   8.817  21.306  0.00  0.00    +0.000 C 
BRANCH  21  22
ATOM     22  C   UNL     1       1.487   9.331  22.630  0.00  0.00    +0.000 C 
BRANCH  22  24
ATOM     23  C   UNL     1      -0.624  10.385  22.659  0.00  0.00    +0.000 C 
ATOM     24  O   UNL     1       0.408   9.798  23.439  0.00  0.00    +0.000 OA
ENDBRANCH  22  24
ENDBRANCH  21  22
ENDBRANCH  20  21
ENDBRANCH  14  20
ENDBRANCH   1  17
TORSDOF 6
ENDMDL
MODEL 9
REMARK VINA RESULT:      -6.8      5.256      6.777
REMARK  Name = 
REMARK  7 active torsions:
REMARK  status: ('A' for Active; 'I' for Inactive)
REMARK    1  A    between atoms: C_1  and  O_2
REMARK    2  A    between atoms: O_2  and  C_3
REMARK    3  A    between atoms: C_3  and  C_4
REMARK    4  A    between atoms: C_4  and  O_5
REMARK    5  A    between atoms: O_5  and  C_6
REMARK    6  A    between atoms: C_9  and  C_10
REMARK    7  A    between atoms: C_10  and  N_11
REMARK                            x       y       z     vdW  Elec       q    Type
REMARK                         _______ _______ _______ _____ _____    ______ ____
ROOT
ATOM      1  C   UNL     1       2.824   6.749  18.740  0.00  0.00    +0.000 C 
ENDROOT
BRANCH   1   2
ATOM      2  N   UNL     1       2.371   7.964  18.076  0.00  0.00    +0.000 N 
ATOM      3  C   UNL     1       1.611   8.800  18.915  0.00  0.00    +0.000 A 
ATOM      4  C   UNL     1       1.097  10.000  18.429  0.00  0.00    +0.000 A 
ATOM      5  N   UNL     1       0.354  10.859  19.169  0.00  0.00    +0.000 NA
ATOM      6  C   UNL     1       0.137  10.499  20.448  0.00  0.00    +0.000 A 
ATOM      7  C   UNL     1      -0.624  11.311  21.282  0.00  0.00    +0.000 A 
ATOM      8  C   UNL     1      -0.877  10.957  22.609  0.00  0.00    +0.000 A 
ATOM      9  C   UNL     1      -0.353   9.774  23.115  0.00  0.00    +0.000 A 
ATOM     10  C   UNL     1       0.417   8.955  22.289  0.00  0.00    +0.000 A 
ATOM     11  C   UNL     1       0.668   9.294  20.964  0.00  0.00    +0.000 A 
ATOM     12  N   UNL     1       1.403   8.460  20.203  0.00  0.00    +0.000 NA
ATOM     13  H   UNL     1       1.842   7.763  17.231  0.00  0.00    +0.000 HD
ENDBRANCH   1   2
BRANCH   1  17
ATOM     14  C   UNL     1       5.839   4.823  16.455  0.00  0.00    +0.000 A 
ATOM     15  C   UNL     1       5.819   6.208  16.446  0.00  0.00    +0.000 A 
ATOM     16  C   UNL     1       4.842   6.860  17.200  0.00  0.00    +0.000 A 
ATOM     17  C   UNL     1       3.930   6.109  17.948  0.00  0.00    +0.000 A 
ATOM     18  C   UNL     1       4.071   4.725  17.926  0.00  0.00    +0.000 A 
ATOM     19  N   UNL     1       4.997   4.070  17.190  0.00  0.00    +0.000 NA
BRANCH  14  20
ATOM     20  O   UNL     1       6.800   4.205  15.680  0.00  0.00    +0.000 OA
BRANCH  20  21
ATOM     21  C   UNL     1       6.742   4.638  14.317  0.00  0.00    +0.000 C 
BRANCH  21  22
ATOM     22  C   UNL     1       5.559   3.972  13.622  0.00  0.00    +0.000 C 
BRANCH  22  24
ATOM     23  C   UNL     1       4.958   2.874  11.622  0.00  0.00    +0.000 C 
ATOM     24  O   UNL     1       6.027   3.290  12.458  0.00  0.00    +0.000 OA
ENDBRANCH  22  24
ENDBRANCH  21  22
ENDBRANCH  20  21
ENDBRANCH  14  20
ENDBRANCH   1  17
TORSDOF 6
ENDMDL
