MODEL 1
REMARK VINA RESULT:      -6.9      0.000      0.000
REMARK  Name = 
REMARK  8 active torsions:
REMARK  status: ('A' for Active; 'I' for Inactive)
REMARK    1  A    between atoms: C_1  and  C_2
REMARK    2  A    between atoms: C_2  and  C_3
REMARK    3  A    between atoms: C_2  and  C_4
REMARK    4  A    between atoms: C_4  and  O_5
REMARK    5  A    between atoms: O_5  and  C_6
REMARK    6  A    between atoms: C_9  and  C_10
REMARK    7  A    between atoms: C_11  and  C_12
REMARK    8  A    between atoms: N_14  and  O_15
REMARK                            x       y       z     vdW  Elec       q    Type
REMARK                         _______ _______ _______ _____ _____    ______ ____
ROOT
ATOM      1  C   UNL     1       3.834   4.676  19.011  0.00  0.00    +0.000 A 
ATOM      2  C   UNL     1       3.153   4.177  17.914  0.00  0.00    +0.000 A 
ATOM      3  C   UNL     1       3.840   3.866  16.725  0.00  0.00    +0.000 A 
ATOM      4  C   UNL     1       5.233   4.044  16.612  0.00  0.00    +0.000 A 
ATOM      5  C   UNL     1       5.914   4.507  17.757  0.00  0.00    +0.000 A 
ATOM      6 CL   UNL     1       7.636   4.683  17.852  0.00  0.00    +0.000 Cl
ATOM      7  C   UNL     1       5.216   4.830  18.929  0.00  0.00    +0.000 A 
ENDROOT
BRANCH   4   8
ATOM      8  C   UNL     1       5.845   3.684  15.305  0.00  0.00    +0.000 C 
ATOM      9  C   UNL     1       6.278   4.574  14.394  0.00  0.00    +0.000 C 
BRANCH   9  10
ATOM     10  C   UNL     1       6.877   4.192  13.090  0.00  0.00    +0.000 C 
ATOM     11  O   UNL     1       7.596   4.931  12.425  0.00  0.00    +0.000 OA
ATOM     12  N   UNL     1       6.537   2.920  12.709  0.00  0.00    +0.000 N 
ATOM     13  H   UNL     1       5.921   2.299  13.221  0.00  0.00    +0.000 HD
BRANCH  12  14
ATOM     14  O   UNL     1       7.046   2.440  11.484  0.00  0.00    +0.000 OA
ATOM     15  H   UNL     1       6.412   2.811  10.833  0.00  0.00    +0.000 HD
ENDBRANCH  12  14
ENDBRANCH   9  10
ENDBRANCH   4   8
BRANCH   1  16
ATOM     16  O   UNL     1       3.288   5.041  20.209  0.00  0.00    +0.000 OA
BRANCH  16  17
ATOM     17  C   UNL     1       1.869   5.176  20.257  0.00  0.00    +0.000 C 
BRANCH  17  19
ATOM     18  C   UNL     1       0.686   3.010  19.798  0.00  0.00    +0.000 C 
ATOM     19  C   UNL     1       1.259   3.916  20.887  0.00  0.00    +0.000 C 
ATOM     20  C   UNL     1       2.289   3.154  21.722  0.00  0.00    +0.000 C 
ENDBRANCH  17  19
ENDBRANCH  16  17
ENDBRANCH   1  16
TORSDOF 6
ENDMDL
MODEL 2
REMARK VINA RESULT:      -6.9      1.224      1.543
REMARK  Name = 
REMARK  8 active torsions:
REMARK  status: ('A' for Active; 'I' for Inactive)
REMARK    1  A    between atoms: C_1  and  C_2
REMARK    2  A    between atoms: C_2  and  C_3
REMARK    3  A    between atoms: C_2  and  C_4
REMARK    4  A    between atoms: C_4  and  O_5
REMARK    5  A    between atoms: O_5  and  C_6
REMARK    6  A    between atoms: C_9  and  C_10
REMARK    7  A    between atoms: C_11  and  C_12
REMARK    8  A    between atoms: N_14  and  O_15
REMARK                            x       y       z     vdW  Elec       q    Type
REMARK                         _______ _______ _______ _____ _____    ______ ____
ROOT
ATOM      1  C   UNL     1       4.120   4.209  19.186  0.00  0.00    +0.000 A 
ATOM      2  C   UNL     1       3.829   3.721  17.924  0.00  0.00    +0.000 A 
ATOM      3  C   UNL     1       4.660   4.024  16.829  0.00  0.00    +0.000 A 
ATOM      4  C   UNL     1       5.812   4.821  16.979  0.00  0.00    +0.000 A 
ATOM      5  C   UNL     1       6.118   5.267  18.281  0.00  0.00    +0.000 A 
ATOM      6 CL   UNL     1       7.546   6.161  18.687  0.00  0.00    +0.000 Cl
ATOM      7  C   UNL     1       5.272   4.974  19.360  0.00  0.00    +0.000 A 
ENDROOT
BRANCH   4   8
ATOM      8  C   UNL     1       6.609   5.074  15.749  0.00  0.00    +0.000 C 
ATOM      9  C   UNL     1       6.382   4.490  14.559  0.00  0.00    +0.000 C 
BRANCH   9  10
ATOM     10  C   UNL     1       7.198   4.749  13.345  0.00  0.00    +0.000 C 
ATOM     11  O   UNL     1       7.061   4.142  12.287  0.00  0.00    +0.000 OA
ATOM     12  N   UNL     1       8.123   5.742  13.536  0.00  0.00    +0.000 N 
ATOM     13  H   UNL     1       8.279   6.239  14.406  0.00  0.00    +0.000 HD
BRANCH  12  14
ATOM     14  O   UNL     1       8.961   6.082  12.453  0.00  0.00    +0.000 OA
ATOM     15  H   UNL     1       8.349   6.024  11.689  0.00  0.00    +0.000 HD
ENDBRANCH  12  14
ENDBRANCH   9  10
ENDBRANCH   4   8
BRANCH   1  16
ATOM     16  O   UNL     1       3.386   4.013  20.322  0.00  0.00    +0.000 OA
BRANCH  16  17
ATOM     17  C   UNL     1       2.094   4.613  20.367  0.00  0.00    +0.000 C 
BRANCH  17  19
ATOM     18  C   UNL     1       0.674   2.802  19.368  0.00  0.00    +0.000 C 
ATOM     19  C   UNL     1       1.042   3.535  20.657  0.00  0.00    +0.000 C 
ATOM     20  C   UNL     1       1.535   2.541  21.708  0.00  0.00    +0.000 C 
ENDBRANCH  17  19
ENDBRANCH  16  17
ENDBRANCH   1  16
TORSDOF 6
ENDMDL
MODEL 3
REMARK VINA RESULT:      -6.8      1.297      1.894
REMARK  Name = 
REMARK  8 active torsions:
REMARK  status: ('A' for Active; 'I' for Inactive)
REMARK    1  A    between atoms: C_1  and  C_2
REMARK    2  A    between atoms: C_2  and  C_3
REMARK    3  A    between atoms: C_2  and  C_4
REMARK    4  A    between atoms: C_4  and  O_5
REMARK    5  A    between atoms: O_5  and  C_6
REMARK    6  A    between atoms: C_9  and  C_10
REMARK    7  A    between atoms: C_11  and  C_12
REMARK    8  A    between atoms: N_14  and  O_15
REMARK                            x       y       z     vdW  Elec       q    Type
REMARK                         _______ _______ _______ _____ _____    ______ ____
ROOT
ATOM      1  C   UNL     1       4.152   3.938  19.162  0.00  0.00    +0.000 A 
ATOM      2  C   UNL     1       3.836   3.504  17.887  0.00  0.00    +0.000 A 
ATOM      3  C   UNL     1       4.618   3.892  16.783  0.00  0.00    +0.000 A 
ATOM      4  C   UNL     1       5.745   4.724  16.936  0.00  0.00    +0.000 A 
ATOM      5  C   UNL     1       6.078   5.115  18.249  0.00  0.00    +0.000 A 
ATOM      6 CL   UNL     1       7.486   6.041  18.655  0.00  0.00    +0.000 Cl
ATOM      7  C   UNL     1       5.280   4.737  19.338  0.00  0.00    +0.000 A 
ENDROOT
BRANCH   4   8
ATOM      8  C   UNL     1       6.491   5.068  15.696  0.00  0.00    +0.000 C 
ATOM      9  C   UNL     1       6.445   4.355  14.556  0.00  0.00    +0.000 C 
BRANCH   9  10
ATOM     10  C   UNL     1       7.207   4.711  13.332  0.00  0.00    +0.000 C 
ATOM     11  O   UNL     1       7.032   4.180  12.239  0.00  0.00    +0.000 OA
ATOM     12  N   UNL     1       8.129   5.700  13.556  0.00  0.00    +0.000 N 
ATOM     13  H   UNL     1       8.316   6.135  14.452  0.00  0.00    +0.000 HD
BRANCH  12  14
ATOM     14  O   UNL     1       8.918   6.127  12.467  0.00  0.00    +0.000 OA
ATOM     15  H   UNL     1       9.632   6.632  12.911  0.00  0.00    +0.000 HD
ENDBRANCH  12  14
ENDBRANCH   9  10
ENDBRANCH   4   8
BRANCH   1  16
ATOM     16  O   UNL     1       3.465   3.659  20.309  0.00  0.00    +0.000 OA
BRANCH  16  17
ATOM     17  C   UNL     1       2.674   2.472  20.315  0.00  0.00    +0.000 C 
BRANCH  17  19
ATOM     18  C   UNL     1       1.016   4.347  20.502  0.00  0.00    +0.000 C 
ATOM     19  C   UNL     1       1.188   2.850  20.246  0.00  0.00    +0.000 C 
ATOM     20  C   UNL     1       0.577   2.471  18.897  0.00  0.00    +0.000 C 
ENDBRANCH  17  19
ENDBRANCH  16  17
ENDBRANCH   1  16
TORSDOF 6
ENDMDL
MODEL 4
REMARK VINA RESULT:      -6.8      2.905      3.733
REMARK  Name = 
REMARK  8 active torsions:
REMARK  status: ('A' for Active; 'I' for Inactive)
REMARK    1  A    between atoms: C_1  and  C_2
REMARK    2  A    between atoms: C_2  and  C_3
REMARK    3  A    between atoms: C_2  and  C_4
REMARK    4  A    between atoms: C_4  and  O_5
REMARK    5  A    between atoms: O_5  and  C_6
REMARK    6  A    between atoms: C_9  and  C_10
REMARK    7  A    between atoms: C_11  and  C_12
REMARK    8  A    between atoms: N_14  and  O_15
REMARK                            x       y       z     vdW  Elec       q    Type
REMARK                         _______ _______ _______ _____ _____    ______ ____
ROOT
ATOM      1  C   UNL     1       2.376   6.790  19.725  0.00  0.00    +0.000 A 
ATOM      2  C   UNL     1       2.515   7.624  18.629  0.00  0.00    +0.000 A 
ATOM      3  C   UNL     1       3.451   7.330  17.619  0.00  0.00    +0.000 A 
ATOM      4  C   UNL     1       4.267   6.183  17.684  0.00  0.00    +0.000 A 
ATOM      5  C   UNL     1       4.075   5.322  18.784  0.00  0.00    +0.000 A 
ATOM      6 CL   UNL     1       4.899   3.810  18.985  0.00  0.00    +0.000 Cl
ATOM      7  C   UNL     1       3.152   5.635  19.792  0.00  0.00    +0.000 A 
ENDROOT
BRANCH   4   8
ATOM      8  C   UNL     1       5.220   5.980  16.560  0.00  0.00    +0.000 C 
ATOM      9  C   UNL     1       5.278   4.871  15.801  0.00  0.00    +0.000 C 
BRANCH   9  10
ATOM     10  C   UNL     1       6.245   4.685  14.689  0.00  0.00    +0.000 C 
ATOM     11  O   UNL     1       6.112   3.850  13.800  0.00  0.00    +0.000 OA
ATOM     12  N   UNL     1       7.306   5.549  14.766  0.00  0.00    +0.000 N 
ATOM     13  H   UNL     1       7.458   6.227  15.504  0.00  0.00    +0.000 HD
BRANCH  12  14
ATOM     14  O   UNL     1       8.296   5.471  13.763  0.00  0.00    +0.000 OA
ATOM     15  H   UNL     1       8.931   4.829  14.146  0.00  0.00    +0.000 HD
ENDBRANCH  12  14
ENDBRANCH   9  10
ENDBRANCH   4   8
BRANCH   1  16
ATOM     16  O   UNL     1       1.530   6.973  20.782  0.00  0.00    +0.000 OA
BRANCH  16  17
ATOM     17  C   UNL     1       1.427   8.296  21.305  0.00  0.00    +0.000 C 
BRANCH  17  19
ATOM     18  C   UNL     1      -0.420   9.222  22.729  0.00  0.00    +0.000 C 
ATOM     19  C   UNL     1      -0.048   8.718  21.335  0.00  0.00    +0.000 C 
ATOM     20  C   UNL     1      -0.343   9.792  20.287  0.00  0.00    +0.000 C 
ENDBRANCH  17  19
ENDBRANCH  16  17
ENDBRANCH   1  16
TORSDOF 6
ENDMDL
MODEL 5
REMARK VINA RESULT:      -6.8      1.421      1.883
REMARK  Name = 
REMARK  8 active torsions:
REMARK  status: ('A' for Active; 'I' for Inactive)
REMARK    1  A    between atoms: C_1  and  C_2
REMARK    2  A    between atoms: C_2  and  C_3
REMARK    3  A    between atoms: C_2  and  C_4
REMARK    4  A    between atoms: C_4  and  O_5
REMARK    5  A    between atoms: O_5  and  C_6
REMARK    6  A    between atoms: C_9  and  C_10
REMARK    7  A    between atoms: C_11  and  C_12
REMARK    8  A    between atoms: N_14  and  O_15
REMARK                            x       y       z     vdW  Elec       q    Type
REMARK                         _______ _______ _______ _____ _____    ______ ____
ROOT
ATOM      1  C   UNL     1       3.252   5.412  19.399  0.00  0.00    +0.000 A 
ATOM      2  C   UNL     1       2.796   5.405  18.093  0.00  0.00    +0.000 A 
ATOM      3  C   UNL     1       3.701   5.469  17.017  0.00  0.00    +0.000 A 
ATOM      4  C   UNL     1       5.093   5.535  17.229  0.00  0.00    +0.000 A 
ATOM      5  C   UNL     1       5.539   5.491  18.566  0.00  0.00    +0.000 A 
ATOM      6 CL   UNL     1       7.209   5.448  19.028  0.00  0.00    +0.000 Cl
ATOM      7  C   UNL     1       4.626   5.446  19.630  0.00  0.00    +0.000 A 
ENDROOT
BRANCH   4   8
ATOM      8  C   UNL     1       5.948   5.602  16.014  0.00  0.00    +0.000 C 
ATOM      9  C   UNL     1       6.059   4.617  15.105  0.00  0.00    +0.000 C 
BRANCH   9  10
ATOM     10  C   UNL     1       6.929   4.701  13.904  0.00  0.00    +0.000 C 
ATOM     11  O   UNL     1       6.732   4.067  12.872  0.00  0.00    +0.000 OA
ATOM     12  N   UNL     1       7.978   5.566  14.074  0.00  0.00    +0.000 N 
ATOM     13  H   UNL     1       8.183   6.079  14.924  0.00  0.00    +0.000 HD
BRANCH  12  14
ATOM     14  O   UNL     1       8.878   5.732  13.000  0.00  0.00    +0.000 OA
ATOM     15  H   UNL     1       9.081   6.691  13.043  0.00  0.00    +0.000 HD
ENDBRANCH  12  14
ENDBRANCH   9  10
ENDBRANCH   4   8
BRANCH   1  16
ATOM     16  O   UNL     1       2.483   5.381  20.528  0.00  0.00    +0.000 OA
BRANCH  16  17
ATOM     17  C   UNL     1       1.273   4.631  20.464  0.00  0.00    +0.000 C 
BRANCH  17  19
ATOM     18  C   UNL     1       1.436   2.464  21.719  0.00  0.00    +0.000 C 
ATOM     19  C   UNL     1       1.605   3.136  20.358  0.00  0.00    +0.000 C 
ATOM     20  C   UNL     1       0.730   2.442  19.313  0.00  0.00    +0.000 C 
ENDBRANCH  17  19
ENDBRANCH  16  17
ENDBRANCH   1  16
TORSDOF 6
ENDMDL
MODEL 6
REMARK VINA RESULT:      -6.8      1.649      1.806
REMARK  Name = 
REMARK  8 active torsions:
REMARK  status: ('A' for Active; 'I' for Inactive)
REMARK    1  A    between atoms: C_1  and  C_2
REMARK    2  A    between atoms: C_2  and  C_3
REMARK    3  A    between atoms: C_2  and  C_4
REMARK    4  A    between atoms: C_4  and  O_5
REMARK    5  A    between atoms: O_5  and  C_6
REMARK    6  A    between atoms: C_9  and  C_10
REMARK    7  A    between atoms: C_11  and  C_12
REMARK    8  A    between atoms: N_14  and  O_15
REMARK                            x       y       z     vdW  Elec       q    Type
REMARK                         _______ _______ _______ _____ _____    ______ ____
ROOT
ATOM      1  C   UNL     1       3.563   4.711  19.527  0.00  0.00    +0.000 A 
ATOM      2  C   UNL     1       4.356   3.743  18.937  0.00  0.00    +0.000 A 
ATOM      3  C   UNL     1       4.932   3.962  17.671  0.00  0.00    +0.000 A 
ATOM      4  C   UNL     1       4.727   5.167  16.969  0.00  0.00    +0.000 A 
ATOM      5  C   UNL     1       3.956   6.158  17.610  0.00  0.00    +0.000 A 
ATOM      6 CL   UNL     1       3.687   7.743  16.961  0.00  0.00    +0.000 Cl
ATOM      7  C   UNL     1       3.374   5.921  18.863  0.00  0.00    +0.000 A 
ENDROOT
BRANCH   4   8
ATOM      8  C   UNL     1       5.384   5.281  15.639  0.00  0.00    +0.000 C 
ATOM      9  C   UNL     1       6.578   4.744  15.330  0.00  0.00    +0.000 C 
BRANCH   9  10
ATOM     10  C   UNL     1       7.221   4.879  13.998  0.00  0.00    +0.000 C 
ATOM     11  O   UNL     1       8.154   5.641  13.764  0.00  0.00    +0.000 OA
ATOM     12  N   UNL     1       6.657   4.058  13.057  0.00  0.00    +0.000 N 
ATOM     13  H   UNL     1       5.868   3.442  13.213  0.00  0.00    +0.000 HD
BRANCH  12  14
ATOM     14  O   UNL     1       7.183   4.095  11.748  0.00  0.00    +0.000 OA
ATOM     15  H   UNL     1       8.085   3.730  11.873  0.00  0.00    +0.000 HD
ENDBRANCH  12  14
ENDBRANCH   9  10
ENDBRANCH   4   8
BRANCH   1  16
ATOM     16  O   UNL     1       2.927   4.615  20.733  0.00  0.00    +0.000 OA
BRANCH  16  17
ATOM     17  C   UNL     1       1.505   4.721  20.722  0.00  0.00    +0.000 C 
BRANCH  17  19
ATOM     18  C   UNL     1       0.780   2.747  19.352  0.00  0.00    +0.000 C 
ATOM     19  C   UNL     1       0.889   3.316  20.766  0.00  0.00    +0.000 C 
ATOM     20  C   UNL     1       1.706   2.375  21.653  0.00  0.00    +0.000 C 
ENDBRANCH  17  19
ENDBRANCH  16  17
ENDBRANCH   1  16
TORSDOF 6
ENDMDL
MODEL 7
REMARK VINA RESULT:      -6.8      0.938      1.006
REMARK  Name = 
REMARK  8 active torsions:
REMARK  status: ('A' for Active; 'I' for Inactive)
REMARK    1  A    between atoms: C_1  and  C_2
REMARK    2  A    between atoms: C_2  and  C_3
REMARK    3  A    between atoms: C_2  and  C_4
REMARK    4  A    between atoms: C_4  and  O_5
REMARK    5  A    between atoms: O_5  and  C_6
REMARK    6  A    between atoms: C_9  and  C_10
REMARK    7  A    between atoms: C_11  and  C_12
REMARK    8  A    between atoms: N_14  and  O_15
REMARK                            x       y       z     vdW  Elec       q    Type
REMARK                         _______ _______ _______ _____ _____    ______ ____
ROOT
ATOM      1  C   UNL     1       3.114   5.084  19.361  0.00  0.00    +0.000 A 
ATOM      2  C   UNL     1       2.715   4.787  18.069  0.00  0.00    +0.000 A 
ATOM      3  C   UNL     1       3.651   4.761  17.018  0.00  0.00    +0.000 A 
ATOM      4  C   UNL     1       5.016   5.027  17.242  0.00  0.00    +0.000 A 
ATOM      5  C   UNL     1       5.409   5.279  18.573  0.00  0.00    +0.000 A 
ATOM      6 CL   UNL     1       7.054   5.516  19.067  0.00  0.00    +0.000 Cl
ATOM      7  C   UNL     1       4.464   5.320  19.608  0.00  0.00    +0.000 A 
ENDROOT
BRANCH   4   8
ATOM      8  C   UNL     1       5.908   4.972  16.053  0.00  0.00    +0.000 C 
ATOM      9  C   UNL     1       5.621   4.316  14.914  0.00  0.00    +0.000 C 
BRANCH   9  10
ATOM     10  C   UNL     1       6.532   4.265  13.743  0.00  0.00    +0.000 C 
ATOM     11  O   UNL     1       7.391   5.110  13.507  0.00  0.00    +0.000 OA
ATOM     12  N   UNL     1       6.308   3.169  12.951  0.00  0.00    +0.000 N 
ATOM     13  H   UNL     1       5.588   2.473  13.103  0.00  0.00    +0.000 HD
BRANCH  12  14
ATOM     14  O   UNL     1       7.113   3.008  11.803  0.00  0.00    +0.000 OA
ATOM     15  H   UNL     1       6.568   3.428  11.104  0.00  0.00    +0.000 HD
ENDBRANCH  12  14
ENDBRANCH   9  10
ENDBRANCH   4   8
BRANCH   1  16
ATOM     16  O   UNL     1       2.307   5.169  20.460  0.00  0.00    +0.000 OA
BRANCH  16  17
ATOM     17  C   UNL     1       1.013   4.580  20.359  0.00  0.00    +0.000 C 
BRANCH  17  19
ATOM     18  C   UNL     1       1.154   2.184  19.625  0.00  0.00    +0.000 C 
ATOM     19  C   UNL     1       1.080   3.121  20.830  0.00  0.00    +0.000 C 
ATOM     20  C   UNL     1       2.273   2.886  21.757  0.00  0.00    +0.000 C 
ENDBRANCH  17  19
ENDBRANCH  16  17
ENDBRANCH   1  16
TORSDOF 6
ENDMDL
MODEL 8
REMARK VINA RESULT:      -6.6      0.704      1.017
REMARK  Name = 
REMARK  8 active torsions:
REMARK  status: ('A' for Active; 'I' for Inactive)
REMARK    1  A    between atoms: C_1  and  C_2
REMARK    2  A    between atoms: C_2  and  C_3
REMARK    3  A    between atoms: C_2  and  C_4
REMARK    4  A    between atoms: C_4  and  O_5
REMARK    5  A    between atoms: O_5  and  C_6
REMARK    6  A    between atoms: C_9  and  C_10
REMARK    7  A    between atoms: C_11  and  C_12
REMARK    8  A    between atoms: N_14  and  O_15
REMARK                            x       y       z     vdW  Elec       q    Type
REMARK                         _______ _______ _______ _____ _____    ______ ____
ROOT
ATOM      1  C   UNL     1       3.880   4.723  18.677  0.00  0.00    +0.000 A 
ATOM      2  C   UNL     1       3.307   4.247  17.511  0.00  0.00    +0.000 A 
ATOM      3  C   UNL     1       4.105   3.947  16.391  0.00  0.00    +0.000 A 
ATOM      4  C   UNL     1       5.504   4.113  16.419  0.00  0.00    +0.000 A 
ATOM      5  C   UNL     1       6.073   4.552  17.632  0.00  0.00    +0.000 A 
ATOM      6 CL   UNL     1       7.778   4.708  17.901  0.00  0.00    +0.000 Cl
ATOM      7  C   UNL     1       5.265   4.864  18.735  0.00  0.00    +0.000 A 
ENDROOT
BRANCH   4   8
ATOM      8  C   UNL     1       6.240   3.766  15.173  0.00  0.00    +0.000 C 
ATOM      9  C   UNL     1       5.843   4.104  13.933  0.00  0.00    +0.000 C 
BRANCH   9  10
ATOM     10  C   UNL     1       6.587   3.738  12.702  0.00  0.00    +0.000 C 
ATOM     11  O   UNL     1       7.335   4.504  12.101  0.00  0.00    +0.000 OA
ATOM     12  N   UNL     1       6.347   2.447  12.308  0.00  0.00    +0.000 N 
ATOM     13  H   UNL     1       5.713   1.803  12.765  0.00  0.00    +0.000 HD
BRANCH  12  14
ATOM     14  O   UNL     1       6.999   1.979  11.148  0.00  0.00    +0.000 OA
ATOM     15  H   UNL     1       7.555   1.250  11.499  0.00  0.00    +0.000 HD
ENDBRANCH  12  14
ENDBRANCH   9  10
ENDBRANCH   4   8
BRANCH   1  16
ATOM     16  O   UNL     1       3.221   5.075  19.821  0.00  0.00    +0.000 OA
BRANCH  16  17
ATOM     17  C   UNL     1       3.151   4.095  20.853  0.00  0.00    +0.000 C 
BRANCH  17  19
ATOM     18  C   UNL     1       1.597   2.424  21.899  0.00  0.00    +0.000 C 
ATOM     19  C   UNL     1       1.922   3.203  20.625  0.00  0.00    +0.000 C 
ATOM     20  C   UNL     1       0.710   4.024  20.183  0.00  0.00    +0.000 C 
ENDBRANCH  17  19
ENDBRANCH  16  17
ENDBRANCH   1  16
TORSDOF 6
ENDMDL
MODEL 9
REMARK VINA RESULT:      -6.6      1.430      1.708
REMARK  Name = 
REMARK  8 active torsions:
REMARK  status: ('A' for Active; 'I' for Inactive)
REMARK    1  A    between atoms: C_1  and  C_2
REMARK    2  A    between atoms: C_2  and  C_3
REMARK    3  A    between atoms: C_2  and  C_4
REMARK    4  A    between atoms: C_4  and  O_5
REMARK    5  A    between atoms: O_5  and  C_6
REMARK    6  A    between atoms: C_9  and  C_10
REMARK    7  A    between atoms: C_11  and  C_12
REMARK    8  A    between atoms: N_14  and  O_15
REMARK                            x       y       z     vdW  Elec       q    Type
REMARK                         _______ _______ _______ _____ _____    ______ ____
ROOT
ATOM      1  C   UNL     1       3.833   4.784  18.545  0.00  0.00    +0.000 A 
ATOM      2  C   UNL     1       4.400   3.546  18.299  0.00  0.00    +0.000 A 
ATOM      3  C   UNL     1       5.134   3.315  17.120  0.00  0.00    +0.000 A 
ATOM      4  C   UNL     1       5.321   4.330  16.160  0.00  0.00    +0.000 A 
ATOM      5  C   UNL     1       4.776   5.597  16.453  0.00  0.00    +0.000 A 
ATOM      6 CL   UNL     1       4.994   6.998  15.455  0.00  0.00    +0.000 Cl
ATOM      7  C   UNL     1       4.032   5.809  17.623  0.00  0.00    +0.000 A 
ENDROOT
BRANCH   4   8
ATOM      8  C   UNL     1       6.111   3.966  14.953  0.00  0.00    +0.000 C 
ATOM      9  C   UNL     1       5.611   3.894  13.707  0.00  0.00    +0.000 C 
BRANCH   9  10
ATOM     10  C   UNL     1       6.416   3.518  12.517  0.00  0.00    +0.000 C 
ATOM     11  O   UNL     1       7.200   4.276  11.954  0.00  0.00    +0.000 OA
ATOM     12  N   UNL     1       6.188   2.227  12.115  0.00  0.00    +0.000 N 
ATOM     13  H   UNL     1       5.525   1.589  12.541  0.00  0.00    +0.000 HD
BRANCH  12  14
ATOM     14  O   UNL     1       6.896   1.750  10.992  0.00  0.00    +0.000 OA
ATOM     15  H   UNL     1       7.735   2.257  11.043  0.00  0.00    +0.000 HD
ENDBRANCH  12  14
ENDBRANCH   9  10
ENDBRANCH   4   8
BRANCH   1  16
ATOM     16  O   UNL     1       3.079   5.130  19.631  0.00  0.00    +0.000 OA
BRANCH  16  17
ATOM     17  C   UNL     1       1.724   4.688  19.644  0.00  0.00    +0.000 C 
BRANCH  17  19
ATOM     18  C   UNL     1       1.311   2.875  21.329  0.00  0.00    +0.000 C 
ATOM     19  C   UNL     1       1.686   3.171  19.878  0.00  0.00    +0.000 C 
ATOM     20  C   UNL     1       0.707   2.483  18.927  0.00  0.00    +0.000 C 
ENDBRANCH  17  19
ENDBRANCH  16  17
ENDBRANCH   1  16
TORSDOF 6
ENDMDL
