MODEL 1
REMARK VINA RESULT:      -8.2      0.000      0.000
REMARK  Name = 
REMARK  5 active torsions:
REMARK  status: ('A' for Active; 'I' for Inactive)
REMARK    1  A    between atoms: C_1  and  C_2
REMARK    2  A    between atoms: C_5  and  S_6
REMARK    3  A    between atoms: S_6  and  C_9
REMARK    4  A    between atoms: C_9  and  C_10
REMARK    5  A    between atoms: C_16  and  C_17
REMARK                            x       y       z     vdW  Elec       q    Type
REMARK                         _______ _______ _______ _____ _____    ______ ____
ROOT
ATOM      1  C   UNL     1       2.102   4.363  19.331  0.00  0.00    +0.000 C 
ATOM      2  O   UNL     1       1.574   4.457  18.222  0.00  0.00    +0.000 OA
ATOM      3  N   UNL     1       2.375   5.410  20.192  0.00  0.00    +0.000 N 
ATOM      4  C   UNL     1       2.064   6.708  19.888  0.00  0.00    +0.000 A 
ATOM      5  N   UNL     1       1.575   7.497  20.801  0.00  0.00    +0.000 NA
ATOM      6  C   UNL     1       1.240   8.706  20.223  0.00  0.00    +0.000 A 
ATOM      7  C   UNL     1       0.459   9.701  20.849  0.00  0.00    +0.000 A 
ATOM      8  C   UNL     1      -0.234   9.421  22.150  0.00  0.00    +0.000 C 
ATOM      9  C   UNL     1       0.223  10.898  20.153  0.00  0.00    +0.000 A 
ATOM     10  C   UNL     1       0.740  11.098  18.873  0.00  0.00    +0.000 A 
ATOM     11  C   UNL     1       1.468  10.095  18.224  0.00  0.00    +0.000 A 
ATOM     12  C   UNL     1       1.685   8.889  18.912  0.00  0.00    +0.000 A 
ATOM     13  S   UNL     1       2.416   7.413  18.379  0.00  0.00    +0.000 S 
ATOM     14  H   UNL     1       2.268   5.224  21.183  0.00  0.00    +0.000 HD
ENDROOT
BRANCH   1  15
ATOM     15  C   UNL     1       2.524   3.031  19.859  0.00  0.00    +0.000 C 
BRANCH  15  16
ATOM     16  S   UNL     1       4.001   2.475  19.089  0.00  0.00    +0.000 S 
ATOM     17  O   UNL     1       3.614   1.720  17.909  0.00  0.00    +0.000 OA
ATOM     18  O   UNL     1       4.797   1.829  20.121  0.00  0.00    +0.000 OA
BRANCH  16  23
ATOM     19  C   UNL     1       7.388   7.157  17.219  0.00  0.00    +0.000 C 
ATOM     20  C   UNL     1       6.521   6.028  17.699  0.00  0.00    +0.000 A 
ATOM     21  C   UNL     1       6.536   5.632  19.042  0.00  0.00    +0.000 A 
ATOM     22  C   UNL     1       5.737   4.570  19.476  0.00  0.00    +0.000 A 
ATOM     23  C   UNL     1       4.910   3.908  18.566  0.00  0.00    +0.000 A 
ATOM     24  C   UNL     1       4.900   4.280  17.220  0.00  0.00    +0.000 A 
ATOM     25  C   UNL     1       5.699   5.343  16.793  0.00  0.00    +0.000 A 
ENDBRANCH  16  23
ENDBRANCH  15  16
ENDBRANCH   1  15
TORSDOF 3
ENDMDL
MODEL 2
REMARK VINA RESULT:      -8.1      0.281      1.026
REMARK  Name = 
REMARK  5 active torsions:
REMARK  status: ('A' for Active; 'I' for Inactive)
REMARK    1  A    between atoms: C_1  and  C_2
REMARK    2  A    between atoms: C_5  and  S_6
REMARK    3  A    between atoms: S_6  and  C_9
REMARK    4  A    between atoms: C_9  and  C_10
REMARK    5  A    between atoms: C_16  and  C_17
REMARK                            x       y       z     vdW  Elec       q    Type
REMARK                         _______ _______ _______ _____ _____    ______ ____
ROOT
ATOM      1  C   UNL     1       2.265   4.536  19.686  0.00  0.00    +0.000 C 
ATOM      2  O   UNL     1       1.697   4.529  18.592  0.00  0.00    +0.000 OA
ATOM      3  N   UNL     1       2.495   5.649  20.474  0.00  0.00    +0.000 N 
ATOM      4  C   UNL     1       2.088   6.904  20.107  0.00  0.00    +0.000 A 
ATOM      5  N   UNL     1       1.576   7.712  20.991  0.00  0.00    +0.000 NA
ATOM      6  C   UNL     1       1.142   8.859  20.357  0.00  0.00    +0.000 A 
ATOM      7  C   UNL     1       0.317   9.837  20.952  0.00  0.00    +0.000 A 
ATOM      8  C   UNL     1      -0.314   9.590  22.291  0.00  0.00    +0.000 C 
ATOM      9  C   UNL     1      -0.022  10.972  20.197  0.00  0.00    +0.000 A 
ATOM     10  C   UNL     1       0.438  11.128  18.889  0.00  0.00    +0.000 A 
ATOM     11  C   UNL     1       1.212  10.138  18.273  0.00  0.00    +0.000 A 
ATOM     12  C   UNL     1       1.531   8.993  19.022  0.00  0.00    +0.000 A 
ATOM     13  S   UNL     1       2.342   7.538  18.548  0.00  0.00    +0.000 S 
ATOM     14  H   UNL     1       2.433   5.516  21.478  0.00  0.00    +0.000 HD
ENDROOT
BRANCH   1  15
ATOM     15  C   UNL     1       2.793   3.269  20.274  0.00  0.00    +0.000 C 
BRANCH  15  16
ATOM     16  S   UNL     1       4.056   2.574  19.271  0.00  0.00    +0.000 S 
ATOM     17  O   UNL     1       3.403   1.908  18.157  0.00  0.00    +0.000 OA
ATOM     18  O   UNL     1       4.921   1.807  20.153  0.00  0.00    +0.000 OA
BRANCH  16  23
ATOM     19  C   UNL     1       7.138   7.372  17.182  0.00  0.00    +0.000 C 
ATOM     20  C   UNL     1       6.404   6.159  17.677  0.00  0.00    +0.000 A 
ATOM     21  C   UNL     1       5.533   5.453  16.838  0.00  0.00    +0.000 A 
ATOM     22  C   UNL     1       4.843   4.334  17.313  0.00  0.00    +0.000 A 
ATOM     23  C   UNL     1       5.034   3.910  18.630  0.00  0.00    +0.000 A 
ATOM     24  C   UNL     1       5.885   4.616  19.484  0.00  0.00    +0.000 A 
ATOM     25  C   UNL     1       6.573   5.732  19.002  0.00  0.00    +0.000 A 
ENDBRANCH  16  23
ENDBRANCH  15  16
ENDBRANCH   1  15
TORSDOF 3
ENDMDL
MODEL 3
REMARK VINA RESULT:      -8.0      1.539      2.091
REMARK  Name = 
REMARK  5 active torsions:
REMARK  status: ('A' for Active; 'I' for Inactive)
REMARK    1  A    between atoms: C_1  and  C_2
REMARK    2  A    between atoms: C_5  and  S_6
REMARK    3  A    between atoms: S_6  and  C_9
REMARK    4  A    between atoms: C_9  and  C_10
REMARK    5  A    between atoms: C_16  and  C_17
REMARK                            x       y       z     vdW  Elec       q    Type
REMARK                         _______ _______ _______ _____ _____    ______ ____
ROOT
ATOM      1  C   UNL     1       2.394   5.279  18.764  0.00  0.00    +0.000 C 
ATOM      2  O   UNL     1       1.779   5.487  17.717  0.00  0.00    +0.000 OA
ATOM      3  N   UNL     1       2.561   6.178  19.801  0.00  0.00    +0.000 N 
ATOM      4  C   UNL     1       2.029   7.439  19.770  0.00  0.00    +0.000 A 
ATOM      5  N   UNL     1       1.489   7.951  20.839  0.00  0.00    +0.000 NA
ATOM      6  C   UNL     1       0.928   9.172  20.523  0.00  0.00    +0.000 A 
ATOM      7  C   UNL     1       0.048   9.888  21.363  0.00  0.00    +0.000 A 
ATOM      8  C   UNL     1      -0.496   9.257  22.611  0.00  0.00    +0.000 C 
ATOM      9  C   UNL     1      -0.423  11.136  20.924  0.00  0.00    +0.000 A 
ATOM     10  C   UNL     1      -0.038  11.655  19.688  0.00  0.00    +0.000 A 
ATOM     11  C   UNL     1       0.790  10.927  18.826  0.00  0.00    +0.000 A 
ATOM     12  C   UNL     1       1.242   9.668  19.256  0.00  0.00    +0.000 A 
ATOM     13  S   UNL     1       2.155   8.461  18.415  0.00  0.00    +0.000 S 
ATOM     14  H   UNL     1       2.557   5.795  20.741  0.00  0.00    +0.000 HD
ENDROOT
BRANCH   1  15
ATOM     15  C   UNL     1       3.057   3.962  19.004  0.00  0.00    +0.000 C 
BRANCH  15  16
ATOM     16  S   UNL     1       4.795   4.141  19.176  0.00  0.00    +0.000 S 
ATOM     17  O   UNL     1       5.290   2.939  19.825  0.00  0.00    +0.000 OA
ATOM     18  O   UNL     1       5.026   5.435  19.799  0.00  0.00    +0.000 OA
BRANCH  16  23
ATOM     19  C   UNL     1       7.091   4.784  13.591  0.00  0.00    +0.000 C 
ATOM     20  C   UNL     1       6.527   4.581  14.967  0.00  0.00    +0.000 A 
ATOM     21  C   UNL     1       5.197   4.180  15.148  0.00  0.00    +0.000 A 
ATOM     22  C   UNL     1       4.677   4.009  16.434  0.00  0.00    +0.000 A 
ATOM     23  C   UNL     1       5.494   4.227  17.546  0.00  0.00    +0.000 A 
ATOM     24  C   UNL     1       6.816   4.646  17.381  0.00  0.00    +0.000 A 
ATOM     25  C   UNL     1       7.330   4.814  16.093  0.00  0.00    +0.000 A 
ENDBRANCH  16  23
ENDBRANCH  15  16
ENDBRANCH   1  15
TORSDOF 3
ENDMDL
MODEL 4
REMARK VINA RESULT:      -7.7      2.186      2.804
REMARK  Name = 
REMARK  5 active torsions:
REMARK  status: ('A' for Active; 'I' for Inactive)
REMARK    1  A    between atoms: C_1  and  C_2
REMARK    2  A    between atoms: C_5  and  S_6
REMARK    3  A    between atoms: S_6  and  C_9
REMARK    4  A    between atoms: C_9  and  C_10
REMARK    5  A    between atoms: C_16  and  C_17
REMARK                            x       y       z     vdW  Elec       q    Type
REMARK                         _______ _______ _______ _____ _____    ______ ____
ROOT
ATOM      1  C   UNL     1       3.013   5.722  18.604  0.00  0.00    +0.000 C 
ATOM      2  O   UNL     1       2.224   5.659  17.659  0.00  0.00    +0.000 OA
ATOM      3  N   UNL     1       3.070   6.730  19.548  0.00  0.00    +0.000 N 
ATOM      4  C   UNL     1       2.215   7.799  19.532  0.00  0.00    +0.000 A 
ATOM      5  N   UNL     1       1.711   8.253  20.643  0.00  0.00    +0.000 NA
ATOM      6  C   UNL     1       0.798   9.247  20.354  0.00  0.00    +0.000 A 
ATOM      7  C   UNL     1      -0.118   9.786  21.283  0.00  0.00    +0.000 A 
ATOM      8  C   UNL     1      -0.289   9.161  22.636  0.00  0.00    +0.000 C 
ATOM      9  C   UNL     1      -0.969  10.819  20.857  0.00  0.00    +0.000 A 
ATOM     10  C   UNL     1      -0.918  11.297  19.547  0.00  0.00    +0.000 A 
ATOM     11  C   UNL     1      -0.052  10.731  18.605  0.00  0.00    +0.000 A 
ATOM     12  C   UNL     1       0.784   9.683  19.027  0.00  0.00    +0.000 A 
ATOM     13  S   UNL     1       1.865   8.681  18.119  0.00  0.00    +0.000 S 
ATOM     14  H   UNL     1       3.303   6.453  20.496  0.00  0.00    +0.000 HD
ENDROOT
BRANCH   1  15
ATOM     15  C   UNL     1       4.038   4.655  18.806  0.00  0.00    +0.000 C 
BRANCH  15  16
ATOM     16  S   UNL     1       5.633   5.195  18.309  0.00  0.00    +0.000 S 
ATOM     17  O   UNL     1       6.604   4.409  19.052  0.00  0.00    +0.000 OA
ATOM     18  O   UNL     1       5.645   6.644  18.431  0.00  0.00    +0.000 OA
BRANCH  16  23
ATOM     19  C   UNL     1       6.431   3.629  12.496  0.00  0.00    +0.000 C 
ATOM     20  C   UNL     1       6.221   4.056  13.920  0.00  0.00    +0.000 A 
ATOM     21  C   UNL     1       7.160   4.863  14.575  0.00  0.00    +0.000 A 
ATOM     22  C   UNL     1       6.963   5.243  15.905  0.00  0.00    +0.000 A 
ATOM     23  C   UNL     1       5.814   4.826  16.582  0.00  0.00    +0.000 A 
ATOM     24  C   UNL     1       4.879   4.005  15.948  0.00  0.00    +0.000 A 
ATOM     25  C   UNL     1       5.081   3.630  14.618  0.00  0.00    +0.000 A 
ENDBRANCH  16  23
ENDBRANCH  15  16
ENDBRANCH   1  15
TORSDOF 3
ENDMDL
MODEL 5
REMARK VINA RESULT:      -7.5      0.813      1.278
REMARK  Name = 
REMARK  5 active torsions:
REMARK  status: ('A' for Active; 'I' for Inactive)
REMARK    1  A    between atoms: C_1  and  C_2
REMARK    2  A    between atoms: C_5  and  S_6
REMARK    3  A    between atoms: S_6  and  C_9
REMARK    4  A    between atoms: C_9  and  C_10
REMARK    5  A    between atoms: C_16  and  C_17
REMARK                            x       y       z     vdW  Elec       q    Type
REMARK                         _______ _______ _______ _____ _____    ______ ____
ROOT
ATOM      1  C   UNL     1       1.650   4.083  18.418  0.00  0.00    +0.000 C 
ATOM      2  O   UNL     1       1.185   4.421  17.328  0.00  0.00    +0.000 OA
ATOM      3  N   UNL     1       2.061   4.937  19.425  0.00  0.00    +0.000 N 
ATOM      4  C   UNL     1       1.979   6.299  19.311  0.00  0.00    +0.000 A 
ATOM      5  N   UNL     1       1.593   7.020  20.324  0.00  0.00    +0.000 NA
ATOM      6  C   UNL     1       1.481   8.338  19.926  0.00  0.00    +0.000 A 
ATOM      7  C   UNL     1       0.853   9.350  20.681  0.00  0.00    +0.000 A 
ATOM      8  C   UNL     1       0.077   9.008  21.920  0.00  0.00    +0.000 C 
ATOM      9  C   UNL     1       0.841  10.656  20.165  0.00  0.00    +0.000 A 
ATOM     10  C   UNL     1       1.428  10.947  18.933  0.00  0.00    +0.000 A 
ATOM     11  C   UNL     1       2.005   9.939  18.153  0.00  0.00    +0.000 A 
ATOM     12  C   UNL     1       1.997   8.629  18.660  0.00  0.00    +0.000 A 
ATOM     13  S   UNL     1       2.494   7.142  17.925  0.00  0.00    +0.000 S 
ATOM     14  H   UNL     1       1.890   4.632  20.378  0.00  0.00    +0.000 HD
ENDROOT
BRANCH   1  15
ATOM     15  C   UNL     1       1.830   2.638  18.750  0.00  0.00    +0.000 C 
BRANCH  15  16
ATOM     16  S   UNL     1       3.489   2.285  19.203  0.00  0.00    +0.000 S 
ATOM     17  O   UNL     1       3.821   0.987  18.641  0.00  0.00    +0.000 OA
ATOM     18  O   UNL     1       3.587   2.488  20.639  0.00  0.00    +0.000 OA
BRANCH  16  23
ATOM     19  C   UNL     1       6.765   6.699  16.620  0.00  0.00    +0.000 C 
ATOM     20  C   UNL     1       5.987   5.578  17.247  0.00  0.00    +0.000 A 
ATOM     21  C   UNL     1       5.247   4.688  16.459  0.00  0.00    +0.000 A 
ATOM     22  C   UNL     1       4.513   3.657  17.053  0.00  0.00    +0.000 A 
ATOM     23  C   UNL     1       4.528   3.508  18.442  0.00  0.00    +0.000 A 
ATOM     24  C   UNL     1       5.246   4.400  19.241  0.00  0.00    +0.000 A 
ATOM     25  C   UNL     1       5.978   5.427  18.641  0.00  0.00    +0.000 A 
ENDBRANCH  16  23
ENDBRANCH  15  16
ENDBRANCH   1  15
TORSDOF 3
ENDMDL
MODEL 6
REMARK VINA RESULT:      -7.3      5.417      7.019
REMARK  Name = 
REMARK  5 active torsions:
REMARK  status: ('A' for Active; 'I' for Inactive)
REMARK    1  A    between atoms: C_1  and  C_2
REMARK    2  A    between atoms: C_5  and  S_6
REMARK    3  A    between atoms: S_6  and  C_9
REMARK    4  A    between atoms: C_9  and  C_10
REMARK    5  A    between atoms: C_16  and  C_17
REMARK                            x       y       z     vdW  Elec       q    Type
REMARK                         _______ _______ _______ _____ _____    ______ ____
ROOT
ATOM      1  C   UNL     1       7.985   7.873  18.348  0.00  0.00    +0.000 C 
ATOM      2  O   UNL     1       7.360   8.411  17.432  0.00  0.00    +0.000 OA
ATOM      3  N   UNL     1       8.870   8.500  19.205  0.00  0.00    +0.000 N 
ATOM      4  C   UNL     1       9.144   9.839  19.125  0.00  0.00    +0.000 A 
ATOM      5  N   UNL     1       9.259  10.551  20.210  0.00  0.00    +0.000 NA
ATOM      6  C   UNL     1       9.418  11.878  19.865  0.00  0.00    +0.000 A 
ATOM      7  C   UNL     1       9.321  12.956  20.771  0.00  0.00    +0.000 A 
ATOM      8  C   UNL     1       8.839  12.732  22.175  0.00  0.00    +0.000 C 
ATOM      9  C   UNL     1       9.538  14.256  20.285  0.00  0.00    +0.000 A 
ATOM     10  C   UNL     1       9.834  14.480  18.941  0.00  0.00    +0.000 A 
ATOM     11  C   UNL     1       9.877  13.423  18.025  0.00  0.00    +0.000 A 
ATOM     12  C   UNL     1       9.638  12.125  18.508  0.00  0.00    +0.000 A 
ATOM     13  S   UNL     1       9.486  10.625  17.655  0.00  0.00    +0.000 S 
ATOM     14  H   UNL     1       8.880   8.174  20.166  0.00  0.00    +0.000 HD
ENDROOT
BRANCH   1  15
ATOM     15  C   UNL     1       7.835   6.410  18.609  0.00  0.00    +0.000 C 
BRANCH  15  16
ATOM     16  S   UNL     1       7.370   5.543  17.155  0.00  0.00    +0.000 S 
ATOM     17  O   UNL     1       8.071   4.270  17.171  0.00  0.00    +0.000 OA
ATOM     18  O   UNL     1       7.570   6.453  16.039  0.00  0.00    +0.000 OA
BRANCH  16  23
ATOM     19  C   UNL     1       1.457   4.327  17.814  0.00  0.00    +0.000 C 
ATOM     20  C   UNL     1       2.912   4.634  17.607  0.00  0.00    +0.000 A 
ATOM     21  C   UNL     1       3.778   3.679  17.059  0.00  0.00    +0.000 A 
ATOM     22  C   UNL     1       5.134   3.969  16.886  0.00  0.00    +0.000 A 
ATOM     23  C   UNL     1       5.626   5.225  17.249  0.00  0.00    +0.000 A 
ATOM     24  C   UNL     1       4.778   6.180  17.814  0.00  0.00    +0.000 A 
ATOM     25  C   UNL     1       3.424   5.884  17.984  0.00  0.00    +0.000 A 
ENDBRANCH  16  23
ENDBRANCH  15  16
ENDBRANCH   1  15
TORSDOF 3
ENDMDL
MODEL 7
REMARK VINA RESULT:      -7.2      5.648      7.273
REMARK  Name = 
REMARK  5 active torsions:
REMARK  status: ('A' for Active; 'I' for Inactive)
REMARK    1  A    between atoms: C_1  and  C_2
REMARK    2  A    between atoms: C_5  and  S_6
REMARK    3  A    between atoms: S_6  and  C_9
REMARK    4  A    between atoms: C_9  and  C_10
REMARK    5  A    between atoms: C_16  and  C_17
REMARK                            x       y       z     vdW  Elec       q    Type
REMARK                         _______ _______ _______ _____ _____    ______ ____
ROOT
ATOM      1  C   UNL     1       8.126   8.355  18.167  0.00  0.00    +0.000 C 
ATOM      2  O   UNL     1       7.692   9.059  17.254  0.00  0.00    +0.000 OA
ATOM      3  N   UNL     1       8.926   8.780  19.211  0.00  0.00    +0.000 N 
ATOM      4  C   UNL     1       9.325  10.083  19.345  0.00  0.00    +0.000 A 
ATOM      5  N   UNL     1       9.341  10.647  20.519  0.00  0.00    +0.000 NA
ATOM      6  C   UNL     1       9.664  11.981  20.376  0.00  0.00    +0.000 A 
ATOM      7  C   UNL     1       9.530  12.950  21.394  0.00  0.00    +0.000 A 
ATOM      8  C   UNL     1       8.829  12.614  22.678  0.00  0.00    +0.000 C 
ATOM      9  C   UNL     1       9.928  14.267  21.116  0.00  0.00    +0.000 A 
ATOM     10  C   UNL     1      10.437  14.615  19.865  0.00  0.00    +0.000 A 
ATOM     11  C   UNL     1      10.522  13.674  18.833  0.00  0.00    +0.000 A 
ATOM     12  C   UNL     1      10.102  12.361  19.105  0.00  0.00    +0.000 A 
ATOM     13  S   UNL     1       9.947  10.996  18.051  0.00  0.00    +0.000 S 
ATOM     14  H   UNL     1       8.767   8.344  20.113  0.00  0.00    +0.000 HD
ENDROOT
BRANCH   1  15
ATOM     15  C   UNL     1       7.812   6.895  18.211  0.00  0.00    +0.000 C 
BRANCH  15  16
ATOM     16  S   UNL     1       6.743   6.428  16.900  0.00  0.00    +0.000 S 
ATOM     17  O   UNL     1       7.579   5.952  15.811  0.00  0.00    +0.000 OA
ATOM     18  O   UNL     1       5.842   7.547  16.671  0.00  0.00    +0.000 OA
BRANCH  16  23
ATOM     19  C   UNL     1       3.057   2.045  18.921  0.00  0.00    +0.000 C 
ATOM     20  C   UNL     1       4.002   3.100  18.423  0.00  0.00    +0.000 A 
ATOM     21  C   UNL     1       4.863   3.768  19.303  0.00  0.00    +0.000 A 
ATOM     22  C   UNL     1       5.728   4.759  18.833  0.00  0.00    +0.000 A 
ATOM     23  C   UNL     1       5.743   5.077  17.472  0.00  0.00    +0.000 A 
ATOM     24  C   UNL     1       4.877   4.433  16.586  0.00  0.00    +0.000 A 
ATOM     25  C   UNL     1       4.015   3.442  17.063  0.00  0.00    +0.000 A 
ENDBRANCH  16  23
ENDBRANCH  15  16
ENDBRANCH   1  15
TORSDOF 3
ENDMDL
MODEL 8
REMARK VINA RESULT:      -7.2      3.332      4.331
REMARK  Name = 
REMARK  5 active torsions:
REMARK  status: ('A' for Active; 'I' for Inactive)
REMARK    1  A    between atoms: C_1  and  C_2
REMARK    2  A    between atoms: C_5  and  S_6
REMARK    3  A    between atoms: S_6  and  C_9
REMARK    4  A    between atoms: C_9  and  C_10
REMARK    5  A    between atoms: C_16  and  C_17
REMARK                            x       y       z     vdW  Elec       q    Type
REMARK                         _______ _______ _______ _____ _____    ______ ____
ROOT
ATOM      1  C   UNL     1       4.553   5.549  18.192  0.00  0.00    +0.000 C 
ATOM      2  O   UNL     1       5.026   5.523  19.330  0.00  0.00    +0.000 OA
ATOM      3  N   UNL     1       3.417   6.233  17.800  0.00  0.00    +0.000 N 
ATOM      4  C   UNL     1       2.679   6.988  18.671  0.00  0.00    +0.000 A 
ATOM      5  N   UNL     1       2.199   8.140  18.298  0.00  0.00    +0.000 NA
ATOM      6  C   UNL     1       1.599   8.752  19.379  0.00  0.00    +0.000 A 
ATOM      7  C   UNL     1       1.198  10.105  19.410  0.00  0.00    +0.000 A 
ATOM      8  C   UNL     1       1.583  11.040  18.301  0.00  0.00    +0.000 C 
ATOM      9  C   UNL     1       0.569  10.587  20.570  0.00  0.00    +0.000 A 
ATOM     10  C   UNL     1       0.350   9.754  21.667  0.00  0.00    +0.000 A 
ATOM     11  C   UNL     1       0.793   8.426  21.665  0.00  0.00    +0.000 A 
ATOM     12  C   UNL     1       1.443   7.952  20.514  0.00  0.00    +0.000 A 
ATOM     13  S   UNL     1       2.223   6.435  20.215  0.00  0.00    +0.000 S 
ATOM     14  H   UNL     1       3.430   6.641  16.871  0.00  0.00    +0.000 HD
ENDROOT
BRANCH   1  15
ATOM     15  C   UNL     1       5.204   4.788  17.084  0.00  0.00    +0.000 C 
BRANCH  15  16
ATOM     16  S   UNL     1       6.036   5.860  15.970  0.00  0.00    +0.000 S 
ATOM     17  O   UNL     1       7.338   6.153  16.545  0.00  0.00    +0.000 OA
ATOM     18  O   UNL     1       5.123   6.954  15.677  0.00  0.00    +0.000 OA
BRANCH  16  23
ATOM     19  C   UNL     1       7.050   2.584  10.958  0.00  0.00    +0.000 C 
ATOM     20  C   UNL     1       6.786   3.428  12.171  0.00  0.00    +0.000 A 
ATOM     21  C   UNL     1       7.686   4.427  12.562  0.00  0.00    +0.000 A 
ATOM     22  C   UNL     1       7.439   5.197  13.703  0.00  0.00    +0.000 A 
ATOM     23  C   UNL     1       6.279   4.976  14.449  0.00  0.00    +0.000 A 
ATOM     24  C   UNL     1       5.382   3.971  14.082  0.00  0.00    +0.000 A 
ATOM     25  C   UNL     1       5.635   3.206  12.941  0.00  0.00    +0.000 A 
ENDBRANCH  16  23
ENDBRANCH  15  16
ENDBRANCH   1  15
TORSDOF 3
ENDMDL
MODEL 9
REMARK VINA RESULT:      -7.1      2.340      3.808
REMARK  Name = 
REMARK  5 active torsions:
REMARK  status: ('A' for Active; 'I' for Inactive)
REMARK    1  A    between atoms: C_1  and  C_2
REMARK    2  A    between atoms: C_5  and  S_6
REMARK    3  A    between atoms: S_6  and  C_9
REMARK    4  A    between atoms: C_9  and  C_10
REMARK    5  A    between atoms: C_16  and  C_17
REMARK                            x       y       z     vdW  Elec       q    Type
REMARK                         _______ _______ _______ _____ _____    ______ ____
ROOT
ATOM      1  C   UNL     1       4.610   6.755  17.416  0.00  0.00    +0.000 C 
ATOM      2  O   UNL     1       5.197   6.627  18.492  0.00  0.00    +0.000 OA
ATOM      3  N   UNL     1       3.354   7.305  17.236  0.00  0.00    +0.000 N 
ATOM      4  C   UNL     1       2.611   7.790  18.279  0.00  0.00    +0.000 A 
ATOM      5  N   UNL     1       1.937   8.897  18.145  0.00  0.00    +0.000 NA
ATOM      6  C   UNL     1       1.371   9.232  19.359  0.00  0.00    +0.000 A 
ATOM      7  C   UNL     1       0.789  10.484  19.650  0.00  0.00    +0.000 A 
ATOM      8  C   UNL     1       0.920  11.629  18.688  0.00  0.00    +0.000 C 
ATOM      9  C   UNL     1       0.222  10.675  20.920  0.00  0.00    +0.000 A 
ATOM     10  C   UNL     1       0.238   9.658  21.875  0.00  0.00    +0.000 A 
ATOM     11  C   UNL     1       0.861   8.433  21.613  0.00  0.00    +0.000 A 
ATOM     12  C   UNL     1       1.449   8.250  20.350  0.00  0.00    +0.000 A 
ATOM     13  S   UNL     1       2.400   6.940  19.738  0.00  0.00    +0.000 S 
ATOM     14  H   UNL     1       3.212   7.849  16.392  0.00  0.00    +0.000 HD
ENDROOT
BRANCH   1  15
ATOM     15  C   UNL     1       5.243   6.286  16.147  0.00  0.00    +0.000 C 
BRANCH  15  16
ATOM     16  S   UNL     1       5.523   4.553  16.172  0.00  0.00    +0.000 S 
ATOM     17  O   UNL     1       6.856   4.339  16.708  0.00  0.00    +0.000 OA
ATOM     18  O   UNL     1       5.198   4.055  14.845  0.00  0.00    +0.000 OA
BRANCH  16  23
ATOM     19  C   UNL     1       1.435   2.421  20.124  0.00  0.00    +0.000 C 
ATOM     20  C   UNL     1       2.459   2.906  19.139  0.00  0.00    +0.000 A 
ATOM     21  C   UNL     1       3.812   2.988  19.490  0.00  0.00    +0.000 A 
ATOM     22  C   UNL     1       4.756   3.456  18.572  0.00  0.00    +0.000 A 
ATOM     23  C   UNL     1       4.347   3.832  17.290  0.00  0.00    +0.000 A 
ATOM     24  C   UNL     1       2.998   3.774  16.933  0.00  0.00    +0.000 A 
ATOM     25  C   UNL     1       2.060   3.304  17.855  0.00  0.00    +0.000 A 
ENDBRANCH  16  23
ENDBRANCH  15  16
ENDBRANCH   1  15
TORSDOF 3
ENDMDL
