MODEL 1
REMARK VINA RESULT:      -8.6      0.000      0.000
REMARK  Name = 
REMARK  8 active torsions:
REMARK  status: ('A' for Active; 'I' for Inactive)
REMARK    1  A    between atoms: C_2  and  C_5
REMARK    2  A    between atoms: N_3  and  O_4
REMARK    3  A    between atoms: C_5  and  N_6
REMARK    4  A    between atoms: N_6  and  S_7
REMARK    5  A    between atoms: S_7  and  C_10
REMARK    6  A    between atoms: C_13  and  O_14
REMARK    7  A    between atoms: O_14  and  C_15
REMARK    8  A    between atoms: C_15  and  C_16
REMARK                            x       y       z     vdW  Elec       q    Type
REMARK                         _______ _______ _______ _____ _____    ______ ____
ROOT
ATOM      1  S   UNL     1       2.628   5.324  19.199  0.00  0.00    +0.000 S 
ATOM      2  O   UNL     1       1.429   4.594  18.841  0.00  0.00    +0.000 OA
ATOM      3  O   UNL     1       3.488   4.929  20.285  0.00  0.00    +0.000 OA
ENDROOT
BRANCH   1   4
ATOM      4  C   UNL     1       2.156   7.004  19.491  0.00  0.00    +0.000 A 
ATOM      5  C   UNL     1       1.647   7.370  20.732  0.00  0.00    +0.000 A 
ATOM      6  C   UNL     1       1.070   8.626  20.876  0.00  0.00    +0.000 A 
ATOM      7  C   UNL     1       1.006   9.500  19.785  0.00  0.00    +0.000 A 
ATOM      8  C   UNL     1       1.590   9.154  18.570  0.00  0.00    +0.000 A 
ATOM      9  C   UNL     1       2.233   7.932  18.448  0.00  0.00    +0.000 A 
BRANCH   7  10
ATOM     10  O   UNL     1       0.392  10.717  19.806  0.00  0.00    +0.000 OA
BRANCH  10  11
ATOM     11  C   UNL     1       0.068  11.218  18.513  0.00  0.00    +0.000 C 
BRANCH  11  12
ATOM     12  C   UNL     1      -1.409  11.059  18.304  0.00  0.00    +0.000 A 
ATOM     13  C   UNL     1      -2.310  11.913  18.951  0.00  0.00    +0.000 A 
ATOM     14  C   UNL     1      -3.675  11.787  18.713  0.00  0.00    +0.000 A 
ATOM     15  C   UNL     1      -4.135  10.815  17.828  0.00  0.00    +0.000 A 
ATOM     16  F   UNL     1      -5.448  10.704  17.598  0.00  0.00    +0.000 F 
ATOM     17  C   UNL     1      -3.254   9.960  17.178  0.00  0.00    +0.000 A 
ATOM     18  C   UNL     1      -1.890  10.084  17.414  0.00  0.00    +0.000 A 
ENDBRANCH  11  12
ENDBRANCH  10  11
ENDBRANCH   7  10
ENDBRANCH   1   4
BRANCH   1  19
ATOM     19  N   UNL     1       3.529   5.484  17.744  0.00  0.00    +0.000 NA
ATOM     20  H   UNL     1       2.856   5.303  16.991  0.00  0.00    +0.000 HD
BRANCH  19  21
ATOM     21  C   UNL     1       4.818   4.703  17.577  0.00  0.00    +0.000 C 
ATOM     22  C   UNL     1       5.060   4.434  16.073  0.00  0.00    +0.000 C 
ATOM     23  C   UNL     1       5.713   5.583  15.313  0.00  0.00    +0.000 C 
ATOM     24  O   UNL     1       6.828   6.114  16.017  0.00  0.00    +0.000 OA
ATOM     25  C   UNL     1       6.434   6.640  17.280  0.00  0.00    +0.000 C 
ATOM     26  C   UNL     1       6.012   5.476  18.156  0.00  0.00    +0.000 C 
BRANCH  21  28
ATOM     27  O   UNL     1       3.811   2.485  17.706  0.00  0.00    +0.000 OA
ATOM     28  C   UNL     1       4.583   3.306  18.215  0.00  0.00    +0.000 C 
ATOM     29  N   UNL     1       5.307   2.990  19.337  0.00  0.00    +0.000 N 
ATOM     30  H   UNL     1       6.163   3.445  19.627  0.00  0.00    +0.000 HD
BRANCH  29  31
ATOM     31  O   UNL     1       5.085   1.700  19.871  0.00  0.00    +0.000 OA
ATOM     32  H   UNL     1       4.209   1.467  19.492  0.00  0.00    +0.000 HD
ENDBRANCH  29  31
ENDBRANCH  21  28
ENDBRANCH  19  21
ENDBRANCH   1  19
TORSDOF 8
ENDMDL
MODEL 2
REMARK VINA RESULT:      -8.5      0.908      1.376
REMARK  Name = 
REMARK  8 active torsions:
REMARK  status: ('A' for Active; 'I' for Inactive)
REMARK    1  A    between atoms: C_2  and  C_5
REMARK    2  A    between atoms: N_3  and  O_4
REMARK    3  A    between atoms: C_5  and  N_6
REMARK    4  A    between atoms: N_6  and  S_7
REMARK    5  A    between atoms: S_7  and  C_10
REMARK    6  A    between atoms: C_13  and  O_14
REMARK    7  A    between atoms: O_14  and  C_15
REMARK    8  A    between atoms: C_15  and  C_16
REMARK                            x       y       z     vdW  Elec       q    Type
REMARK                         _______ _______ _______ _____ _____    ______ ____
ROOT
ATOM      1  S   UNL     1       2.808   5.521  19.345  0.00  0.00    +0.000 S 
ATOM      2  O   UNL     1       2.331   4.869  18.144  0.00  0.00    +0.000 OA
ATOM      3  O   UNL     1       2.482   5.056  20.669  0.00  0.00    +0.000 OA
ENDROOT
BRANCH   1   4
ATOM      4  C   UNL     1       2.323   7.220  19.253  0.00  0.00    +0.000 A 
ATOM      5  C   UNL     1       1.685   7.813  20.337  0.00  0.00    +0.000 A 
ATOM      6  C   UNL     1       1.107   9.066  20.171  0.00  0.00    +0.000 A 
ATOM      7  C   UNL     1       1.171   9.711  18.932  0.00  0.00    +0.000 A 
ATOM      8  C   UNL     1       1.881   9.145  17.878  0.00  0.00    +0.000 A 
ATOM      9  C   UNL     1       2.522   7.930  18.066  0.00  0.00    +0.000 A 
BRANCH   7  10
ATOM     10  O   UNL     1       0.569  10.902  18.650  0.00  0.00    +0.000 OA
BRANCH  10  11
ATOM     11  C   UNL     1      -0.413  11.289  19.605  0.00  0.00    +0.000 C 
BRANCH  11  12
ATOM     12  C   UNL     1      -1.762  11.192  18.956  0.00  0.00    +0.000 A 
ATOM     13  C   UNL     1      -2.017  10.205  17.997  0.00  0.00    +0.000 A 
ATOM     14  C   UNL     1      -3.286  10.096  17.438  0.00  0.00    +0.000 A 
ATOM     15  C   UNL     1      -4.295  10.967  17.838  0.00  0.00    +0.000 A 
ATOM     16  F   UNL     1      -5.515  10.851  17.302  0.00  0.00    +0.000 F 
ATOM     17  C   UNL     1      -4.060  11.953  18.788  0.00  0.00    +0.000 A 
ATOM     18  C   UNL     1      -2.793  12.064  19.350  0.00  0.00    +0.000 A 
ENDBRANCH  11  12
ENDBRANCH  10  11
ENDBRANCH   7  10
ENDBRANCH   1   4
BRANCH   1  19
ATOM     19  N   UNL     1       4.511   5.655  19.157  0.00  0.00    +0.000 NA
ATOM     20  H   UNL     1       4.677   6.638  18.912  0.00  0.00    +0.000 HD
BRANCH  19  21
ATOM     21  C   UNL     1       5.238   4.693  18.238  0.00  0.00    +0.000 C 
ATOM     22  C   UNL     1       4.678   4.837  16.803  0.00  0.00    +0.000 C 
ATOM     23  C   UNL     1       5.274   5.984  15.994  0.00  0.00    +0.000 C 
ATOM     24  O   UNL     1       6.692   6.019  16.095  0.00  0.00    +0.000 OA
ATOM     25  C   UNL     1       7.106   6.219  17.442  0.00  0.00    +0.000 C 
ATOM     26  C   UNL     1       6.747   4.971  18.227  0.00  0.00    +0.000 C 
BRANCH  21  28
ATOM     27  O   UNL     1       5.047   2.872  19.850  0.00  0.00    +0.000 OA
ATOM     28  C   UNL     1       4.849   3.259  18.692  0.00  0.00    +0.000 C 
ATOM     29  N   UNL     1       4.224   2.450  17.777  0.00  0.00    +0.000 N 
ATOM     30  H   UNL     1       3.745   2.771  16.945  0.00  0.00    +0.000 HD
BRANCH  29  31
ATOM     31  O   UNL     1       3.861   1.164  18.238  0.00  0.00    +0.000 OA
ATOM     32  H   UNL     1       4.418   0.580  17.678  0.00  0.00    +0.000 HD
ENDBRANCH  29  31
ENDBRANCH  21  28
ENDBRANCH  19  21
ENDBRANCH   1  19
TORSDOF 8
ENDMDL
MODEL 3
REMARK VINA RESULT:      -8.5      4.746      8.252
REMARK  Name = 
REMARK  8 active torsions:
REMARK  status: ('A' for Active; 'I' for Inactive)
REMARK    1  A    between atoms: C_2  and  C_5
REMARK    2  A    between atoms: N_3  and  O_4
REMARK    3  A    between atoms: C_5  and  N_6
REMARK    4  A    between atoms: N_6  and  S_7
REMARK    5  A    between atoms: S_7  and  C_10
REMARK    6  A    between atoms: C_13  and  O_14
REMARK    7  A    between atoms: O_14  and  C_15
REMARK    8  A    between atoms: C_15  and  C_16
REMARK                            x       y       z     vdW  Elec       q    Type
REMARK                         _______ _______ _______ _____ _____    ______ ____
ROOT
ATOM      1  S   UNL     1       4.575   4.224  18.819  0.00  0.00    +0.000 S 
ATOM      2  O   UNL     1       5.030   3.126  19.645  0.00  0.00    +0.000 OA
ATOM      3  O   UNL     1       3.901   4.028  17.560  0.00  0.00    +0.000 OA
ENDROOT
BRANCH   1   4
ATOM      4  C   UNL     1       5.971   5.266  18.507  0.00  0.00    +0.000 A 
ATOM      5  C   UNL     1       7.102   5.158  19.308  0.00  0.00    +0.000 A 
ATOM      6  C   UNL     1       8.092   6.128  19.204  0.00  0.00    +0.000 A 
ATOM      7  C   UNL     1       7.943   7.191  18.307  0.00  0.00    +0.000 A 
ATOM      8  C   UNL     1       6.846   7.244  17.453  0.00  0.00    +0.000 A 
ATOM      9  C   UNL     1       5.896   6.236  17.503  0.00  0.00    +0.000 A 
BRANCH   7  10
ATOM     10  O   UNL     1       8.819   8.229  18.188  0.00  0.00    +0.000 OA
BRANCH  10  11
ATOM     11  C   UNL     1       8.190   9.505  18.129  0.00  0.00    +0.000 C 
BRANCH  11  12
ATOM     12  C   UNL     1       9.142  10.523  18.686  0.00  0.00    +0.000 A 
ATOM     13  C   UNL     1       9.814  11.405  17.831  0.00  0.00    +0.000 A 
ATOM     14  C   UNL     1      10.657  12.375  18.363  0.00  0.00    +0.000 A 
ATOM     15  C   UNL     1      10.823  12.466  19.743  0.00  0.00    +0.000 A 
ATOM     16  F   UNL     1      11.629  13.406  20.248  0.00  0.00    +0.000 F 
ATOM     17  C   UNL     1      10.163  11.599  20.605  0.00  0.00    +0.000 A 
ATOM     18  C   UNL     1       9.319  10.629  20.077  0.00  0.00    +0.000 A 
ENDBRANCH  11  12
ENDBRANCH  10  11
ENDBRANCH   7  10
ENDBRANCH   1   4
BRANCH   1  19
ATOM     19  N   UNL     1       3.639   5.229  19.852  0.00  0.00    +0.000 NA
ATOM     20  H   UNL     1       3.742   4.820  20.789  0.00  0.00    +0.000 HD
BRANCH  19  21
ATOM     21  C   UNL     1       2.194   5.522  19.498  0.00  0.00    +0.000 C 
ATOM     22  C   UNL     1       1.570   6.413  20.598  0.00  0.00    +0.000 C 
ATOM     23  C   UNL     1       1.858   7.904  20.455  0.00  0.00    +0.000 C 
ATOM     24  O   UNL     1       1.649   8.355  19.123  0.00  0.00    +0.000 OA
ATOM     25  C   UNL     1       2.519   7.689  18.213  0.00  0.00    +0.000 C 
ATOM     26  C   UNL     1       2.090   6.235  18.143  0.00  0.00    +0.000 C 
BRANCH  21  28
ATOM     27  O   UNL     1       1.116   3.669  20.663  0.00  0.00    +0.000 OA
ATOM     28  C   UNL     1       1.430   4.171  19.577  0.00  0.00    +0.000 C 
ATOM     29  N   UNL     1       1.062   3.580  18.395  0.00  0.00    +0.000 N 
ATOM     30  H   UNL     1       0.986   4.054  17.504  0.00  0.00    +0.000 HD
BRANCH  29  31
ATOM     31  O   UNL     1       0.344   2.368  18.509  0.00  0.00    +0.000 OA
ATOM     32  H   UNL     1       0.592   1.902  17.681  0.00  0.00    +0.000 HD
ENDBRANCH  29  31
ENDBRANCH  21  28
ENDBRANCH  19  21
ENDBRANCH   1  19
TORSDOF 8
ENDMDL
MODEL 4
REMARK VINA RESULT:      -8.4      4.890      8.280
REMARK  Name = 
REMARK  8 active torsions:
REMARK  status: ('A' for Active; 'I' for Inactive)
REMARK    1  A    between atoms: C_2  and  C_5
REMARK    2  A    between atoms: N_3  and  O_4
REMARK    3  A    between atoms: C_5  and  N_6
REMARK    4  A    between atoms: N_6  and  S_7
REMARK    5  A    between atoms: S_7  and  C_10
REMARK    6  A    between atoms: C_13  and  O_14
REMARK    7  A    between atoms: O_14  and  C_15
REMARK    8  A    between atoms: C_15  and  C_16
REMARK                            x       y       z     vdW  Elec       q    Type
REMARK                         _______ _______ _______ _____ _____    ______ ____
ROOT
ATOM      1  S   UNL     1       4.941   4.572  18.678  0.00  0.00    +0.000 S 
ATOM      2  O   UNL     1       5.579   3.569  19.504  0.00  0.00    +0.000 OA
ATOM      3  O   UNL     1       4.244   4.253  17.458  0.00  0.00    +0.000 OA
ENDROOT
BRANCH   1   4
ATOM      4  C   UNL     1       6.167   5.784  18.277  0.00  0.00    +0.000 A 
ATOM      5  C   UNL     1       7.361   5.814  18.986  0.00  0.00    +0.000 A 
ATOM      6  C   UNL     1       8.211   6.902  18.822  0.00  0.00    +0.000 A 
ATOM      7  C   UNL     1       7.861   7.943  17.955  0.00  0.00    +0.000 A 
ATOM      8  C   UNL     1       6.703   7.862  17.189  0.00  0.00    +0.000 A 
ATOM      9  C   UNL     1       5.893   6.742  17.297  0.00  0.00    +0.000 A 
BRANCH   7  10
ATOM     10  O   UNL     1       8.588   9.084  17.786  0.00  0.00    +0.000 OA
BRANCH  10  11
ATOM     11  C   UNL     1       9.066   9.645  19.005  0.00  0.00    +0.000 C 
BRANCH  11  12
ATOM     12  C   UNL     1       9.655  10.991  18.702  0.00  0.00    +0.000 A 
ATOM     13  C   UNL     1      10.927  11.329  19.178  0.00  0.00    +0.000 A 
ATOM     14  C   UNL     1      11.483  12.562  18.850  0.00  0.00    +0.000 A 
ATOM     15  C   UNL     1      10.772  13.449  18.047  0.00  0.00    +0.000 A 
ATOM     16  F   UNL     1      11.316  14.629  17.729  0.00  0.00    +0.000 F 
ATOM     17  C   UNL     1       9.509  13.129  17.565  0.00  0.00    +0.000 A 
ATOM     18  C   UNL     1       8.951  11.898  17.890  0.00  0.00    +0.000 A 
ENDBRANCH  11  12
ENDBRANCH  10  11
ENDBRANCH   7  10
ENDBRANCH   1   4
BRANCH   1  19
ATOM     19  N   UNL     1       3.925   5.470  19.734  0.00  0.00    +0.000 NA
ATOM     20  H   UNL     1       4.093   5.076  20.667  0.00  0.00    +0.000 HD
BRANCH  19  21
ATOM     21  C   UNL     1       2.449   5.604  19.413  0.00  0.00    +0.000 C 
ATOM     22  C   UNL     1       1.739   6.335  20.577  0.00  0.00    +0.000 C 
ATOM     23  C   UNL     1       1.837   7.856  20.534  0.00  0.00    +0.000 C 
ATOM     24  O   UNL     1       1.551   8.366  19.237  0.00  0.00    +0.000 OA
ATOM     25  C   UNL     1       2.481   7.876  18.277  0.00  0.00    +0.000 C 
ATOM     26  C   UNL     1       2.235   6.388  18.111  0.00  0.00    +0.000 C 
BRANCH  21  28
ATOM     27  O   UNL     1       1.863   3.461  20.422  0.00  0.00    +0.000 OA
ATOM     28  C   UNL     1       1.860   4.166  19.406  0.00  0.00    +0.000 C 
ATOM     29  N   UNL     1       1.280   3.723  18.244  0.00  0.00    +0.000 N 
ATOM     30  H   UNL     1       0.949   4.316  17.493  0.00  0.00    +0.000 HD
BRANCH  29  31
ATOM     31  O   UNL     1       0.730   2.422  18.286  0.00  0.00    +0.000 OA
ATOM     32  H   UNL     1       1.157   1.992  17.513  0.00  0.00    +0.000 HD
ENDBRANCH  29  31
ENDBRANCH  21  28
ENDBRANCH  19  21
ENDBRANCH   1  19
TORSDOF 8
ENDMDL
MODEL 5
REMARK VINA RESULT:      -8.2      1.642      2.418
REMARK  Name = 
REMARK  8 active torsions:
REMARK  status: ('A' for Active; 'I' for Inactive)
REMARK    1  A    between atoms: C_2  and  C_5
REMARK    2  A    between atoms: N_3  and  O_4
REMARK    3  A    between atoms: C_5  and  N_6
REMARK    4  A    between atoms: N_6  and  S_7
REMARK    5  A    between atoms: S_7  and  C_10
REMARK    6  A    between atoms: C_13  and  O_14
REMARK    7  A    between atoms: O_14  and  C_15
REMARK    8  A    between atoms: C_15  and  C_16
REMARK                            x       y       z     vdW  Elec       q    Type
REMARK                         _______ _______ _______ _____ _____    ______ ____
ROOT
ATOM      1  S   UNL     1       3.552   5.987  18.486  0.00  0.00    +0.000 S 
ATOM      2  O   UNL     1       2.675   5.183  17.661  0.00  0.00    +0.000 OA
ATOM      3  O   UNL     1       4.073   5.530  19.749  0.00  0.00    +0.000 OA
ENDROOT
BRANCH   1   4
ATOM      4  C   UNL     1       2.733   7.527  18.784  0.00  0.00    +0.000 A 
ATOM      5  C   UNL     1       2.019   7.709  19.963  0.00  0.00    +0.000 A 
ATOM      6  C   UNL     1       1.197   8.823  20.084  0.00  0.00    +0.000 A 
ATOM      7  C   UNL     1       1.096   9.739  19.031  0.00  0.00    +0.000 A 
ATOM      8  C   UNL     1       1.877   9.590  17.890  0.00  0.00    +0.000 A 
ATOM      9  C   UNL     1       2.754   8.520  17.801  0.00  0.00    +0.000 A 
BRANCH   7  10
ATOM     10  O   UNL     1       0.260  10.816  19.024  0.00  0.00    +0.000 OA
BRANCH  10  11
ATOM     11  C   UNL     1      -1.069  10.514  19.437  0.00  0.00    +0.000 C 
BRANCH  11  12
ATOM     12  C   UNL     1      -1.961  10.582  18.233  0.00  0.00    +0.000 A 
ATOM     13  C   UNL     1      -1.708   9.774  17.119  0.00  0.00    +0.000 A 
ATOM     14  C   UNL     1      -2.570   9.810  16.028  0.00  0.00    +0.000 A 
ATOM     15  C   UNL     1      -3.682  10.648  16.054  0.00  0.00    +0.000 A 
ATOM     16  F   UNL     1      -4.512  10.672  15.005  0.00  0.00    +0.000 F 
ATOM     17  C   UNL     1      -3.949  11.456  17.152  0.00  0.00    +0.000 A 
ATOM     18  C   UNL     1      -3.089  11.421  18.244  0.00  0.00    +0.000 A 
ENDBRANCH  11  12
ENDBRANCH  10  11
ENDBRANCH   7  10
ENDBRANCH   1   4
BRANCH   1  19
ATOM     19  N   UNL     1       4.831   6.490  17.454  0.00  0.00    +0.000 NA
ATOM     20  H   UNL     1       4.382   6.712  16.558  0.00  0.00    +0.000 HD
BRANCH  19  21
ATOM     21  C   UNL     1       6.051   5.603  17.292  0.00  0.00    +0.000 C 
ATOM     22  C   UNL     1       5.647   4.130  17.539  0.00  0.00    +0.000 C 
ATOM     23  C   UNL     1       5.032   3.423  16.336  0.00  0.00    +0.000 C 
ATOM     24  O   UNL     1       5.783   3.652  15.151  0.00  0.00    +0.000 OA
ATOM     25  C   UNL     1       5.821   5.037  14.826  0.00  0.00    +0.000 C 
ATOM     26  C   UNL     1       6.651   5.738  15.886  0.00  0.00    +0.000 C 
BRANCH  21  28
ATOM     27  O   UNL     1       7.717   6.989  18.412  0.00  0.00    +0.000 OA
ATOM     28  C   UNL     1       7.025   5.964  18.447  0.00  0.00    +0.000 C 
ATOM     29  N   UNL     1       7.051   5.135  19.539  0.00  0.00    +0.000 N 
ATOM     30  H   UNL     1       6.320   4.484  19.796  0.00  0.00    +0.000 HD
BRANCH  29  31
ATOM     31  O   UNL     1       7.929   5.514  20.580  0.00  0.00    +0.000 OA
ATOM     32  H   UNL     1       7.783   6.484  20.631  0.00  0.00    +0.000 HD
ENDBRANCH  29  31
ENDBRANCH  21  28
ENDBRANCH  19  21
ENDBRANCH   1  19
TORSDOF 8
ENDMDL
MODEL 6
REMARK VINA RESULT:      -8.1      1.486      2.101
REMARK  Name = 
REMARK  8 active torsions:
REMARK  status: ('A' for Active; 'I' for Inactive)
REMARK    1  A    between atoms: C_2  and  C_5
REMARK    2  A    between atoms: N_3  and  O_4
REMARK    3  A    between atoms: C_5  and  N_6
REMARK    4  A    between atoms: N_6  and  S_7
REMARK    5  A    between atoms: S_7  and  C_10
REMARK    6  A    between atoms: C_13  and  O_14
REMARK    7  A    between atoms: O_14  and  C_15
REMARK    8  A    between atoms: C_15  and  C_16
REMARK                            x       y       z     vdW  Elec       q    Type
REMARK                         _______ _______ _______ _____ _____    ______ ____
ROOT
ATOM      1  S   UNL     1       3.676   5.673  18.410  0.00  0.00    +0.000 S 
ATOM      2  O   UNL     1       2.820   4.980  17.469  0.00  0.00    +0.000 OA
ATOM      3  O   UNL     1       4.209   5.044  19.591  0.00  0.00    +0.000 OA
ENDROOT
BRANCH   1   4
ATOM      4  C   UNL     1       2.814   7.127  18.936  0.00  0.00    +0.000 A 
ATOM      5  C   UNL     1       2.251   7.170  20.205  0.00  0.00    +0.000 A 
ATOM      6  C   UNL     1       1.389   8.213  20.521  0.00  0.00    +0.000 A 
ATOM      7  C   UNL     1       1.098   9.197  19.569  0.00  0.00    +0.000 A 
ATOM      8  C   UNL     1       1.730   9.188  18.330  0.00  0.00    +0.000 A 
ATOM      9  C   UNL     1       2.649   8.190  18.043  0.00  0.00    +0.000 A 
BRANCH   7  10
ATOM     10  O   UNL     1       0.207  10.213  19.756  0.00  0.00    +0.000 OA
BRANCH  10  11
ATOM     11  C   UNL     1      -0.028  10.992  18.587  0.00  0.00    +0.000 C 
BRANCH  11  12
ATOM     12  C   UNL     1      -1.490  10.919  18.261  0.00  0.00    +0.000 A 
ATOM     13  C   UNL     1      -2.401  11.765  18.904  0.00  0.00    +0.000 A 
ATOM     14  C   UNL     1      -3.748  11.721  18.559  0.00  0.00    +0.000 A 
ATOM     15  C   UNL     1      -4.180  10.839  17.572  0.00  0.00    +0.000 A 
ATOM     16  F   UNL     1      -5.475  10.808  17.239  0.00  0.00    +0.000 F 
ATOM     17  C   UNL     1      -3.289   9.993  16.924  0.00  0.00    +0.000 A 
ATOM     18  C   UNL     1      -1.943  10.034  17.266  0.00  0.00    +0.000 A 
ENDBRANCH  11  12
ENDBRANCH  10  11
ENDBRANCH   7  10
ENDBRANCH   1   4
BRANCH   1  19
ATOM     19  N   UNL     1       4.940   6.362  17.471  0.00  0.00    +0.000 NA
ATOM     20  H   UNL     1       4.498   6.637  16.586  0.00  0.00    +0.000 HD
BRANCH  19  21
ATOM     21  C   UNL     1       6.225   5.583  17.266  0.00  0.00    +0.000 C 
ATOM     22  C   UNL     1       5.935   4.071  17.419  0.00  0.00    +0.000 C 
ATOM     23  C   UNL     1       5.381   3.394  16.171  0.00  0.00    +0.000 C 
ATOM     24  O   UNL     1       6.116   3.751  15.007  0.00  0.00    +0.000 OA
ATOM     25  C   UNL     1       6.048   5.153  14.768  0.00  0.00    +0.000 C 
ATOM     26  C   UNL     1       6.817   5.850  15.875  0.00  0.00    +0.000 C 
BRANCH  21  28
ATOM     27  O   UNL     1       7.840   6.982  18.441  0.00  0.00    +0.000 OA
ATOM     28  C   UNL     1       7.164   5.947  18.448  0.00  0.00    +0.000 C 
ATOM     29  N   UNL     1       7.175   5.107  19.533  0.00  0.00    +0.000 N 
ATOM     30  H   UNL     1       6.448   4.442  19.764  0.00  0.00    +0.000 HD
BRANCH  29  31
ATOM     31  O   UNL     1       8.020   5.488  20.599  0.00  0.00    +0.000 OA
ATOM     32  H   UNL     1       8.562   6.198  20.190  0.00  0.00    +0.000 HD
ENDBRANCH  29  31
ENDBRANCH  21  28
ENDBRANCH  19  21
ENDBRANCH   1  19
TORSDOF 8
ENDMDL
MODEL 7
REMARK VINA RESULT:      -8.1      1.138      1.218
REMARK  Name = 
REMARK  8 active torsions:
REMARK  status: ('A' for Active; 'I' for Inactive)
REMARK    1  A    between atoms: C_2  and  C_5
REMARK    2  A    between atoms: N_3  and  O_4
REMARK    3  A    between atoms: C_5  and  N_6
REMARK    4  A    between atoms: N_6  and  S_7
REMARK    5  A    between atoms: S_7  and  C_10
REMARK    6  A    between atoms: C_13  and  O_14
REMARK    7  A    between atoms: O_14  and  C_15
REMARK    8  A    between atoms: C_15  and  C_16
REMARK                            x       y       z     vdW  Elec       q    Type
REMARK                         _______ _______ _______ _____ _____    ______ ____
ROOT
ATOM      1  S   UNL     1       2.657   5.655  19.430  0.00  0.00    +0.000 S 
ATOM      2  O   UNL     1       2.201   5.100  18.172  0.00  0.00    +0.000 OA
ATOM      3  O   UNL     1       2.315   5.082  20.706  0.00  0.00    +0.000 OA
ENDROOT
BRANCH   1   4
ATOM      4  C   UNL     1       2.160   7.353  19.470  0.00  0.00    +0.000 A 
ATOM      5  C   UNL     1       1.571   7.870  20.618  0.00  0.00    +0.000 A 
ATOM      6  C   UNL     1       0.980   9.127  20.560  0.00  0.00    +0.000 A 
ATOM      7  C   UNL     1       0.984   9.851  19.363  0.00  0.00    +0.000 A 
ATOM      8  C   UNL     1       1.648   9.359  18.244  0.00  0.00    +0.000 A 
ATOM      9  C   UNL     1       2.302   8.139  18.323  0.00  0.00    +0.000 A 
BRANCH   7  10
ATOM     10  O   UNL     1       0.365  11.053  19.186  0.00  0.00    +0.000 OA
BRANCH  10  11
ATOM     11  C   UNL     1      -1.006  11.054  19.571  0.00  0.00    +0.000 C 
BRANCH  11  12
ATOM     12  C   UNL     1      -1.838  10.817  18.346  0.00  0.00    +0.000 A 
ATOM     13  C   UNL     1      -1.836  11.746  17.299  0.00  0.00    +0.000 A 
ATOM     14  C   UNL     1      -2.574  11.492  16.147  0.00  0.00    +0.000 A 
ATOM     15  C   UNL     1      -3.306  10.312  16.043  0.00  0.00    +0.000 A 
ATOM     16  F   UNL     1      -4.007  10.070  14.929  0.00  0.00    +0.000 F 
ATOM     17  C   UNL     1      -3.319   9.380  17.072  0.00  0.00    +0.000 A 
ATOM     18  C   UNL     1      -2.582   9.631  18.224  0.00  0.00    +0.000 A 
ENDBRANCH  11  12
ENDBRANCH  10  11
ENDBRANCH   7  10
ENDBRANCH   1   4
BRANCH   1  19
ATOM     19  N   UNL     1       4.361   5.815  19.279  0.00  0.00    +0.000 NA
ATOM     20  H   UNL     1       4.530   6.824  19.197  0.00  0.00    +0.000 HD
BRANCH  19  21
ATOM     21  C   UNL     1       5.094   5.012  18.221  0.00  0.00    +0.000 C 
ATOM     22  C   UNL     1       4.489   5.324  16.833  0.00  0.00    +0.000 C 
ATOM     23  C   UNL     1       5.021   6.591  16.171  0.00  0.00    +0.000 C 
ATOM     24  O   UNL     1       6.439   6.666  16.241  0.00  0.00    +0.000 OA
ATOM     25  C   UNL     1       6.885   6.701  17.593  0.00  0.00    +0.000 C 
ATOM     26  C   UNL     1       6.593   5.347  18.212  0.00  0.00    +0.000 C 
BRANCH  21  28
ATOM     27  O   UNL     1       4.163   2.829  17.657  0.00  0.00    +0.000 OA
ATOM     28  C   UNL     1       4.769   3.516  18.488  0.00  0.00    +0.000 C 
ATOM     29  N   UNL     1       5.228   2.965  19.656  0.00  0.00    +0.000 N 
ATOM     30  H   UNL     1       5.980   3.338  20.223  0.00  0.00    +0.000 HD
BRANCH  29  31
ATOM     31  O   UNL     1       4.937   1.595  19.849  0.00  0.00    +0.000 OA
ATOM     32  H   UNL     1       4.229   1.628  20.529  0.00  0.00    +0.000 HD
ENDBRANCH  29  31
ENDBRANCH  21  28
ENDBRANCH  19  21
ENDBRANCH   1  19
TORSDOF 8
ENDMDL
MODEL 8
REMARK VINA RESULT:      -8.0      2.021      2.476
REMARK  Name = 
REMARK  8 active torsions:
REMARK  status: ('A' for Active; 'I' for Inactive)
REMARK    1  A    between atoms: C_2  and  C_5
REMARK    2  A    between atoms: N_3  and  O_4
REMARK    3  A    between atoms: C_5  and  N_6
REMARK    4  A    between atoms: N_6  and  S_7
REMARK    5  A    between atoms: S_7  and  C_10
REMARK    6  A    between atoms: C_13  and  O_14
REMARK    7  A    between atoms: O_14  and  C_15
REMARK    8  A    between atoms: C_15  and  C_16
REMARK                            x       y       z     vdW  Elec       q    Type
REMARK                         _______ _______ _______ _____ _____    ______ ____
ROOT
ATOM      1  S   UNL     1       2.802   5.575  19.098  0.00  0.00    +0.000 S 
ATOM      2  O   UNL     1       2.306   5.147  17.806  0.00  0.00    +0.000 OA
ATOM      3  O   UNL     1       2.547   4.844  20.313  0.00  0.00    +0.000 OA
ENDROOT
BRANCH   1   4
ATOM      4  C   UNL     1       2.240   7.233  19.358  0.00  0.00    +0.000 A 
ATOM      5  C   UNL     1       1.730   7.599  20.598  0.00  0.00    +0.000 A 
ATOM      6  C   UNL     1       1.085   8.824  20.722  0.00  0.00    +0.000 A 
ATOM      7  C   UNL     1       0.955   9.666  19.612  0.00  0.00    +0.000 A 
ATOM      8  C   UNL     1       1.540   9.325  18.397  0.00  0.00    +0.000 A 
ATOM      9  C   UNL     1       2.249   8.138  18.293  0.00  0.00    +0.000 A 
BRANCH   7  10
ATOM     10  O   UNL     1       0.274  10.847  19.615  0.00  0.00    +0.000 OA
BRANCH  10  11
ATOM     11  C   UNL     1       0.464  11.616  20.798  0.00  0.00    +0.000 C 
BRANCH  11  12
ATOM     12  C   UNL     1      -0.885  11.970  21.350  0.00  0.00    +0.000 A 
ATOM     13  C   UNL     1      -1.866  12.524  20.519  0.00  0.00    +0.000 A 
ATOM     14  C   UNL     1      -3.129  12.802  21.032  0.00  0.00    +0.000 A 
ATOM     15  C   UNL     1      -3.410  12.524  22.367  0.00  0.00    +0.000 A 
ATOM     16  F   UNL     1      -4.629  12.788  22.851  0.00  0.00    +0.000 F 
ATOM     17  C   UNL     1      -2.448  11.975  23.205  0.00  0.00    +0.000 A 
ATOM     18  C   UNL     1      -1.185  11.694  22.696  0.00  0.00    +0.000 A 
ENDBRANCH  11  12
ENDBRANCH  10  11
ENDBRANCH   7  10
ENDBRANCH   1   4
BRANCH   1  19
ATOM     19  N   UNL     1       4.488   5.829  18.890  0.00  0.00    +0.000 NA
ATOM     20  H   UNL     1       4.574   6.789  18.537  0.00  0.00    +0.000 HD
BRANCH  19  21
ATOM     21  C   UNL     1       5.297   4.834  18.080  0.00  0.00    +0.000 C 
ATOM     22  C   UNL     1       4.821   4.867  16.609  0.00  0.00    +0.000 C 
ATOM     23  C   UNL     1       5.429   5.979  15.762  0.00  0.00    +0.000 C 
ATOM     24  O   UNL     1       6.837   6.067  15.942  0.00  0.00    +0.000 OA
ATOM     25  C   UNL     1       7.164   6.368  17.295  0.00  0.00    +0.000 C 
ATOM     26  C   UNL     1       6.796   5.161  18.138  0.00  0.00    +0.000 C 
BRANCH  21  28
ATOM     27  O   UNL     1       5.212   3.060  19.753  0.00  0.00    +0.000 OA
ATOM     28  C   UNL     1       4.925   3.420  18.605  0.00  0.00    +0.000 C 
ATOM     29  N   UNL     1       4.212   2.599  17.768  0.00  0.00    +0.000 N 
ATOM     30  H   UNL     1       3.671   2.906  16.970  0.00  0.00    +0.000 HD
BRANCH  29  31
ATOM     31  O   UNL     1       3.868   1.332  18.292  0.00  0.00    +0.000 OA
ATOM     32  H   UNL     1       4.574   1.186  18.960  0.00  0.00    +0.000 HD
ENDBRANCH  29  31
ENDBRANCH  21  28
ENDBRANCH  19  21
ENDBRANCH   1  19
TORSDOF 8
ENDMDL
MODEL 9
REMARK VINA RESULT:      -8.0      0.882      1.636
REMARK  Name = 
REMARK  8 active torsions:
REMARK  status: ('A' for Active; 'I' for Inactive)
REMARK    1  A    between atoms: C_2  and  C_5
REMARK    2  A    between atoms: N_3  and  O_4
REMARK    3  A    between atoms: C_5  and  N_6
REMARK    4  A    between atoms: N_6  and  S_7
REMARK    5  A    between atoms: S_7  and  C_10
REMARK    6  A    between atoms: C_13  and  O_14
REMARK    7  A    between atoms: O_14  and  C_15
REMARK    8  A    between atoms: C_15  and  C_16
REMARK                            x       y       z     vdW  Elec       q    Type
REMARK                         _______ _______ _______ _____ _____    ______ ____
ROOT
ATOM      1  S   UNL     1       2.729   5.244  19.856  0.00  0.00    +0.000 S 
ATOM      2  O   UNL     1       2.285   4.464  18.720  0.00  0.00    +0.000 OA
ATOM      3  O   UNL     1       2.568   4.802  21.218  0.00  0.00    +0.000 OA
ENDROOT
BRANCH   1   4
ATOM      4  C   UNL     1       1.974   6.839  19.731  0.00  0.00    +0.000 A 
ATOM      5  C   UNL     1       2.178   7.610  18.593  0.00  0.00    +0.000 A 
ATOM      6  C   UNL     1       1.775   8.940  18.603  0.00  0.00    +0.000 A 
ATOM      7  C   UNL     1       1.176   9.484  19.743  0.00  0.00    +0.000 A 
ATOM      8  C   UNL     1       0.903   8.682  20.847  0.00  0.00    +0.000 A 
ATOM      9  C   UNL     1       1.235   7.337  20.809  0.00  0.00    +0.000 A 
BRANCH   7  10
ATOM     10  O   UNL     1       0.819  10.794  19.878  0.00  0.00    +0.000 OA
BRANCH  10  11
ATOM     11  C   UNL     1       0.478  11.424  18.647  0.00  0.00    +0.000 C 
BRANCH  11  12
ATOM     12  C   UNL     1      -0.990  11.226  18.409  0.00  0.00    +0.000 A 
ATOM     13  C   UNL     1      -1.439  10.189  17.584  0.00  0.00    +0.000 A 
ATOM     14  C   UNL     1      -2.805   9.986  17.410  0.00  0.00    +0.000 A 
ATOM     15  C   UNL     1      -3.715  10.814  18.061  0.00  0.00    +0.000 A 
ATOM     16  F   UNL     1      -5.026  10.609  17.895  0.00  0.00    +0.000 F 
ATOM     17  C   UNL     1      -3.286  11.848  18.884  0.00  0.00    +0.000 A 
ATOM     18  C   UNL     1      -1.922  12.053  19.060  0.00  0.00    +0.000 A 
ENDBRANCH  11  12
ENDBRANCH  10  11
ENDBRANCH   7  10
ENDBRANCH   1   4
BRANCH   1  19
ATOM     19  N   UNL     1       4.373   5.633  19.540  0.00  0.00    +0.000 NA
ATOM     20  H   UNL     1       4.376   6.639  19.334  0.00  0.00    +0.000 HD
BRANCH  19  21
ATOM     21  C   UNL     1       5.147   4.825  18.518  0.00  0.00    +0.000 C 
ATOM     22  C   UNL     1       4.550   5.073  17.113  0.00  0.00    +0.000 C 
ATOM     23  C   UNL     1       5.046   6.336  16.419  0.00  0.00    +0.000 C 
ATOM     24  O   UNL     1       6.459   6.464  16.503  0.00  0.00    +0.000 OA
ATOM     25  C   UNL     1       6.886   6.556  17.858  0.00  0.00    +0.000 C 
ATOM     26  C   UNL     1       6.633   5.212  18.516  0.00  0.00    +0.000 C 
BRANCH  21  28
ATOM     27  O   UNL     1       5.120   2.841  19.937  0.00  0.00    +0.000 OA
ATOM     28  C   UNL     1       4.871   3.328  18.827  0.00  0.00    +0.000 C 
ATOM     29  N   UNL     1       4.285   2.573  17.843  0.00  0.00    +0.000 N 
ATOM     30  H   UNL     1       3.767   2.941  17.055  0.00  0.00    +0.000 HD
BRANCH  29  31
ATOM     31  O   UNL     1       4.024   1.224  18.173  0.00  0.00    +0.000 OA
ATOM     32  H   UNL     1       3.682   0.866  17.324  0.00  0.00    +0.000 HD
ENDBRANCH  29  31
ENDBRANCH  21  28
ENDBRANCH  19  21
ENDBRANCH   1  19
TORSDOF 8
ENDMDL
