MODEL 1
REMARK VINA RESULT:      -7.0      0.000      0.000
REMARK  Name = 
REMARK  11 active torsions:
REMARK  status: ('A' for Active; 'I' for Inactive)
REMARK    1  A    between atoms: C_1  and  C_2
REMARK    2  A    between atoms: C_2  and  N_3
REMARK    3  A    between atoms: N_3  and  C_4
REMARK    4  A    between atoms: N_3  and  C_6
REMARK    5  A    between atoms: C_4  and  C_5
REMARK    6  A    between atoms: C_6  and  C_7
REMARK    7  A    between atoms: C_7  and  O_8
REMARK    8  A    between atoms: O_8  and  C_9
REMARK    9  A    between atoms: C_9  and  C_11
REMARK   10  A    between atoms: C_11  and  C_12
REMARK   11  A    between atoms: C_15  and  C_16
REMARK                            x       y       z     vdW  Elec       q    Type
REMARK                         _______ _______ _______ _____ _____    ______ ____
ROOT
ATOM      1  C   UNL     1       2.970   4.286  19.438  0.00  0.00    +0.000 C 
ATOM      2  C   UNL     1       2.381   3.343  18.361  0.00  0.00    +0.000 C 
ATOM      3  C   UNL     1       0.939   3.116  18.816  0.00  0.00    +0.000 C 
ATOM      4  C   UNL     1       0.981   3.156  20.352  0.00  0.00    +0.000 C 
ATOM      5  C   UNL     1       2.395   3.616  20.708  0.00  0.00    +0.000 C 
ENDROOT
BRANCH   1   6
ATOM      6  C   UNL     1       2.564   5.765  19.322  0.00  0.00    +0.000 A 
ATOM      7  C   UNL     1       2.149   6.531  20.432  0.00  0.00    +0.000 A 
ATOM      8  C   UNL     1       1.749   7.865  20.277  0.00  0.00    +0.000 A 
ATOM      9  C   UNL     1       1.756   8.459  19.009  0.00  0.00    +0.000 A 
ATOM     10  C   UNL     1       2.195   7.723  17.906  0.00  0.00    +0.000 A 
ATOM     11  C   UNL     1       2.581   6.395  18.056  0.00  0.00    +0.000 A 
BRANCH   9  12
ATOM     12  C   UNL     1       1.337   9.825  18.812  0.00  0.00    +0.000 C 
ATOM     13  N   UNL     1       1.059  10.944  18.712  0.00  0.00    +0.000 NA
ENDBRANCH   9  12
ENDBRANCH   1   6
BRANCH   1  14
ATOM     14  C   UNL     1       4.479   4.198  19.436  0.00  0.00    +0.000 C 
ATOM     15  O   UNL     1       5.029   3.154  19.762  0.00  0.00    +0.000 OA
BRANCH  14  16
ATOM     16  O   UNL     1       5.210   5.316  19.174  0.00  0.00    +0.000 OA
BRANCH  16  17
ATOM     17  C   UNL     1       6.568   5.412  19.416  0.00  0.00    +0.000 C 
BRANCH  17  18
ATOM     18  C   UNL     1       7.378   4.953  18.166  0.00  0.00    +0.000 C 
BRANCH  18  19
ATOM     19  N   UNL     1       7.402   5.952  17.018  0.00  0.00    +0.000 NA
BRANCH  19  21
ATOM     20  C   UNL     1       5.619   4.395  15.660  0.00  0.00    +0.000 C 
ATOM     21  C   UNL     1       6.876   5.418  15.701  0.00  0.00    +0.000 C 
ENDBRANCH  19  21
BRANCH  19  22
ATOM     22  C   UNL     1       6.866   7.289  17.444  0.00  0.00    +0.000 C 
ATOM     23  C   UNL     1       7.854   8.474  17.486  0.00  0.00    +0.000 C 
ENDBRANCH  19  22
ENDBRANCH  18  19
ENDBRANCH  17  18
ENDBRANCH  16  17
ENDBRANCH  14  16
ENDBRANCH   1  14
TORSDOF 9
ENDMDL
MODEL 2
REMARK VINA RESULT:      -6.7      3.568      5.863
REMARK  Name = 
REMARK  11 active torsions:
REMARK  status: ('A' for Active; 'I' for Inactive)
REMARK    1  A    between atoms: C_1  and  C_2
REMARK    2  A    between atoms: C_2  and  N_3
REMARK    3  A    between atoms: N_3  and  C_4
REMARK    4  A    between atoms: N_3  and  C_6
REMARK    5  A    between atoms: C_4  and  C_5
REMARK    6  A    between atoms: C_6  and  C_7
REMARK    7  A    between atoms: C_7  and  O_8
REMARK    8  A    between atoms: O_8  and  C_9
REMARK    9  A    between atoms: C_9  and  C_11
REMARK   10  A    between atoms: C_11  and  C_12
REMARK   11  A    between atoms: C_15  and  C_16
REMARK                            x       y       z     vdW  Elec       q    Type
REMARK                         _______ _______ _______ _____ _____    ______ ____
ROOT
ATOM      1  C   UNL     1       6.113   5.410  16.654  0.00  0.00    +0.000 C 
ATOM      2  C   UNL     1       7.341   4.481  16.819  0.00  0.00    +0.000 C 
ATOM      3  C   UNL     1       7.857   4.796  18.223  0.00  0.00    +0.000 C 
ATOM      4  C   UNL     1       7.555   6.286  18.448  0.00  0.00    +0.000 C 
ATOM      5  C   UNL     1       6.692   6.710  17.260  0.00  0.00    +0.000 C 
ENDROOT
BRANCH   1   6
ATOM      6  C   UNL     1       4.831   4.951  17.369  0.00  0.00    +0.000 A 
ATOM      7  C   UNL     1       4.043   5.820  18.153  0.00  0.00    +0.000 A 
ATOM      8  C   UNL     1       2.904   5.352  18.821  0.00  0.00    +0.000 A 
ATOM      9  C   UNL     1       2.529   4.007  18.717  0.00  0.00    +0.000 A 
ATOM     10  C   UNL     1       3.281   3.142  17.918  0.00  0.00    +0.000 A 
ATOM     11  C   UNL     1       4.420   3.602  17.265  0.00  0.00    +0.000 A 
BRANCH   9  12
ATOM     12  C   UNL     1       1.370   3.489  19.403  0.00  0.00    +0.000 C 
ATOM     13  N   UNL     1       0.430   3.151  19.988  0.00  0.00    +0.000 NA
ENDBRANCH   9  12
ENDBRANCH   1   6
BRANCH   1  14
ATOM     14  C   UNL     1       5.804   5.606  15.188  0.00  0.00    +0.000 C 
ATOM     15  O   UNL     1       5.175   6.592  14.825  0.00  0.00    +0.000 OA
BRANCH  14  16
ATOM     16  O   UNL     1       6.138   4.630  14.301  0.00  0.00    +0.000 OA
BRANCH  16  17
ATOM     17  C   UNL     1       7.184   4.741  13.403  0.00  0.00    +0.000 C 
BRANCH  17  18
ATOM     18  C   UNL     1       6.847   3.990  12.079  0.00  0.00    +0.000 C 
BRANCH  18  19
ATOM     19  N   UNL     1       5.594   3.129  12.134  0.00  0.00    +0.000 NA
BRANCH  19  21
ATOM     20  C   UNL     1       3.373   3.156  10.550  0.00  0.00    +0.000 C 
ATOM     21  C   UNL     1       4.327   3.823  11.678  0.00  0.00    +0.000 C 
ENDBRANCH  19  21
BRANCH  19  22
ATOM     22  C   UNL     1       5.840   1.765  11.554  0.00  0.00    +0.000 C 
ATOM     23  C   UNL     1       7.231   1.488  10.944  0.00  0.00    +0.000 C 
ENDBRANCH  19  22
ENDBRANCH  18  19
ENDBRANCH  17  18
ENDBRANCH  16  17
ENDBRANCH  14  16
ENDBRANCH   1  14
TORSDOF 9
ENDMDL
MODEL 3
REMARK VINA RESULT:      -6.7      1.039      1.629
REMARK  Name = 
REMARK  11 active torsions:
REMARK  status: ('A' for Active; 'I' for Inactive)
REMARK    1  A    between atoms: C_1  and  C_2
REMARK    2  A    between atoms: C_2  and  N_3
REMARK    3  A    between atoms: N_3  and  C_4
REMARK    4  A    between atoms: N_3  and  C_6
REMARK    5  A    between atoms: C_4  and  C_5
REMARK    6  A    between atoms: C_6  and  C_7
REMARK    7  A    between atoms: C_7  and  O_8
REMARK    8  A    between atoms: O_8  and  C_9
REMARK    9  A    between atoms: C_9  and  C_11
REMARK   10  A    between atoms: C_11  and  C_12
REMARK   11  A    between atoms: C_15  and  C_16
REMARK                            x       y       z     vdW  Elec       q    Type
REMARK                         _______ _______ _______ _____ _____    ______ ____
ROOT
ATOM      1  C   UNL     1       2.786   3.835  19.402  0.00  0.00    +0.000 C 
ATOM      2  C   UNL     1       1.812   2.919  18.621  0.00  0.00    +0.000 C 
ATOM      3  C   UNL     1       0.574   2.850  19.514  0.00  0.00    +0.000 C 
ATOM      4  C   UNL     1       1.100   2.937  20.956  0.00  0.00    +0.000 C 
ATOM      5  C   UNL     1       2.587   3.267  20.826  0.00  0.00    +0.000 C 
ENDROOT
BRANCH   1   6
ATOM      6  C   UNL     1       2.488   5.342  19.326  0.00  0.00    +0.000 A 
ATOM      7  C   UNL     1       2.163   6.113  20.462  0.00  0.00    +0.000 A 
ATOM      8  C   UNL     1       1.859   7.476  20.345  0.00  0.00    +0.000 A 
ATOM      9  C   UNL     1       1.874   8.094  19.088  0.00  0.00    +0.000 A 
ATOM     10  C   UNL     1       2.225   7.351  17.959  0.00  0.00    +0.000 A 
ATOM     11  C   UNL     1       2.515   5.995  18.072  0.00  0.00    +0.000 A 
BRANCH   9  12
ATOM     12  C   UNL     1       1.552   9.491  18.930  0.00  0.00    +0.000 C 
ATOM     13  N   UNL     1       1.294  10.600  18.718  0.00  0.00    +0.000 NA
ENDBRANCH   9  12
ENDBRANCH   1   6
BRANCH   1  14
ATOM     14  C   UNL     1       4.205   3.600  18.937  0.00  0.00    +0.000 C 
ATOM     15  O   UNL     1       5.143   3.986  19.623  0.00  0.00    +0.000 OA
BRANCH  14  16
ATOM     16  O   UNL     1       4.421   3.056  17.708  0.00  0.00    +0.000 OA
BRANCH  16  17
ATOM     17  C   UNL     1       4.556   3.807  16.555  0.00  0.00    +0.000 C 
BRANCH  17  18
ATOM     18  C   UNL     1       6.053   3.878  16.124  0.00  0.00    +0.000 C 
BRANCH  18  19
ATOM     19  N   UNL     1       6.802   5.108  16.615  0.00  0.00    +0.000 NA
BRANCH  19  21
ATOM     20  C   UNL     1       5.074   6.902  15.500  0.00  0.00    +0.000 C 
ATOM     21  C   UNL     1       5.954   6.356  16.748  0.00  0.00    +0.000 C 
ENDBRANCH  19  21
BRANCH  19  22
ATOM     22  C   UNL     1       7.677   4.782  17.792  0.00  0.00    +0.000 C 
ATOM     23  C   UNL     1       7.859   5.872  18.871  0.00  0.00    +0.000 C 
ENDBRANCH  19  22
ENDBRANCH  18  19
ENDBRANCH  17  18
ENDBRANCH  16  17
ENDBRANCH  14  16
ENDBRANCH   1  14
TORSDOF 9
ENDMDL
MODEL 4
REMARK VINA RESULT:      -6.6      1.949      5.595
REMARK  Name = 
REMARK  11 active torsions:
REMARK  status: ('A' for Active; 'I' for Inactive)
REMARK    1  A    between atoms: C_1  and  C_2
REMARK    2  A    between atoms: C_2  and  N_3
REMARK    3  A    between atoms: N_3  and  C_4
REMARK    4  A    between atoms: N_3  and  C_6
REMARK    5  A    between atoms: C_4  and  C_5
REMARK    6  A    between atoms: C_6  and  C_7
REMARK    7  A    between atoms: C_7  and  O_8
REMARK    8  A    between atoms: O_8  and  C_9
REMARK    9  A    between atoms: C_9  and  C_11
REMARK   10  A    between atoms: C_11  and  C_12
REMARK   11  A    between atoms: C_15  and  C_16
REMARK                            x       y       z     vdW  Elec       q    Type
REMARK                         _______ _______ _______ _____ _____    ______ ____
ROOT
ATOM      1  C   UNL     1       2.802   3.784  19.438  0.00  0.00    +0.000 C 
ATOM      2  C   UNL     1       3.301   2.369  19.820  0.00  0.00    +0.000 C 
ATOM      3  C   UNL     1       3.432   1.649  18.477  0.00  0.00    +0.000 C 
ATOM      4  C   UNL     1       2.323   2.232  17.587  0.00  0.00    +0.000 C 
ATOM      5  C   UNL     1       1.744   3.406  18.376  0.00  0.00    +0.000 C 
ENDROOT
BRANCH   1   6
ATOM      6  C   UNL     1       3.873   4.740  18.883  0.00  0.00    +0.000 A 
ATOM      7  C   UNL     1       3.619   5.634  17.822  0.00  0.00    +0.000 A 
ATOM      8  C   UNL     1       4.633   6.460  17.319  0.00  0.00    +0.000 A 
ATOM      9  C   UNL     1       5.921   6.407  17.868  0.00  0.00    +0.000 A 
ATOM     10  C   UNL     1       6.178   5.550  18.940  0.00  0.00    +0.000 A 
ATOM     11  C   UNL     1       5.176   4.720  19.432  0.00  0.00    +0.000 A 
BRANCH   9  12
ATOM     12  C   UNL     1       6.991   7.233  17.365  0.00  0.00    +0.000 C 
ATOM     13  N   UNL     1       7.858   7.929  17.040  0.00  0.00    +0.000 NA
ENDBRANCH   9  12
ENDBRANCH   1   6
BRANCH   1  14
ATOM     14  C   UNL     1       2.141   4.440  20.628  0.00  0.00    +0.000 C 
ATOM     15  O   UNL     1       2.133   3.869  21.712  0.00  0.00    +0.000 OA
BRANCH  14  16
ATOM     16  O   UNL     1       1.469   5.610  20.454  0.00  0.00    +0.000 OA
BRANCH  16  17
ATOM     17  C   UNL     1       1.851   6.803  21.040  0.00  0.00    +0.000 C 
BRANCH  17  18
ATOM     18  C   UNL     1       1.660   7.985  20.043  0.00  0.00    +0.000 C 
BRANCH  18  19
ATOM     19  N   UNL     1       0.937   9.194  20.616  0.00  0.00    +0.000 NA
BRANCH  19  21
ATOM     20  C   UNL     1      -0.926  10.295  18.953  0.00  0.00    +0.000 C 
ATOM     21  C   UNL     1       0.561  10.251  19.598  0.00  0.00    +0.000 C 
ENDBRANCH  19  21
BRANCH  19  22
ATOM     22  C   UNL     1      -0.152   8.782  21.566  0.00  0.00    +0.000 C 
ATOM     23  C   UNL     1      -0.259   9.543  22.904  0.00  0.00    +0.000 C 
ENDBRANCH  19  22
ENDBRANCH  18  19
ENDBRANCH  17  18
ENDBRANCH  16  17
ENDBRANCH  14  16
ENDBRANCH   1  14
TORSDOF 9
ENDMDL
MODEL 5
REMARK VINA RESULT:      -6.6      0.883      2.079
REMARK  Name = 
REMARK  11 active torsions:
REMARK  status: ('A' for Active; 'I' for Inactive)
REMARK    1  A    between atoms: C_1  and  C_2
REMARK    2  A    between atoms: C_2  and  N_3
REMARK    3  A    between atoms: N_3  and  C_4
REMARK    4  A    between atoms: N_3  and  C_6
REMARK    5  A    between atoms: C_4  and  C_5
REMARK    6  A    between atoms: C_6  and  C_7
REMARK    7  A    between atoms: C_7  and  O_8
REMARK    8  A    between atoms: O_8  and  C_9
REMARK    9  A    between atoms: C_9  and  C_11
REMARK   10  A    between atoms: C_11  and  C_12
REMARK   11  A    between atoms: C_15  and  C_16
REMARK                            x       y       z     vdW  Elec       q    Type
REMARK                         _______ _______ _______ _____ _____    ______ ____
ROOT
ATOM      1  C   UNL     1       2.878   3.833  19.108  0.00  0.00    +0.000 C 
ATOM      2  C   UNL     1       1.885   2.869  18.413  0.00  0.00    +0.000 C 
ATOM      3  C   UNL     1       0.731   2.748  19.409  0.00  0.00    +0.000 C 
ATOM      4  C   UNL     1       1.372   2.867  20.800  0.00  0.00    +0.000 C 
ATOM      5  C   UNL     1       2.826   3.264  20.545  0.00  0.00    +0.000 C 
ENDROOT
BRANCH   1   6
ATOM      6  C   UNL     1       2.505   5.324  19.055  0.00  0.00    +0.000 A 
ATOM      7  C   UNL     1       2.563   6.083  17.866  0.00  0.00    +0.000 A 
ATOM      8  C   UNL     1       2.253   7.449  17.869  0.00  0.00    +0.000 A 
ATOM      9  C   UNL     1       1.879   8.084  19.059  0.00  0.00    +0.000 A 
ATOM     10  C   UNL     1       1.786   7.339  20.237  0.00  0.00    +0.000 A 
ATOM     11  C   UNL     1       2.105   5.985  20.239  0.00  0.00    +0.000 A 
BRANCH   9  12
ATOM     12  C   UNL     1       1.567   9.492  19.100  0.00  0.00    +0.000 C 
ATOM     13  N   UNL     1       1.398  10.636  19.154  0.00  0.00    +0.000 NA
ENDBRANCH   9  12
ENDBRANCH   1   6
BRANCH   1  14
ATOM     14  C   UNL     1       4.262   3.661  18.525  0.00  0.00    +0.000 C 
ATOM     15  O   UNL     1       4.396   3.182  17.406  0.00  0.00    +0.000 OA
BRANCH  14  16
ATOM     16  O   UNL     1       5.347   3.943  19.295  0.00  0.00    +0.000 OA
BRANCH  16  17
ATOM     17  C   UNL     1       5.834   5.223  19.487  0.00  0.00    +0.000 C 
BRANCH  17  18
ATOM     18  C   UNL     1       6.905   5.565  18.407  0.00  0.00    +0.000 C 
BRANCH  18  19
ATOM     19  N   UNL     1       6.461   6.581  17.366  0.00  0.00    +0.000 NA
BRANCH  19  21
ATOM     20  C   UNL     1       8.336   8.262  18.416  0.00  0.00    +0.000 C 
ATOM     21  C   UNL     1       7.391   7.764  17.196  0.00  0.00    +0.000 C 
ENDBRANCH  19  21
BRANCH  19  22
ATOM     22  C   UNL     1       6.018   5.908  16.097  0.00  0.00    +0.000 C 
ATOM     23  C   UNL     1       6.942   4.822  15.505  0.00  0.00    +0.000 C 
ENDBRANCH  19  22
ENDBRANCH  18  19
ENDBRANCH  17  18
ENDBRANCH  16  17
ENDBRANCH  14  16
ENDBRANCH   1  14
TORSDOF 9
ENDMDL
MODEL 6
REMARK VINA RESULT:      -6.6      1.030      2.172
REMARK  Name = 
REMARK  11 active torsions:
REMARK  status: ('A' for Active; 'I' for Inactive)
REMARK    1  A    between atoms: C_1  and  C_2
REMARK    2  A    between atoms: C_2  and  N_3
REMARK    3  A    between atoms: N_3  and  C_4
REMARK    4  A    between atoms: N_3  and  C_6
REMARK    5  A    between atoms: C_4  and  C_5
REMARK    6  A    between atoms: C_6  and  C_7
REMARK    7  A    between atoms: C_7  and  O_8
REMARK    8  A    between atoms: O_8  and  C_9
REMARK    9  A    between atoms: C_9  and  C_11
REMARK   10  A    between atoms: C_11  and  C_12
REMARK   11  A    between atoms: C_15  and  C_16
REMARK                            x       y       z     vdW  Elec       q    Type
REMARK                         _______ _______ _______ _____ _____    ______ ____
ROOT
ATOM      1  C   UNL     1       2.793   4.262  19.513  0.00  0.00    +0.000 C 
ATOM      2  C   UNL     1       1.804   3.288  18.828  0.00  0.00    +0.000 C 
ATOM      3  C   UNL     1       0.634   3.199  19.808  0.00  0.00    +0.000 C 
ATOM      4  C   UNL     1       1.256   3.348  21.206  0.00  0.00    +0.000 C 
ATOM      5  C   UNL     1       2.716   3.730  20.963  0.00  0.00    +0.000 C 
ENDROOT
BRANCH   1   6
ATOM      6  C   UNL     1       2.432   5.754  19.418  0.00  0.00    +0.000 A 
ATOM      7  C   UNL     1       2.008   6.508  20.533  0.00  0.00    +0.000 A 
ATOM      8  C   UNL     1       1.649   7.856  20.396  0.00  0.00    +0.000 A 
ATOM      9  C   UNL     1       1.707   8.475  19.141  0.00  0.00    +0.000 A 
ATOM     10  C   UNL     1       2.155   7.750  18.035  0.00  0.00    +0.000 A 
ATOM     11  C   UNL     1       2.500   6.409  18.167  0.00  0.00    +0.000 A 
BRANCH   9  12
ATOM     12  C   UNL     1       1.331   9.857  18.962  0.00  0.00    +0.000 C 
ATOM     13  N   UNL     1       0.976  10.956  18.885  0.00  0.00    +0.000 NA
ENDBRANCH   9  12
ENDBRANCH   1   6
BRANCH   1  14
ATOM     14  C   UNL     1       4.185   4.066  18.956  0.00  0.00    +0.000 C 
ATOM     15  O   UNL     1       5.123   4.698  19.425  0.00  0.00    +0.000 OA
BRANCH  14  16
ATOM     16  O   UNL     1       4.359   3.269  17.867  0.00  0.00    +0.000 OA
BRANCH  16  17
ATOM     17  C   UNL     1       4.395   3.747  16.570  0.00  0.00    +0.000 C 
BRANCH  17  18
ATOM     18  C   UNL     1       5.848   3.688  16.009  0.00  0.00    +0.000 C 
BRANCH  18  19
ATOM     19  N   UNL     1       6.448   5.038  15.647  0.00  0.00    +0.000 NA
BRANCH  19  21
ATOM     20  C   UNL     1       6.937   7.132  17.326  0.00  0.00    +0.000 C 
ATOM     21  C   UNL     1       7.297   5.667  16.732  0.00  0.00    +0.000 C 
ENDBRANCH  19  21
BRANCH  19  22
ATOM     22  C   UNL     1       7.053   5.018  14.271  0.00  0.00    +0.000 C 
ATOM     23  C   UNL     1       6.502   3.985  13.264  0.00  0.00    +0.000 C 
ENDBRANCH  19  22
ENDBRANCH  18  19
ENDBRANCH  17  18
ENDBRANCH  16  17
ENDBRANCH  14  16
ENDBRANCH   1  14
TORSDOF 9
ENDMDL
MODEL 7
REMARK VINA RESULT:      -6.6      3.617      5.898
REMARK  Name = 
REMARK  11 active torsions:
REMARK  status: ('A' for Active; 'I' for Inactive)
REMARK    1  A    between atoms: C_1  and  C_2
REMARK    2  A    between atoms: C_2  and  N_3
REMARK    3  A    between atoms: N_3  and  C_4
REMARK    4  A    between atoms: N_3  and  C_6
REMARK    5  A    between atoms: C_4  and  C_5
REMARK    6  A    between atoms: C_6  and  C_7
REMARK    7  A    between atoms: C_7  and  O_8
REMARK    8  A    between atoms: O_8  and  C_9
REMARK    9  A    between atoms: C_9  and  C_11
REMARK   10  A    between atoms: C_11  and  C_12
REMARK   11  A    between atoms: C_15  and  C_16
REMARK                            x       y       z     vdW  Elec       q    Type
REMARK                         _______ _______ _______ _____ _____    ______ ____
ROOT
ATOM      1  C   UNL     1       5.956   5.473  16.730  0.00  0.00    +0.000 C 
ATOM      2  C   UNL     1       7.221   4.580  16.727  0.00  0.00    +0.000 C 
ATOM      3  C   UNL     1       7.837   4.807  18.108  0.00  0.00    +0.000 C 
ATOM      4  C   UNL     1       7.509   6.264  18.470  0.00  0.00    +0.000 C 
ATOM      5  C   UNL     1       6.541   6.744  17.389  0.00  0.00    +0.000 C 
ENDROOT
BRANCH   1   6
ATOM      6  C   UNL     1       4.749   4.916  17.503  0.00  0.00    +0.000 A 
ATOM      7  C   UNL     1       4.478   3.535  17.599  0.00  0.00    +0.000 A 
ATOM      8  C   UNL     1       3.344   3.070  18.280  0.00  0.00    +0.000 A 
ATOM      9  C   UNL     1       2.461   3.977  18.878  0.00  0.00    +0.000 A 
ATOM     10  C   UNL     1       2.734   5.345  18.818  0.00  0.00    +0.000 A 
ATOM     11  C   UNL     1       3.852   5.809  18.132  0.00  0.00    +0.000 A 
BRANCH   9  12
ATOM     12  C   UNL     1       1.277   3.533  19.574  0.00  0.00    +0.000 C 
ATOM     13  N   UNL     1       0.378   3.126  20.179  0.00  0.00    +0.000 NA
ENDBRANCH   9  12
ENDBRANCH   1   6
BRANCH   1  14
ATOM     14  C   UNL     1       5.526   5.768  15.311  0.00  0.00    +0.000 C 
ATOM     15  O   UNL     1       5.258   6.917  14.982  0.00  0.00    +0.000 OA
BRANCH  14  16
ATOM     16  O   UNL     1       5.339   4.736  14.445  0.00  0.00    +0.000 OA
BRANCH  16  17
ATOM     17  C   UNL     1       6.331   3.832  14.110  0.00  0.00    +0.000 C 
BRANCH  17  18
ATOM     18  C   UNL     1       6.377   3.621  12.567  0.00  0.00    +0.000 C 
BRANCH  18  19
ATOM     19  N   UNL     1       5.194   2.859  11.990  0.00  0.00    +0.000 NA
BRANCH  19  21
ATOM     20  C   UNL     1       3.136   3.082  10.213  0.00  0.00    +0.000 C 
ATOM     21  C   UNL     1       4.162   3.721  11.293  0.00  0.00    +0.000 C 
ENDBRANCH  19  21
BRANCH  19  22
ATOM     22  C   UNL     1       5.642   1.637  11.240  0.00  0.00    +0.000 C 
ATOM     23  C   UNL     1       7.152   1.488  10.953  0.00  0.00    +0.000 C 
ENDBRANCH  19  22
ENDBRANCH  18  19
ENDBRANCH  17  18
ENDBRANCH  16  17
ENDBRANCH  14  16
ENDBRANCH   1  14
TORSDOF 9
ENDMDL
MODEL 8
REMARK VINA RESULT:      -6.5      3.405      5.758
REMARK  Name = 
REMARK  11 active torsions:
REMARK  status: ('A' for Active; 'I' for Inactive)
REMARK    1  A    between atoms: C_1  and  C_2
REMARK    2  A    between atoms: C_2  and  N_3
REMARK    3  A    between atoms: N_3  and  C_4
REMARK    4  A    between atoms: N_3  and  C_6
REMARK    5  A    between atoms: C_4  and  C_5
REMARK    6  A    between atoms: C_6  and  C_7
REMARK    7  A    between atoms: C_7  and  O_8
REMARK    8  A    between atoms: O_8  and  C_9
REMARK    9  A    between atoms: C_9  and  C_11
REMARK   10  A    between atoms: C_11  and  C_12
REMARK   11  A    between atoms: C_15  and  C_16
REMARK                            x       y       z     vdW  Elec       q    Type
REMARK                         _______ _______ _______ _____ _____    ______ ____
ROOT
ATOM      1  C   UNL     1       6.479   5.122  16.948  0.00  0.00    +0.000 C 
ATOM      2  C   UNL     1       7.779   4.612  17.616  0.00  0.00    +0.000 C 
ATOM      3  C   UNL     1       8.064   5.645  18.707  0.00  0.00    +0.000 C 
ATOM      4  C   UNL     1       7.555   6.984  18.149  0.00  0.00    +0.000 C 
ATOM      5  C   UNL     1       6.808   6.631  16.863  0.00  0.00    +0.000 C 
ENDROOT
BRANCH   1   6
ATOM      6  C   UNL     1       5.180   4.850  17.726  0.00  0.00    +0.000 A 
ATOM      7  C   UNL     1       5.106   3.919  18.783  0.00  0.00    +0.000 A 
ATOM      8  C   UNL     1       3.894   3.671  19.440  0.00  0.00    +0.000 A 
ATOM      9  C   UNL     1       2.732   4.349  19.052  0.00  0.00    +0.000 A 
ATOM     10  C   UNL     1       2.796   5.296  18.028  0.00  0.00    +0.000 A 
ATOM     11  C   UNL     1       3.997   5.535  17.367  0.00  0.00    +0.000 A 
BRANCH   9  12
ATOM     12  C   UNL     1       1.464   4.107  19.697  0.00  0.00    +0.000 C 
ATOM     13  N   UNL     1       0.489   3.907  20.289  0.00  0.00    +0.000 NA
ENDBRANCH   9  12
ENDBRANCH   1   6
BRANCH   1  14
ATOM     14  C   UNL     1       6.343   4.535  15.562  0.00  0.00    +0.000 C 
ATOM     15  O   UNL     1       6.023   3.361  15.426  0.00  0.00    +0.000 OA
BRANCH  14  16
ATOM     16  O   UNL     1       6.683   5.292  14.483  0.00  0.00    +0.000 OA
BRANCH  16  17
ATOM     17  C   UNL     1       7.596   4.888  13.526  0.00  0.00    +0.000 C 
BRANCH  17  18
ATOM     18  C   UNL     1       6.864   4.501  12.205  0.00  0.00    +0.000 C 
BRANCH  18  19
ATOM     19  N   UNL     1       6.223   3.121  12.211  0.00  0.00    +0.000 NA
BRANCH  19  21
ATOM     20  C   UNL     1       3.981   3.656  10.751  0.00  0.00    +0.000 C 
ATOM     21  C   UNL     1       4.713   3.123  12.096  0.00  0.00    +0.000 C 
ENDBRANCH  19  21
BRANCH  19  22
ATOM     22  C   UNL     1       6.949   2.175  11.297  0.00  0.00    +0.000 C 
ATOM     23  C   UNL     1       6.313   0.791  11.050  0.00  0.00    +0.000 C 
ENDBRANCH  19  22
ENDBRANCH  18  19
ENDBRANCH  17  18
ENDBRANCH  16  17
ENDBRANCH  14  16
ENDBRANCH   1  14
TORSDOF 9
ENDMDL
MODEL 9
REMARK VINA RESULT:      -6.5      1.013      1.903
REMARK  Name = 
REMARK  11 active torsions:
REMARK  status: ('A' for Active; 'I' for Inactive)
REMARK    1  A    between atoms: C_1  and  C_2
REMARK    2  A    between atoms: C_2  and  N_3
REMARK    3  A    between atoms: N_3  and  C_4
REMARK    4  A    between atoms: N_3  and  C_6
REMARK    5  A    between atoms: C_4  and  C_5
REMARK    6  A    between atoms: C_6  and  C_7
REMARK    7  A    between atoms: C_7  and  O_8
REMARK    8  A    between atoms: O_8  and  C_9
REMARK    9  A    between atoms: C_9  and  C_11
REMARK   10  A    between atoms: C_11  and  C_12
REMARK   11  A    between atoms: C_15  and  C_16
REMARK                            x       y       z     vdW  Elec       q    Type
REMARK                         _______ _______ _______ _____ _____    ______ ____
ROOT
ATOM      1  C   UNL     1       2.948   3.370  19.555  0.00  0.00    +0.000 C 
ATOM      2  C   UNL     1       2.376   2.372  18.519  0.00  0.00    +0.000 C 
ATOM      3  C   UNL     1       0.871   2.380  18.790  0.00  0.00    +0.000 C 
ATOM      4  C   UNL     1       0.726   2.614  20.303  0.00  0.00    +0.000 C 
ATOM      5  C   UNL     1       2.134   2.945  20.799  0.00  0.00    +0.000 C 
ENDROOT
BRANCH   1   6
ATOM      6  C   UNL     1       2.763   4.860  19.216  0.00  0.00    +0.000 A 
ATOM      7  C   UNL     1       2.508   5.839  20.200  0.00  0.00    +0.000 A 
ATOM      8  C   UNL     1       2.307   7.179  19.845  0.00  0.00    +0.000 A 
ATOM      9  C   UNL     1       2.356   7.566  18.500  0.00  0.00    +0.000 A 
ATOM     10  C   UNL     1       2.639   6.614  17.519  0.00  0.00    +0.000 A 
ATOM     11  C   UNL     1       2.827   5.280  17.868  0.00  0.00    +0.000 A 
BRANCH   9  12
ATOM     12  C   UNL     1       2.138   8.935  18.099  0.00  0.00    +0.000 C 
ATOM     13  N   UNL     1       2.049  10.043  17.776  0.00  0.00    +0.000 NA
ENDBRANCH   9  12
ENDBRANCH   1   6
BRANCH   1  14
ATOM     14  C   UNL     1       4.419   3.104  19.775  0.00  0.00    +0.000 C 
ATOM     15  O   UNL     1       4.772   2.118  20.410  0.00  0.00    +0.000 OA
BRANCH  14  16
ATOM     16  O   UNL     1       5.331   4.023  19.354  0.00  0.00    +0.000 OA
BRANCH  16  17
ATOM     17  C   UNL     1       5.958   3.965  18.123  0.00  0.00    +0.000 C 
BRANCH  17  18
ATOM     18  C   UNL     1       6.944   5.161  17.957  0.00  0.00    +0.000 C 
BRANCH  18  19
ATOM     19  N   UNL     1       6.461   6.263  17.027  0.00  0.00    +0.000 NA
BRANCH  19  21
ATOM     20  C   UNL     1       8.183   8.022  18.205  0.00  0.00    +0.000 C 
ATOM     21  C   UNL     1       7.396   7.449  16.908  0.00  0.00    +0.000 C 
ENDBRANCH  19  21
BRANCH  19  22
ATOM     22  C   UNL     1       5.947   5.701  15.732  0.00  0.00    +0.000 C 
ATOM     23  C   UNL     1       6.951   4.954  14.829  0.00  0.00    +0.000 C 
ENDBRANCH  19  22
ENDBRANCH  18  19
ENDBRANCH  17  18
ENDBRANCH  16  17
ENDBRANCH  14  16
ENDBRANCH   1  14
TORSDOF 9
ENDMDL
