MODEL 1
REMARK VINA RESULT:      -7.4      0.000      0.000
REMARK  Name = 
REMARK  2 active torsions:
REMARK  status: ('A' for Active; 'I' for Inactive)
REMARK    1  A    between atoms: C_5  and  N_6
REMARK    2  A    between atoms: N_6  and  C_7
REMARK                            x       y       z     vdW  Elec       q    Type
REMARK                         _______ _______ _______ _____ _____    ______ ____
ROOT
ATOM      1  O   UNL     1      -0.376  11.035  18.237  0.00  0.00    +0.000 OA
ATOM      2  C   UNL     1       0.046  10.453  19.231  0.00  0.00    +0.000 C 
ATOM      3  C   UNL     1       0.994   9.313  19.159  0.00  0.00    +0.000 C 
ATOM      4 CL   UNL     1       1.515   8.906  17.550  0.00  0.00    +0.000 Cl
ATOM      5  C   UNL     1       1.451   8.669  20.249  0.00  0.00    +0.000 C 
ATOM      6  C   UNL     1       1.048   9.171  21.608  0.00  0.00    +0.000 C 
ATOM      7  O   UNL     1       1.554   8.663  22.607  0.00  0.00    +0.000 OA
ATOM      8  C   UNL     1       0.049  10.264  21.696  0.00  0.00    +0.000 A 
ATOM      9  N   UNL     1      -0.359  10.613  22.943  0.00  0.00    +0.000 NA
ATOM     10  C   UNL     1      -1.257  11.620  23.043  0.00  0.00    +0.000 A 
ATOM     11  C   UNL     1      -1.763  12.304  21.955  0.00  0.00    +0.000 A 
ATOM     12  C   UNL     1      -1.335  11.925  20.684  0.00  0.00    +0.000 A 
ATOM     13  C   UNL     1      -0.415  10.880  20.552  0.00  0.00    +0.000 A 
ENDROOT
BRANCH   5  14
ATOM     14  N   UNL     1       2.346   7.595  20.299  0.00  0.00    +0.000 N 
ATOM     15  H   UNL     1       2.908   7.619  21.158  0.00  0.00    +0.000 HD
BRANCH  14  16
ATOM     16  C   UNL     1       2.064   6.261  19.919  0.00  0.00    +0.000 A 
ATOM     17  C   UNL     1       1.425   5.342  20.763  0.00  0.00    +0.000 A 
ATOM     18  C   UNL     1       1.043   4.084  20.295  0.00  0.00    +0.000 A 
ATOM     19  C   UNL     1       1.324   3.730  18.983  0.00  0.00    +0.000 A 
ATOM     20  F   UNL     1       0.921   2.539  18.522  0.00  0.00    +0.000 F 
ATOM     21  C   UNL     1       2.009   4.597  18.143  0.00  0.00    +0.000 A 
ATOM     22  C   UNL     1       2.384   5.858  18.613  0.00  0.00    +0.000 A 
ENDBRANCH  14  16
ENDBRANCH   5  14
TORSDOF 2
ENDMDL
MODEL 2
REMARK VINA RESULT:      -7.3      5.215      7.058
REMARK  Name = 
REMARK  2 active torsions:
REMARK  status: ('A' for Active; 'I' for Inactive)
REMARK    1  A    between atoms: C_5  and  N_6
REMARK    2  A    between atoms: N_6  and  C_7
REMARK                            x       y       z     vdW  Elec       q    Type
REMARK                         _______ _______ _______ _____ _____    ______ ____
ROOT
ATOM      1  O   UNL     1       1.862   6.862  18.868  0.00  0.00    +0.000 OA
ATOM      2  C   UNL     1       2.714   5.979  18.886  0.00  0.00    +0.000 C 
ATOM      3  C   UNL     1       3.960   6.042  18.081  0.00  0.00    +0.000 C 
ATOM      4 CL   UNL     1       4.150   7.501  17.154  0.00  0.00    +0.000 Cl
ATOM      5  C   UNL     1       4.892   5.071  18.094  0.00  0.00    +0.000 C 
ATOM      6  C   UNL     1       4.706   3.903  19.023  0.00  0.00    +0.000 C 
ATOM      7  O   UNL     1       5.607   3.073  19.128  0.00  0.00    +0.000 OA
ATOM      8  C   UNL     1       3.436   3.792  19.783  0.00  0.00    +0.000 A 
ATOM      9  N   UNL     1       3.273   2.669  20.529  0.00  0.00    +0.000 NA
ATOM     10  C   UNL     1       2.128   2.559  21.241  0.00  0.00    +0.000 A 
ATOM     11  C   UNL     1       1.138   3.523  21.252  0.00  0.00    +0.000 A 
ATOM     12  C   UNL     1       1.325   4.664  20.474  0.00  0.00    +0.000 A 
ATOM     13  C   UNL     1       2.494   4.798  19.720  0.00  0.00    +0.000 A 
ENDROOT
BRANCH   5  14
ATOM     14  N   UNL     1       6.098   5.029  17.387  0.00  0.00    +0.000 N 
ATOM     15  H   UNL     1       6.810   4.494  17.898  0.00  0.00    +0.000 HD
BRANCH  14  16
ATOM     16  C   UNL     1       6.235   4.843  15.991  0.00  0.00    +0.000 A 
ATOM     17  C   UNL     1       7.354   5.275  15.266  0.00  0.00    +0.000 A 
ATOM     18  C   UNL     1       7.507   4.944  13.918  0.00  0.00    +0.000 A 
ATOM     19  C   UNL     1       6.523   4.202  13.282  0.00  0.00    +0.000 A 
ATOM     20  F   UNL     1       6.689   3.850  12.000  0.00  0.00    +0.000 F 
ATOM     21  C   UNL     1       5.375   3.813  13.959  0.00  0.00    +0.000 A 
ATOM     22  C   UNL     1       5.229   4.140  15.310  0.00  0.00    +0.000 A 
ENDBRANCH  14  16
ENDBRANCH   5  14
TORSDOF 2
ENDMDL
MODEL 3
REMARK VINA RESULT:      -7.3      5.114      6.949
REMARK  Name = 
REMARK  2 active torsions:
REMARK  status: ('A' for Active; 'I' for Inactive)
REMARK    1  A    between atoms: C_5  and  N_6
REMARK    2  A    between atoms: N_6  and  C_7
REMARK                            x       y       z     vdW  Elec       q    Type
REMARK                         _______ _______ _______ _____ _____    ______ ____
ROOT
ATOM      1  O   UNL     1       1.619   6.800  19.233  0.00  0.00    +0.000 OA
ATOM      2  C   UNL     1       2.552   6.008  19.162  0.00  0.00    +0.000 C 
ATOM      3  C   UNL     1       3.745   6.239  18.307  0.00  0.00    +0.000 C 
ATOM      4 CL   UNL     1       3.745   7.758  17.461  0.00  0.00    +0.000 Cl
ATOM      5  C   UNL     1       4.766   5.366  18.222  0.00  0.00    +0.000 C 
ATOM      6  C   UNL     1       4.741   4.137  19.087  0.00  0.00    +0.000 C 
ATOM      7  O   UNL     1       5.723   3.397  19.103  0.00  0.00    +0.000 OA
ATOM      8  C   UNL     1       3.528   3.858  19.894  0.00  0.00    +0.000 A 
ATOM      9  N   UNL     1       3.512   2.685  20.579  0.00  0.00    +0.000 NA
ATOM     10  C   UNL     1       2.421   2.423  21.334  0.00  0.00    +0.000 A 
ATOM     11  C   UNL     1       1.343   3.281  21.446  0.00  0.00    +0.000 A 
ATOM     12  C   UNL     1       1.379   4.475  20.729  0.00  0.00    +0.000 A 
ATOM     13  C   UNL     1       2.491   4.767  19.933  0.00  0.00    +0.000 A 
ENDROOT
BRANCH   5  14
ATOM     14  N   UNL     1       5.934   5.484  17.460  0.00  0.00    +0.000 N 
ATOM     15  H   UNL     1       6.770   5.328  18.036  0.00  0.00    +0.000 HD
BRANCH  14  16
ATOM     16  C   UNL     1       6.124   4.984  16.151  0.00  0.00    +0.000 A 
ATOM     17  C   UNL     1       5.141   4.270  15.451  0.00  0.00    +0.000 A 
ATOM     18  C   UNL     1       5.324   3.921  14.112  0.00  0.00    +0.000 A 
ATOM     19  C   UNL     1       6.508   4.262  13.474  0.00  0.00    +0.000 A 
ATOM     20  F   UNL     1       6.667   3.963  12.178  0.00  0.00    +0.000 F 
ATOM     21  C   UNL     1       7.523   4.915  14.159  0.00  0.00    +0.000 A 
ATOM     22  C   UNL     1       7.334   5.269  15.498  0.00  0.00    +0.000 A 
ENDBRANCH  14  16
ENDBRANCH   5  14
TORSDOF 2
ENDMDL
MODEL 4
REMARK VINA RESULT:      -7.3      6.724      7.750
REMARK  Name = 
REMARK  2 active torsions:
REMARK  status: ('A' for Active; 'I' for Inactive)
REMARK    1  A    between atoms: C_5  and  N_6
REMARK    2  A    between atoms: N_6  and  C_7
REMARK                            x       y       z     vdW  Elec       q    Type
REMARK                         _______ _______ _______ _____ _____    ______ ____
ROOT
ATOM      1  O   UNL     1       2.165   3.322  16.299  0.00  0.00    +0.000 OA
ATOM      2  C   UNL     1       2.950   3.436  17.235  0.00  0.00    +0.000 C 
ATOM      3  C   UNL     1       4.389   3.748  17.050  0.00  0.00    +0.000 C 
ATOM      4 CL   UNL     1       4.866   4.007  15.398  0.00  0.00    +0.000 Cl
ATOM      5  C   UNL     1       5.253   3.866  18.076  0.00  0.00    +0.000 C 
ATOM      6  C   UNL     1       4.727   3.753  19.481  0.00  0.00    +0.000 C 
ATOM      7  O   UNL     1       5.485   3.976  20.422  0.00  0.00    +0.000 OA
ATOM      8  C   UNL     1       3.306   3.374  19.681  0.00  0.00    +0.000 A 
ATOM      9  N   UNL     1       2.905   3.184  20.965  0.00  0.00    +0.000 NA
ATOM     10  C   UNL     1       1.609   2.855  21.167  0.00  0.00    +0.000 A 
ATOM     11  C   UNL     1       0.687   2.712  20.147  0.00  0.00    +0.000 A 
ATOM     12  C   UNL     1       1.123   2.905  18.837  0.00  0.00    +0.000 A 
ATOM     13  C   UNL     1       2.460   3.237  18.600  0.00  0.00    +0.000 A 
ENDROOT
BRANCH   5  14
ATOM     14  N   UNL     1       6.618   4.163  18.019  0.00  0.00    +0.000 N 
ATOM     15  H   UNL     1       7.112   3.525  17.383  0.00  0.00    +0.000 HD
BRANCH  14  16
ATOM     16  C   UNL     1       7.184   5.459  17.970  0.00  0.00    +0.000 A 
ATOM     17  C   UNL     1       6.948   6.360  16.923  0.00  0.00    +0.000 A 
ATOM     18  C   UNL     1       7.413   7.675  16.989  0.00  0.00    +0.000 A 
ATOM     19  C   UNL     1       8.143   8.085  18.095  0.00  0.00    +0.000 A 
ATOM     20  F   UNL     1       8.554   9.357  18.178  0.00  0.00    +0.000 F 
ATOM     21  C   UNL     1       8.444   7.197  19.119  0.00  0.00    +0.000 A 
ATOM     22  C   UNL     1       7.970   5.884  19.053  0.00  0.00    +0.000 A 
ENDBRANCH  14  16
ENDBRANCH   5  14
TORSDOF 2
ENDMDL
MODEL 5
REMARK VINA RESULT:      -7.2      1.329      1.948
REMARK  Name = 
REMARK  2 active torsions:
REMARK  status: ('A' for Active; 'I' for Inactive)
REMARK    1  A    between atoms: C_5  and  N_6
REMARK    2  A    between atoms: N_6  and  C_7
REMARK                            x       y       z     vdW  Elec       q    Type
REMARK                         _______ _______ _______ _____ _____    ______ ____
ROOT
ATOM      1  O   UNL     1       2.064  10.354  17.255  0.00  0.00    +0.000 OA
ATOM      2  C   UNL     1       1.786   9.762  18.292  0.00  0.00    +0.000 C 
ATOM      3  C   UNL     1       2.308   8.410  18.617  0.00  0.00    +0.000 C 
ATOM      4 CL   UNL     1       3.404   7.755  17.437  0.00  0.00    +0.000 Cl
ATOM      5  C   UNL     1       1.997   7.757  19.752  0.00  0.00    +0.000 C 
ATOM      6  C   UNL     1       1.144   8.452  20.777  0.00  0.00    +0.000 C 
ATOM      7  O   UNL     1       0.954   7.910  21.864  0.00  0.00    +0.000 OA
ATOM      8  C   UNL     1       0.559   9.773  20.439  0.00  0.00    +0.000 A 
ATOM      9  N   UNL     1      -0.285  10.314  21.354  0.00  0.00    +0.000 NA
ATOM     10  C   UNL     1      -0.815  11.526  21.070  0.00  0.00    +0.000 A 
ATOM     11  C   UNL     1      -0.535  12.231  19.915  0.00  0.00    +0.000 A 
ATOM     12  C   UNL     1       0.330  11.654  18.987  0.00  0.00    +0.000 A 
ATOM     13  C   UNL     1       0.883  10.398  19.252  0.00  0.00    +0.000 A 
ENDROOT
BRANCH   5  14
ATOM     14  N   UNL     1       2.435   6.493  20.162  0.00  0.00    +0.000 N 
ATOM     15  H   UNL     1       2.611   6.470  21.174  0.00  0.00    +0.000 HD
BRANCH  14  16
ATOM     16  C   UNL     1       1.924   5.252  19.713  0.00  0.00    +0.000 A 
ATOM     17  C   UNL     1       2.034   4.812  18.387  0.00  0.00    +0.000 A 
ATOM     18  C   UNL     1       1.641   3.522  18.024  0.00  0.00    +0.000 A 
ATOM     19  C   UNL     1       1.109   2.675  18.985  0.00  0.00    +0.000 A 
ATOM     20  F   UNL     1       0.770   1.425  18.647  0.00  0.00    +0.000 F 
ATOM     21  C   UNL     1       0.931   3.106  20.293  0.00  0.00    +0.000 A 
ATOM     22  C   UNL     1       1.333   4.395  20.655  0.00  0.00    +0.000 A 
ENDBRANCH  14  16
ENDBRANCH   5  14
TORSDOF 2
ENDMDL
MODEL 6
REMARK VINA RESULT:      -7.2      0.198      1.071
REMARK  Name = 
REMARK  2 active torsions:
REMARK  status: ('A' for Active; 'I' for Inactive)
REMARK    1  A    between atoms: C_5  and  N_6
REMARK    2  A    between atoms: N_6  and  C_7
REMARK                            x       y       z     vdW  Elec       q    Type
REMARK                         _______ _______ _______ _____ _____    ______ ____
ROOT
ATOM      1  O   UNL     1      -0.318  11.066  18.221  0.00  0.00    +0.000 OA
ATOM      2  C   UNL     1       0.084  10.476  19.219  0.00  0.00    +0.000 C 
ATOM      3  C   UNL     1       1.003   9.312  19.154  0.00  0.00    +0.000 C 
ATOM      4 CL   UNL     1       1.521   8.887  17.549  0.00  0.00    +0.000 Cl
ATOM      5  C   UNL     1       1.438   8.659  20.248  0.00  0.00    +0.000 C 
ATOM      6  C   UNL     1       1.042   9.175  21.604  0.00  0.00    +0.000 C 
ATOM      7  O   UNL     1       1.530   8.657  22.606  0.00  0.00    +0.000 OA
ATOM      8  C   UNL     1       0.071  10.293  21.684  0.00  0.00    +0.000 A 
ATOM      9  N   UNL     1      -0.334  10.656  22.929  0.00  0.00    +0.000 NA
ATOM     10  C   UNL     1      -1.207  11.685  23.022  0.00  0.00    +0.000 A 
ATOM     11  C   UNL     1      -1.691  12.380  21.929  0.00  0.00    +0.000 A 
ATOM     12  C   UNL     1      -1.266  11.986  20.662  0.00  0.00    +0.000 A 
ATOM     13  C   UNL     1      -0.373  10.918  20.537  0.00  0.00    +0.000 A 
ENDROOT
BRANCH   5  14
ATOM     14  N   UNL     1       2.305   7.563  20.304  0.00  0.00    +0.000 N 
ATOM     15  H   UNL     1       2.817   7.539  21.195  0.00  0.00    +0.000 HD
BRANCH  14  16
ATOM     16  C   UNL     1       2.017   6.253  19.855  0.00  0.00    +0.000 A 
ATOM     17  C   UNL     1       2.376   5.782  18.584  0.00  0.00    +0.000 A 
ATOM     18  C   UNL     1       2.196   4.440  18.239  0.00  0.00    +0.000 A 
ATOM     19  C   UNL     1       1.629   3.570  19.158  0.00  0.00    +0.000 A 
ATOM     20  F   UNL     1       1.494   2.275  18.843  0.00  0.00    +0.000 F 
ATOM     21  C   UNL     1       1.208   4.022  20.402  0.00  0.00    +0.000 A 
ATOM     22  C   UNL     1       1.397   5.363  20.747  0.00  0.00    +0.000 A 
ENDBRANCH  14  16
ENDBRANCH   5  14
TORSDOF 2
ENDMDL
MODEL 7
REMARK VINA RESULT:      -7.2      5.475      7.664
REMARK  Name = 
REMARK  2 active torsions:
REMARK  status: ('A' for Active; 'I' for Inactive)
REMARK    1  A    between atoms: C_5  and  N_6
REMARK    2  A    between atoms: N_6  and  C_7
REMARK                            x       y       z     vdW  Elec       q    Type
REMARK                         _______ _______ _______ _____ _____    ______ ____
ROOT
ATOM      1  O   UNL     1       3.236   6.974  18.422  0.00  0.00    +0.000 OA
ATOM      2  C   UNL     1       3.467   5.785  18.227  0.00  0.00    +0.000 C 
ATOM      3  C   UNL     1       4.544   5.308  17.324  0.00  0.00    +0.000 C 
ATOM      4 CL   UNL     1       5.502   6.572  16.609  0.00  0.00    +0.000 Cl
ATOM      5  C   UNL     1       4.793   4.004  17.103  0.00  0.00    +0.000 C 
ATOM      6  C   UNL     1       3.998   2.977  17.863  0.00  0.00    +0.000 C 
ATOM      7  O   UNL     1       4.299   1.790  17.757  0.00  0.00    +0.000 OA
ATOM      8  C   UNL     1       2.875   3.435  18.717  0.00  0.00    +0.000 A 
ATOM      9  N   UNL     1       2.124   2.467  19.301  0.00  0.00    +0.000 NA
ATOM     10  C   UNL     1       1.105   2.867  20.096  0.00  0.00    +0.000 A 
ATOM     11  C   UNL     1       0.803   4.192  20.345  0.00  0.00    +0.000 A 
ATOM     12  C   UNL     1       1.584   5.169  19.730  0.00  0.00    +0.000 A 
ATOM     13  C   UNL     1       2.636   4.783  18.895  0.00  0.00    +0.000 A 
ENDROOT
BRANCH   5  14
ATOM     14  N   UNL     1       5.780   3.444  16.285  0.00  0.00    +0.000 N 
ATOM     15  H   UNL     1       5.743   2.418  16.306  0.00  0.00    +0.000 HD
BRANCH  14  16
ATOM     16  C   UNL     1       6.154   3.908  15.002  0.00  0.00    +0.000 A 
ATOM     17  C   UNL     1       7.240   4.768  14.783  0.00  0.00    +0.000 A 
ATOM     18  C   UNL     1       7.655   5.084  13.488  0.00  0.00    +0.000 A 
ATOM     19  C   UNL     1       6.966   4.560  12.404  0.00  0.00    +0.000 A 
ATOM     20  F   UNL     1       7.389   4.830  11.162  0.00  0.00    +0.000 F 
ATOM     21  C   UNL     1       5.850   3.756  12.590  0.00  0.00    +0.000 A 
ATOM     22  C   UNL     1       5.441   3.435  13.888  0.00  0.00    +0.000 A 
ENDBRANCH  14  16
ENDBRANCH   5  14
TORSDOF 2
ENDMDL
MODEL 8
REMARK VINA RESULT:      -6.9      5.125      7.168
REMARK  Name = 
REMARK  2 active torsions:
REMARK  status: ('A' for Active; 'I' for Inactive)
REMARK    1  A    between atoms: C_5  and  N_6
REMARK    2  A    between atoms: N_6  and  C_7
REMARK                            x       y       z     vdW  Elec       q    Type
REMARK                         _______ _______ _______ _____ _____    ______ ____
ROOT
ATOM      1  O   UNL     1       2.561   7.196  17.827  0.00  0.00    +0.000 OA
ATOM      2  C   UNL     1       3.235   6.204  18.085  0.00  0.00    +0.000 C 
ATOM      3  C   UNL     1       4.464   5.844  17.335  0.00  0.00    +0.000 C 
ATOM      4 CL   UNL     1       4.916   6.979  16.098  0.00  0.00    +0.000 Cl
ATOM      5  C   UNL     1       5.200   4.751  17.613  0.00  0.00    +0.000 C 
ATOM      6  C   UNL     1       4.807   3.893  18.784  0.00  0.00    +0.000 C 
ATOM      7  O   UNL     1       5.539   2.963  19.115  0.00  0.00    +0.000 OA
ATOM      8  C   UNL     1       3.545   4.200  19.500  0.00  0.00    +0.000 A 
ATOM      9  N   UNL     1       3.181   3.337  20.484  0.00  0.00    +0.000 NA
ATOM     10  C   UNL     1       2.041   3.612  21.159  0.00  0.00    +0.000 A 
ATOM     11  C   UNL     1       1.247   4.714  20.905  0.00  0.00    +0.000 A 
ATOM     12  C   UNL     1       1.637   5.582  19.886  0.00  0.00    +0.000 A 
ATOM     13  C   UNL     1       2.805   5.316  19.166  0.00  0.00    +0.000 A 
ENDROOT
BRANCH   5  14
ATOM     14  N   UNL     1       6.371   4.322  16.981  0.00  0.00    +0.000 N 
ATOM     15  H   UNL     1       6.758   3.489  17.440  0.00  0.00    +0.000 HD
BRANCH  14  16
ATOM     16  C   UNL     1       6.591   4.273  15.584  0.00  0.00    +0.000 A 
ATOM     17  C   UNL     1       5.806   3.510  14.710  0.00  0.00    +0.000 A 
ATOM     18  C   UNL     1       5.972   3.605  13.327  0.00  0.00    +0.000 A 
ATOM     19  C   UNL     1       6.947   4.447  12.814  0.00  0.00    +0.000 A 
ATOM     20  F   UNL     1       7.080   4.570  11.487  0.00  0.00    +0.000 F 
ATOM     21  C   UNL     1       7.781   5.169  13.657  0.00  0.00    +0.000 A 
ATOM     22  C   UNL     1       7.607   5.077  15.041  0.00  0.00    +0.000 A 
ENDBRANCH  14  16
ENDBRANCH   5  14
TORSDOF 2
ENDMDL
MODEL 9
REMARK VINA RESULT:      -6.9      1.549      1.912
REMARK  Name = 
REMARK  2 active torsions:
REMARK  status: ('A' for Active; 'I' for Inactive)
REMARK    1  A    between atoms: C_5  and  N_6
REMARK    2  A    between atoms: N_6  and  C_7
REMARK                            x       y       z     vdW  Elec       q    Type
REMARK                         _______ _______ _______ _____ _____    ______ ____
ROOT
ATOM      1  O   UNL     1       2.017   9.658  17.121  0.00  0.00    +0.000 OA
ATOM      2  C   UNL     1       1.754   9.244  18.246  0.00  0.00    +0.000 C 
ATOM      3  C   UNL     1       2.324   7.990  18.799  0.00  0.00    +0.000 C 
ATOM      4 CL   UNL     1       3.452   7.182  17.749  0.00  0.00    +0.000 Cl
ATOM      5  C   UNL     1       2.030   7.530  20.030  0.00  0.00    +0.000 C 
ATOM      6  C   UNL     1       1.146   8.360  20.919  0.00  0.00    +0.000 C 
ATOM      7  O   UNL     1       0.969   8.006  22.083  0.00  0.00    +0.000 OA
ATOM      8  C   UNL     1       0.514   9.579  20.358  0.00  0.00    +0.000 A 
ATOM      9  N   UNL     1      -0.356  10.238  21.167  0.00  0.00    +0.000 NA
ATOM     10  C   UNL     1      -0.928  11.361  20.677  0.00  0.00    +0.000 A 
ATOM     11  C   UNL     1      -0.667  11.867  19.417  0.00  0.00    +0.000 A 
ATOM     12  C   UNL     1       0.224  11.171  18.603  0.00  0.00    +0.000 A 
ATOM     13  C   UNL     1       0.822  10.001  19.081  0.00  0.00    +0.000 A 
ENDROOT
BRANCH   5  14
ATOM     14  N   UNL     1       2.512   6.373  20.652  0.00  0.00    +0.000 N 
ATOM     15  H   UNL     1       2.483   6.461  21.675  0.00  0.00    +0.000 HD
BRANCH  14  16
ATOM     16  C   UNL     1       2.241   5.043  20.253  0.00  0.00    +0.000 A 
ATOM     17  C   UNL     1       1.001   4.421  20.451  0.00  0.00    +0.000 A 
ATOM     18  C   UNL     1       0.738   3.158  19.915  0.00  0.00    +0.000 A 
ATOM     19  C   UNL     1       1.729   2.501  19.201  0.00  0.00    +0.000 A 
ATOM     20  F   UNL     1       1.465   1.308  18.652  0.00  0.00    +0.000 F 
ATOM     21  C   UNL     1       2.987   3.067  19.042  0.00  0.00    +0.000 A 
ATOM     22  C   UNL     1       3.244   4.334  19.573  0.00  0.00    +0.000 A 
ENDBRANCH  14  16
ENDBRANCH   5  14
TORSDOF 2
ENDMDL
