MODEL 1
REMARK VINA RESULT:      -7.7      0.000      0.000
REMARK  Name = 
REMARK  10 active torsions:
REMARK  status: ('A' for Active; 'I' for Inactive)
REMARK    1  A    between atoms: C_1  and  O_2
REMARK    2  A    between atoms: O_2  and  C_3
REMARK    3  A    between atoms: C_7  and  C_8
REMARK    4  A    between atoms: N_9  and  C_10
REMARK    5  A    between atoms: C_12  and  C_13
REMARK    6  A    between atoms: C_13  and  C_14
REMARK    7  A    between atoms: C_13  and  C_15
REMARK    8  A    between atoms: C_16  and  O_17
REMARK    9  A    between atoms: C_19  and  C_20
REMARK   10  A    between atoms: C_21  and  O_22
REMARK                            x       y       z     vdW  Elec       q    Type
REMARK                         _______ _______ _______ _____ _____    ______ ____
ROOT
ATOM      1  C   UNL     1       2.359   8.002  18.551  0.00  0.00    +0.000 C 
ATOM      2  N   UNL     1       2.453   6.754  18.888  0.00  0.00    +0.000 NA
ENDROOT
BRANCH   2   3
ATOM      3  C   UNL     1       3.428   5.941  18.288  0.00  0.00    +0.000 A 
ATOM      4  C   UNL     1       4.780   6.314  18.243  0.00  0.00    +0.000 A 
ATOM      5  C   UNL     1       5.768   5.508  17.643  0.00  0.00    +0.000 A 
ATOM      6  C   UNL     1       5.336   4.334  17.017  0.00  0.00    +0.000 A 
ATOM      7  C   UNL     1       3.989   3.959  17.026  0.00  0.00    +0.000 A 
ATOM      8  C   UNL     1       3.026   4.752  17.661  0.00  0.00    +0.000 A 
ATOM      9  C   UNL     1       1.585   4.325  17.660  0.00  0.00    +0.000 C 
BRANCH   5  10
ATOM     10  C   UNL     1       7.211   5.966  17.786  0.00  0.00    +0.000 C 
ATOM     11  C   UNL     1       7.399   7.426  17.365  0.00  0.00    +0.000 C 
ATOM     12  C   UNL     1       7.817   5.680  19.161  0.00  0.00    +0.000 C 
ENDBRANCH   5  10
BRANCH   6  13
ATOM     13  O   UNL     1       6.163   3.467  16.363  0.00  0.00    +0.000 OA
ATOM     14  H   UNL     1       7.082   3.734  16.499  0.00  0.00    +0.000 HD
ENDBRANCH   6  13
ENDBRANCH   2   3
BRANCH   1  19
ATOM     15  C   UNL     1       0.130   9.656  21.143  0.00  0.00    +0.000 A 
ATOM     16  C   UNL     1      -0.563  10.546  20.309  0.00  0.00    +0.000 A 
ATOM     17  C   UNL     1      -0.311  10.603  18.936  0.00  0.00    +0.000 A 
ATOM     18  C   UNL     1       0.648   9.766  18.374  0.00  0.00    +0.000 A 
ATOM     19  C   UNL     1       1.346   8.872  19.191  0.00  0.00    +0.000 A 
ATOM     20  C   UNL     1       1.093   8.812  20.574  0.00  0.00    +0.000 A 
BRANCH  15  22
ATOM     21  C   UNL     1      -1.048  10.858  22.848  0.00  0.00    +0.000 C 
ATOM     22  O   UNL     1      -0.256   9.745  22.454  0.00  0.00    +0.000 OA
ENDBRANCH  15  22
BRANCH  20  23
ATOM     23  O   UNL     1       1.798   7.943  21.369  0.00  0.00    +0.000 OA
ATOM     24  H   UNL     1       2.708   8.305  21.475  0.00  0.00    +0.000 HD
ENDBRANCH  20  23
ENDBRANCH   1  19
TORSDOF 6
ENDMDL
MODEL 2
REMARK VINA RESULT:      -7.3      1.337      1.834
REMARK  Name = 
REMARK  10 active torsions:
REMARK  status: ('A' for Active; 'I' for Inactive)
REMARK    1  A    between atoms: C_1  and  O_2
REMARK    2  A    between atoms: O_2  and  C_3
REMARK    3  A    between atoms: C_7  and  C_8
REMARK    4  A    between atoms: N_9  and  C_10
REMARK    5  A    between atoms: C_12  and  C_13
REMARK    6  A    between atoms: C_13  and  C_14
REMARK    7  A    between atoms: C_13  and  C_15
REMARK    8  A    between atoms: C_16  and  O_17
REMARK    9  A    between atoms: C_19  and  C_20
REMARK   10  A    between atoms: C_21  and  O_22
REMARK                            x       y       z     vdW  Elec       q    Type
REMARK                         _______ _______ _______ _____ _____    ______ ____
ROOT
ATOM      1  C   UNL     1       2.384   7.834  18.911  0.00  0.00    +0.000 C 
ATOM      2  N   UNL     1       2.540   6.574  19.174  0.00  0.00    +0.000 NA
ENDROOT
BRANCH   2   3
ATOM      3  C   UNL     1       3.486   5.823  18.458  0.00  0.00    +0.000 A 
ATOM      4  C   UNL     1       4.837   6.197  18.395  0.00  0.00    +0.000 A 
ATOM      5  C   UNL     1       5.796   5.454  17.679  0.00  0.00    +0.000 A 
ATOM      6  C   UNL     1       5.334   4.349  16.956  0.00  0.00    +0.000 A 
ATOM      7  C   UNL     1       3.987   3.977  16.982  0.00  0.00    +0.000 A 
ATOM      8  C   UNL     1       3.054   4.704  17.732  0.00  0.00    +0.000 A 
ATOM      9  C   UNL     1       1.611   4.280  17.746  0.00  0.00    +0.000 C 
BRANCH   5  10
ATOM     10  C   UNL     1       7.246   5.894  17.809  0.00  0.00    +0.000 C 
ATOM     11  C   UNL     1       7.463   7.325  17.311  0.00  0.00    +0.000 C 
ATOM     12  C   UNL     1       7.836   5.673  19.202  0.00  0.00    +0.000 C 
ENDBRANCH   5  10
BRANCH   6  13
ATOM     13  O   UNL     1       6.129   3.551  16.187  0.00  0.00    +0.000 OA
ATOM     14  H   UNL     1       6.989   3.442  16.617  0.00  0.00    +0.000 HD
ENDBRANCH   6  13
ENDBRANCH   2   3
BRANCH   1  19
ATOM     15  C   UNL     1      -0.228  10.432  19.831  0.00  0.00    +0.000 A 
ATOM     16  C   UNL     1      -0.429  10.084  21.175  0.00  0.00    +0.000 A 
ATOM     17  C   UNL     1       0.271   9.029  21.765  0.00  0.00    +0.000 A 
ATOM     18  C   UNL     1       1.187   8.300  21.013  0.00  0.00    +0.000 A 
ATOM     19  C   UNL     1       1.402   8.637  19.674  0.00  0.00    +0.000 A 
ATOM     20  C   UNL     1       0.698   9.699  19.077  0.00  0.00    +0.000 A 
BRANCH  15  22
ATOM     21  C   UNL     1      -0.428  12.792  19.465  0.00  0.00    +0.000 C 
ATOM     22  O   UNL     1      -1.001  11.491  19.434  0.00  0.00    +0.000 OA
ENDBRANCH  15  22
BRANCH  20  23
ATOM     23  O   UNL     1       0.903  10.009  17.755  0.00  0.00    +0.000 OA
ATOM     24  H   UNL     1       0.359   9.391  17.215  0.00  0.00    +0.000 HD
ENDBRANCH  20  23
ENDBRANCH   1  19
TORSDOF 6
ENDMDL
MODEL 3
REMARK VINA RESULT:      -7.2      1.327      1.682
REMARK  Name = 
REMARK  10 active torsions:
REMARK  status: ('A' for Active; 'I' for Inactive)
REMARK    1  A    between atoms: C_1  and  O_2
REMARK    2  A    between atoms: O_2  and  C_3
REMARK    3  A    between atoms: C_7  and  C_8
REMARK    4  A    between atoms: N_9  and  C_10
REMARK    5  A    between atoms: C_12  and  C_13
REMARK    6  A    between atoms: C_13  and  C_14
REMARK    7  A    between atoms: C_13  and  C_15
REMARK    8  A    between atoms: C_16  and  O_17
REMARK    9  A    between atoms: C_19  and  C_20
REMARK   10  A    between atoms: C_21  and  O_22
REMARK                            x       y       z     vdW  Elec       q    Type
REMARK                         _______ _______ _______ _____ _____    ______ ____
ROOT
ATOM      1  C   UNL     1       2.117   7.829  19.042  0.00  0.00    +0.000 C 
ATOM      2  N   UNL     1       1.887   6.652  19.533  0.00  0.00    +0.000 NA
ENDROOT
BRANCH   2   3
ATOM      3  C   UNL     1       2.572   5.537  19.025  0.00  0.00    +0.000 A 
ATOM      4  C   UNL     1       3.551   5.659  18.027  0.00  0.00    +0.000 A 
ATOM      5  C   UNL     1       4.245   4.548  17.507  0.00  0.00    +0.000 A 
ATOM      6  C   UNL     1       3.866   3.286  17.977  0.00  0.00    +0.000 A 
ATOM      7  C   UNL     1       2.873   3.141  18.950  0.00  0.00    +0.000 A 
ATOM      8  C   UNL     1       2.221   4.259  19.485  0.00  0.00    +0.000 A 
ATOM      9  C   UNL     1       1.159   4.077  20.533  0.00  0.00    +0.000 C 
BRANCH   5  10
ATOM     10  C   UNL     1       5.374   4.837  16.531  0.00  0.00    +0.000 C 
ATOM     11  C   UNL     1       5.212   6.195  15.844  0.00  0.00    +0.000 C 
ATOM     12  C   UNL     1       6.770   4.656  17.130  0.00  0.00    +0.000 C 
ENDBRANCH   5  10
BRANCH   6  13
ATOM     13  O   UNL     1       4.416   2.113  17.548  0.00  0.00    +0.000 OA
ATOM     14  H   UNL     1       4.008   1.854  16.710  0.00  0.00    +0.000 HD
ENDBRANCH   6  13
ENDBRANCH   2   3
BRANCH   1  19
ATOM     15  C   UNL     1       0.521  10.305  21.438  0.00  0.00    +0.000 A 
ATOM     16  C   UNL     1       0.092  11.269  20.513  0.00  0.00    +0.000 A 
ATOM     17  C   UNL     1       0.316  11.114  19.143  0.00  0.00    +0.000 A 
ATOM     18  C   UNL     1       0.981   9.984  18.676  0.00  0.00    +0.000 A 
ATOM     19  C   UNL     1       1.412   9.013  19.583  0.00  0.00    +0.000 A 
ATOM     20  C   UNL     1       1.188   9.168  20.964  0.00  0.00    +0.000 A 
BRANCH  15  22
ATOM     21  C   UNL     1      -1.107  11.091  23.010  0.00  0.00    +0.000 C 
ATOM     22  O   UNL     1       0.209  10.633  22.731  0.00  0.00    +0.000 OA
ENDBRANCH  15  22
BRANCH  20  23
ATOM     23  O   UNL     1       1.632   8.216  21.848  0.00  0.00    +0.000 OA
ATOM     24  H   UNL     1       1.795   7.389  21.340  0.00  0.00    +0.000 HD
ENDBRANCH  20  23
ENDBRANCH   1  19
TORSDOF 6
ENDMDL
MODEL 4
REMARK VINA RESULT:      -7.0      2.060      2.657
REMARK  Name = 
REMARK  10 active torsions:
REMARK  status: ('A' for Active; 'I' for Inactive)
REMARK    1  A    between atoms: C_1  and  O_2
REMARK    2  A    between atoms: O_2  and  C_3
REMARK    3  A    between atoms: C_7  and  C_8
REMARK    4  A    between atoms: N_9  and  C_10
REMARK    5  A    between atoms: C_12  and  C_13
REMARK    6  A    between atoms: C_13  and  C_14
REMARK    7  A    between atoms: C_13  and  C_15
REMARK    8  A    between atoms: C_16  and  O_17
REMARK    9  A    between atoms: C_19  and  C_20
REMARK   10  A    between atoms: C_21  and  O_22
REMARK                            x       y       z     vdW  Elec       q    Type
REMARK                         _______ _______ _______ _____ _____    ______ ____
ROOT
ATOM      1  C   UNL     1       1.985   7.849  18.841  0.00  0.00    +0.000 C 
ATOM      2  N   UNL     1       2.384   6.909  19.639  0.00  0.00    +0.000 NA
ENDROOT
BRANCH   2   3
ATOM      3  C   UNL     1       2.921   5.724  19.111  0.00  0.00    +0.000 A 
ATOM      4  C   UNL     1       3.895   5.737  18.100  0.00  0.00    +0.000 A 
ATOM      5  C   UNL     1       4.441   4.557  17.559  0.00  0.00    +0.000 A 
ATOM      6  C   UNL     1       3.917   3.344  18.021  0.00  0.00    +0.000 A 
ATOM      7  C   UNL     1       2.926   3.311  19.007  0.00  0.00    +0.000 A 
ATOM      8  C   UNL     1       2.423   4.493  19.562  0.00  0.00    +0.000 A 
ATOM      9  C   UNL     1       1.360   4.430  20.623  0.00  0.00    +0.000 C 
BRANCH   5  10
ATOM     10  C   UNL     1       5.585   4.717  16.570  0.00  0.00    +0.000 C 
ATOM     11  C   UNL     1       5.400   5.937  15.664  0.00  0.00    +0.000 C 
ATOM     12  C   UNL     1       6.970   4.683  17.217  0.00  0.00    +0.000 C 
ENDBRANCH   5  10
BRANCH   6  13
ATOM     13  O   UNL     1       4.314   2.118  17.572  0.00  0.00    +0.000 OA
ATOM     14  H   UNL     1       4.847   1.683  18.253  0.00  0.00    +0.000 HD
ENDBRANCH   6  13
ENDBRANCH   2   3
BRANCH   1  19
ATOM     15  C   UNL     1       0.882  11.466  19.188  0.00  0.00    +0.000 A 
ATOM     16  C   UNL     1       0.373  11.421  20.494  0.00  0.00    +0.000 A 
ATOM     17  C   UNL     1       0.391  10.242  21.242  0.00  0.00    +0.000 A 
ATOM     18  C   UNL     1       0.920   9.080  20.689  0.00  0.00    +0.000 A 
ATOM     19  C   UNL     1       1.434   9.108  19.390  0.00  0.00    +0.000 A 
ATOM     20  C   UNL     1       1.417  10.295  18.634  0.00  0.00    +0.000 A 
BRANCH  15  22
ATOM     21  C   UNL     1      -0.515  13.178  18.262  0.00  0.00    +0.000 C 
ATOM     22  O   UNL     1       0.779  12.707  18.618  0.00  0.00    +0.000 OA
ENDBRANCH  15  22
BRANCH  20  23
ATOM     23  O   UNL     1       1.908  10.306  17.352  0.00  0.00    +0.000 OA
ATOM     24  H   UNL     1       2.891  10.294  17.408  0.00  0.00    +0.000 HD
ENDBRANCH  20  23
ENDBRANCH   1  19
TORSDOF 6
ENDMDL
MODEL 5
REMARK VINA RESULT:      -7.0      1.379      1.745
REMARK  Name = 
REMARK  10 active torsions:
REMARK  status: ('A' for Active; 'I' for Inactive)
REMARK    1  A    between atoms: C_1  and  O_2
REMARK    2  A    between atoms: O_2  and  C_3
REMARK    3  A    between atoms: C_7  and  C_8
REMARK    4  A    between atoms: N_9  and  C_10
REMARK    5  A    between atoms: C_12  and  C_13
REMARK    6  A    between atoms: C_13  and  C_14
REMARK    7  A    between atoms: C_13  and  C_15
REMARK    8  A    between atoms: C_16  and  O_17
REMARK    9  A    between atoms: C_19  and  C_20
REMARK   10  A    between atoms: C_21  and  O_22
REMARK                            x       y       z     vdW  Elec       q    Type
REMARK                         _______ _______ _______ _____ _____    ______ ____
ROOT
ATOM      1  C   UNL     1       1.879   8.440  19.210  0.00  0.00    +0.000 C 
ATOM      2  N   UNL     1       2.047   7.290  19.784  0.00  0.00    +0.000 NA
ENDROOT
BRANCH   2   3
ATOM      3  C   UNL     1       2.973   6.375  19.257  0.00  0.00    +0.000 A 
ATOM      4  C   UNL     1       3.786   6.691  18.158  0.00  0.00    +0.000 A 
ATOM      5  C   UNL     1       4.718   5.783  17.619  0.00  0.00    +0.000 A 
ATOM      6  C   UNL     1       4.754   4.502  18.180  0.00  0.00    +0.000 A 
ATOM      7  C   UNL     1       3.932   4.157  19.257  0.00  0.00    +0.000 A 
ATOM      8  C   UNL     1       3.039   5.086  19.807  0.00  0.00    +0.000 A 
ATOM      9  C   UNL     1       2.169   4.692  20.967  0.00  0.00    +0.000 C 
BRANCH   5  10
ATOM     10  C   UNL     1       5.630   6.302  16.518  0.00  0.00    +0.000 C 
ATOM     11  C   UNL     1       7.085   6.418  16.980  0.00  0.00    +0.000 C 
ATOM     12  C   UNL     1       5.502   5.541  15.199  0.00  0.00    +0.000 C 
ENDBRANCH   5  10
BRANCH   6  13
ATOM     13  O   UNL     1       5.574   3.500  17.748  0.00  0.00    +0.000 OA
ATOM     14  H   UNL     1       5.766   3.624  16.808  0.00  0.00    +0.000 HD
ENDBRANCH   6  13
ENDBRANCH   2   3
BRANCH   1  19
ATOM     15  C   UNL     1      -0.108  10.571  21.645  0.00  0.00    +0.000 A 
ATOM     16  C   UNL     1      -0.902  11.277  20.730  0.00  0.00    +0.000 A 
ATOM     17  C   UNL     1      -0.793  11.062  19.354  0.00  0.00    +0.000 A 
ATOM     18  C   UNL     1       0.122  10.132  18.871  0.00  0.00    +0.000 A 
ATOM     19  C   UNL     1       0.919   9.418  19.769  0.00  0.00    +0.000 A 
ATOM     20  C   UNL     1       0.810   9.632  21.156  0.00  0.00    +0.000 A 
BRANCH  15  22
ATOM     21  C   UNL     1      -1.391  11.861  23.204  0.00  0.00    +0.000 C 
ATOM     22  O   UNL     1      -0.359  10.917  22.947  0.00  0.00    +0.000 OA
ENDBRANCH  15  22
BRANCH  20  23
ATOM     23  O   UNL     1       1.611   8.938  22.028  0.00  0.00    +0.000 OA
ATOM     24  H   UNL     1       1.153   8.911  22.899  0.00  0.00    +0.000 HD
ENDBRANCH  20  23
ENDBRANCH   1  19
TORSDOF 6
ENDMDL
MODEL 6
REMARK VINA RESULT:      -7.0      2.313      3.986
REMARK  Name = 
REMARK  10 active torsions:
REMARK  status: ('A' for Active; 'I' for Inactive)
REMARK    1  A    between atoms: C_1  and  O_2
REMARK    2  A    between atoms: O_2  and  C_3
REMARK    3  A    between atoms: C_7  and  C_8
REMARK    4  A    between atoms: N_9  and  C_10
REMARK    5  A    between atoms: C_12  and  C_13
REMARK    6  A    between atoms: C_13  and  C_14
REMARK    7  A    between atoms: C_13  and  C_15
REMARK    8  A    between atoms: C_16  and  O_17
REMARK    9  A    between atoms: C_19  and  C_20
REMARK   10  A    between atoms: C_21  and  O_22
REMARK                            x       y       z     vdW  Elec       q    Type
REMARK                         _______ _______ _______ _____ _____    ______ ____
ROOT
ATOM      1  C   UNL     1       1.671   7.757  19.485  0.00  0.00    +0.000 C 
ATOM      2  N   UNL     1       2.711   7.461  18.771  0.00  0.00    +0.000 NA
ENDROOT
BRANCH   2   3
ATOM      3  C   UNL     1       3.022   6.117  18.514  0.00  0.00    +0.000 A 
ATOM      4  C   UNL     1       2.382   5.065  19.188  0.00  0.00    +0.000 A 
ATOM      5  C   UNL     1       2.686   3.711  18.942  0.00  0.00    +0.000 A 
ATOM      6  C   UNL     1       3.721   3.447  18.038  0.00  0.00    +0.000 A 
ATOM      7  C   UNL     1       4.390   4.481  17.378  0.00  0.00    +0.000 A 
ATOM      8  C   UNL     1       4.048   5.820  17.605  0.00  0.00    +0.000 A 
ATOM      9  C   UNL     1       4.781   6.914  16.879  0.00  0.00    +0.000 C 
BRANCH   5  10
ATOM     10  C   UNL     1       1.822   2.673  19.640  0.00  0.00    +0.000 C 
ATOM     11  C   UNL     1       1.404   3.118  21.044  0.00  0.00    +0.000 C 
ATOM     12  C   UNL     1       0.631   2.199  18.807  0.00  0.00    +0.000 C 
ENDBRANCH   5  10
BRANCH   6  13
ATOM     13  O   UNL     1       4.157   2.193  17.720  0.00  0.00    +0.000 OA
ATOM     14  H   UNL     1       5.121   2.199  17.638  0.00  0.00    +0.000 HD
ENDBRANCH   6  13
ENDBRANCH   2   3
BRANCH   1  19
ATOM     15  C   UNL     1       1.100  11.483  19.028  0.00  0.00    +0.000 A 
ATOM     16  C   UNL     1       0.644  11.801  20.316  0.00  0.00    +0.000 A 
ATOM     17  C   UNL     1       0.527  10.824  21.308  0.00  0.00    +0.000 A 
ATOM     18  C   UNL     1       0.866   9.505  21.022  0.00  0.00    +0.000 A 
ATOM     19  C   UNL     1       1.325   9.173  19.745  0.00  0.00    +0.000 A 
ATOM     20  C   UNL     1       1.443  10.155  18.744  0.00  0.00    +0.000 A 
BRANCH  15  22
ATOM     21  C   UNL     1       2.344  13.339  18.163  0.00  0.00    +0.000 C 
ATOM     22  O   UNL     1       1.147  12.571  18.197  0.00  0.00    +0.000 OA
ENDBRANCH  15  22
BRANCH  20  23
ATOM     23  O   UNL     1       1.877   9.813  17.487  0.00  0.00    +0.000 OA
ATOM     24  H   UNL     1       1.090   9.786  16.896  0.00  0.00    +0.000 HD
ENDBRANCH  20  23
ENDBRANCH   1  19
TORSDOF 6
ENDMDL
MODEL 7
REMARK VINA RESULT:      -6.9      1.726      3.401
REMARK  Name = 
REMARK  10 active torsions:
REMARK  status: ('A' for Active; 'I' for Inactive)
REMARK    1  A    between atoms: C_1  and  O_2
REMARK    2  A    between atoms: O_2  and  C_3
REMARK    3  A    between atoms: C_7  and  C_8
REMARK    4  A    between atoms: N_9  and  C_10
REMARK    5  A    between atoms: C_12  and  C_13
REMARK    6  A    between atoms: C_13  and  C_14
REMARK    7  A    between atoms: C_13  and  C_15
REMARK    8  A    between atoms: C_16  and  O_17
REMARK    9  A    between atoms: C_19  and  C_20
REMARK   10  A    between atoms: C_21  and  O_22
REMARK                            x       y       z     vdW  Elec       q    Type
REMARK                         _______ _______ _______ _____ _____    ______ ____
ROOT
ATOM      1  C   UNL     1       1.838   7.819  19.878  0.00  0.00    +0.000 C 
ATOM      2  N   UNL     1       2.242   7.395  18.721  0.00  0.00    +0.000 NA
ENDROOT
BRANCH   2   3
ATOM      3  C   UNL     1       2.751   6.093  18.594  0.00  0.00    +0.000 A 
ATOM      4  C   UNL     1       2.155   4.996  19.235  0.00  0.00    +0.000 A 
ATOM      5  C   UNL     1       2.657   3.685  19.117  0.00  0.00    +0.000 A 
ATOM      6  C   UNL     1       3.837   3.520  18.384  0.00  0.00    +0.000 A 
ATOM      7  C   UNL     1       4.462   4.604  17.761  0.00  0.00    +0.000 A 
ATOM      8  C   UNL     1       3.928   5.894  17.855  0.00  0.00    +0.000 A 
ATOM      9  C   UNL     1       4.617   7.043  17.173  0.00  0.00    +0.000 C 
BRANCH   5  10
ATOM     10  C   UNL     1       1.836   2.573  19.751  0.00  0.00    +0.000 C 
ATOM     11  C   UNL     1       1.425   2.905  21.188  0.00  0.00    +0.000 C 
ATOM     12  C   UNL     1       0.647   2.122  18.901  0.00  0.00    +0.000 C 
ENDBRANCH   5  10
BRANCH   6  13
ATOM     13  O   UNL     1       4.467   2.322  18.207  0.00  0.00    +0.000 OA
ATOM     14  H   UNL     1       4.064   1.659  18.785  0.00  0.00    +0.000 HD
ENDBRANCH   6  13
ENDBRANCH   2   3
BRANCH   1  19
ATOM     15  C   UNL     1       0.398  11.002  21.364  0.00  0.00    +0.000 A 
ATOM     16  C   UNL     1       0.259  11.757  20.190  0.00  0.00    +0.000 A 
ATOM     17  C   UNL     1       0.624  11.239  18.945  0.00  0.00    +0.000 A 
ATOM     18  C   UNL     1       1.141   9.950  18.857  0.00  0.00    +0.000 A 
ATOM     19  C   UNL     1       1.283   9.184  20.018  0.00  0.00    +0.000 A 
ATOM     20  C   UNL     1       0.915   9.704  21.273  0.00  0.00    +0.000 A 
BRANCH  15  22
ATOM     21  C   UNL     1      -1.360  11.512  22.910  0.00  0.00    +0.000 C 
ATOM     22  O   UNL     1      -0.014  11.678  22.482  0.00  0.00    +0.000 OA
ENDBRANCH  15  22
BRANCH  20  23
ATOM     23  O   UNL     1       1.077   8.949  22.408  0.00  0.00    +0.000 OA
ATOM     24  H   UNL     1       1.387   9.549  23.125  0.00  0.00    +0.000 HD
ENDBRANCH  20  23
ENDBRANCH   1  19
TORSDOF 6
ENDMDL
MODEL 8
REMARK VINA RESULT:      -6.9      2.221      3.764
REMARK  Name = 
REMARK  10 active torsions:
REMARK  status: ('A' for Active; 'I' for Inactive)
REMARK    1  A    between atoms: C_1  and  O_2
REMARK    2  A    between atoms: O_2  and  C_3
REMARK    3  A    between atoms: C_7  and  C_8
REMARK    4  A    between atoms: N_9  and  C_10
REMARK    5  A    between atoms: C_12  and  C_13
REMARK    6  A    between atoms: C_13  and  C_14
REMARK    7  A    between atoms: C_13  and  C_15
REMARK    8  A    between atoms: C_16  and  O_17
REMARK    9  A    between atoms: C_19  and  C_20
REMARK   10  A    between atoms: C_21  and  O_22
REMARK                            x       y       z     vdW  Elec       q    Type
REMARK                         _______ _______ _______ _____ _____    ______ ____
ROOT
ATOM      1  C   UNL     1       1.008   7.712  20.800  0.00  0.00    +0.000 C 
ATOM      2  N   UNL     1       1.907   7.781  19.869  0.00  0.00    +0.000 NA
ENDROOT
BRANCH   2   3
ATOM      3  C   UNL     1       2.509   6.606  19.391  0.00  0.00    +0.000 A 
ATOM      4  C   UNL     1       2.371   5.378  20.055  0.00  0.00    +0.000 A 
ATOM      5  C   UNL     1       2.971   4.192  19.588  0.00  0.00    +0.000 A 
ATOM      6  C   UNL     1       3.787   4.296  18.456  0.00  0.00    +0.000 A 
ATOM      7  C   UNL     1       3.961   5.517  17.797  0.00  0.00    +0.000 A 
ATOM      8  C   UNL     1       3.325   6.678  18.252  0.00  0.00    +0.000 A 
ATOM      9  C   UNL     1       3.526   7.977  17.523  0.00  0.00    +0.000 C 
BRANCH   5  10
ATOM     10  C   UNL     1       2.626   2.908  20.326  0.00  0.00    +0.000 C 
ATOM     11  C   UNL     1       2.138   3.174  21.752  0.00  0.00    +0.000 C 
ATOM     12  C   UNL     1       1.680   1.987  19.554  0.00  0.00    +0.000 C 
ENDBRANCH   5  10
BRANCH   6  13
ATOM     13  O   UNL     1       4.465   3.249  17.902  0.00  0.00    +0.000 OA
ATOM     14  H   UNL     1       3.863   2.734  17.347  0.00  0.00    +0.000 HD
ENDBRANCH   6  13
ENDBRANCH   2   3
BRANCH   1  19
ATOM     15  C   UNL     1      -0.630  11.135  20.934  0.00  0.00    +0.000 A 
ATOM     16  C   UNL     1      -0.875  11.213  22.313  0.00  0.00    +0.000 A 
ATOM     17  C   UNL     1      -0.513  10.177  23.177  0.00  0.00    +0.000 A 
ATOM     18  C   UNL     1       0.101   9.037  22.669  0.00  0.00    +0.000 A 
ATOM     19  C   UNL     1       0.355   8.944  21.298  0.00  0.00    +0.000 A 
ATOM     20  C   UNL     1      -0.009   9.987  20.425  0.00  0.00    +0.000 A 
BRANCH  15  22
ATOM     21  C   UNL     1      -2.388  12.268  19.766  0.00  0.00    +0.000 C 
ATOM     22  O   UNL     1      -1.053  12.246  20.254  0.00  0.00    +0.000 OA
ENDBRANCH  15  22
BRANCH  20  23
ATOM     23  O   UNL     1       0.229   9.876  19.078  0.00  0.00    +0.000 OA
ATOM     24  H   UNL     1       0.906  10.549  18.837  0.00  0.00    +0.000 HD
ENDBRANCH  20  23
ENDBRANCH   1  19
TORSDOF 6
ENDMDL
MODEL 9
REMARK VINA RESULT:      -6.8      3.765      5.940
REMARK  Name = 
REMARK  10 active torsions:
REMARK  status: ('A' for Active; 'I' for Inactive)
REMARK    1  A    between atoms: C_1  and  O_2
REMARK    2  A    between atoms: O_2  and  C_3
REMARK    3  A    between atoms: C_7  and  C_8
REMARK    4  A    between atoms: N_9  and  C_10
REMARK    5  A    between atoms: C_12  and  C_13
REMARK    6  A    between atoms: C_13  and  C_14
REMARK    7  A    between atoms: C_13  and  C_15
REMARK    8  A    between atoms: C_16  and  O_17
REMARK    9  A    between atoms: C_19  and  C_20
REMARK   10  A    between atoms: C_21  and  O_22
REMARK                            x       y       z     vdW  Elec       q    Type
REMARK                         _______ _______ _______ _____ _____    ______ ____
ROOT
ATOM      1  C   UNL     1       3.958   5.054  16.887  0.00  0.00    +0.000 C 
ATOM      2  N   UNL     1       4.874   4.193  16.569  0.00  0.00    +0.000 NA
ENDROOT
BRANCH   2   3
ATOM      3  C   UNL     1       5.604   4.356  15.381  0.00  0.00    +0.000 A 
ATOM      4  C   UNL     1       5.246   3.700  14.193  0.00  0.00    +0.000 A 
ATOM      5  C   UNL     1       5.971   3.853  12.995  0.00  0.00    +0.000 A 
ATOM      6  C   UNL     1       7.126   4.640  13.048  0.00  0.00    +0.000 A 
ATOM      7  C   UNL     1       7.516   5.279  14.229  0.00  0.00    +0.000 A 
ATOM      8  C   UNL     1       6.762   5.148  15.401  0.00  0.00    +0.000 A 
ATOM      9  C   UNL     1       7.201   5.848  16.657  0.00  0.00    +0.000 C 
BRANCH   5  10
ATOM     10  C   UNL     1       5.393   3.195  11.752  0.00  0.00    +0.000 C 
ATOM     11  C   UNL     1       5.855   1.744  11.598  0.00  0.00    +0.000 C 
ATOM     12  C   UNL     1       3.875   3.333  11.628  0.00  0.00    +0.000 C 
ENDBRANCH   5  10
BRANCH   6  13
ATOM     13  O   UNL     1       7.954   4.857  11.985  0.00  0.00    +0.000 OA
ATOM     14  H   UNL     1       8.849   5.035  12.305  0.00  0.00    +0.000 HD
ENDBRANCH   6  13
ENDBRANCH   2   3
BRANCH   1  19
ATOM     15  C   UNL     1       2.050   3.533  19.796  0.00  0.00    +0.000 A 
ATOM     16  C   UNL     1       1.781   4.702  20.524  0.00  0.00    +0.000 A 
ATOM     17  C   UNL     1       2.209   5.953  20.076  0.00  0.00    +0.000 A 
ATOM     18  C   UNL     1       2.922   6.054  18.885  0.00  0.00    +0.000 A 
ATOM     19  C   UNL     1       3.196   4.900  18.146  0.00  0.00    +0.000 A 
ATOM     20  C   UNL     1       2.765   3.638  18.596  0.00  0.00    +0.000 A 
BRANCH  15  22
ATOM     21  C   UNL     1       1.408   2.402  21.808  0.00  0.00    +0.000 C 
ATOM     22  O   UNL     1       1.549   2.407  20.393  0.00  0.00    +0.000 OA
ENDBRANCH  15  22
BRANCH  20  23
ATOM     23  O   UNL     1       3.056   2.509  17.871  0.00  0.00    +0.000 OA
ATOM     24  H   UNL     1       3.773   2.738  17.236  0.00  0.00    +0.000 HD
ENDBRANCH  20  23
ENDBRANCH   1  19
TORSDOF 6
ENDMDL
