MODEL 1
REMARK VINA RESULT:      -7.7      0.000      0.000
REMARK  Name = 
REMARK  2 active torsions:
REMARK  status: ('A' for Active; 'I' for Inactive)
REMARK    1  A    between atoms: N_1  and  C_2
REMARK    2  A    between atoms: C_8  and  C_9
REMARK                            x       y       z     vdW  Elec       q    Type
REMARK                         _______ _______ _______ _____ _____    ______ ____
ROOT
ATOM      1  C   UNL     1       6.071   4.847  17.658  0.00  0.00    +0.000 A 
ATOM      2  N   UNL     1       5.217   4.753  16.637  0.00  0.00    +0.000 NA
ATOM      3  C   UNL     1       5.137   5.826  15.846  0.00  0.00    +0.000 A 
ATOM      4  N   UNL     1       5.812   6.969  15.992  0.00  0.00    +0.000 NA
ATOM      5  C   UNL     1       6.649   7.057  17.017  0.00  0.00    +0.000 A 
ATOM      6  N   UNL     1       7.291   8.213  17.195  0.00  0.00    +0.000 NA
ATOM      7  C   UNL     1       8.142   8.366  18.240  0.00  0.00    +0.000 A 
ATOM      8  C   UNL     1       8.431   7.319  19.108  0.00  0.00    +0.000 A 
ATOM      9  C   UNL     1       7.758   6.124  18.946  0.00  0.00    +0.000 A 
ATOM     10  C   UNL     1       6.838   5.989  17.895  0.00  0.00    +0.000 A 
ENDROOT
BRANCH   7  11
ATOM     11  C   UNL     1       8.681   9.717  18.446  0.00  0.00    +0.000 A 
ATOM     12  C   UNL     1       9.623  10.032  19.425  0.00  0.00    +0.000 A 
ATOM     13  C   UNL     1      10.116  11.340  19.545  0.00  0.00    +0.000 A 
ATOM     14  C   UNL     1       9.658  12.343  18.696  0.00  0.00    +0.000 A 
ATOM     15  N   UNL     1      10.104  13.638  18.726  0.00  0.00    +0.000 N 
ATOM     16  C   UNL     1       9.192  14.690  18.255  0.00  0.00    +0.000 C 
ATOM     17  C   UNL     1       9.989  15.738  17.472  0.00  0.00    +0.000 C 
ATOM     18  O   UNL     1      11.057  16.278  18.271  0.00  0.00    +0.000 OA
ATOM     19  C   UNL     1      11.960  15.228  18.662  0.00  0.00    +0.000 C 
ATOM     20  C   UNL     1      11.256  14.125  19.479  0.00  0.00    +0.000 C 
ATOM     21  N   UNL     1       8.749  12.046  17.747  0.00  0.00    +0.000 NA
ATOM     22  C   UNL     1       8.307  10.777  17.631  0.00  0.00    +0.000 A 
ENDBRANCH   7  11
BRANCH   1  23
ATOM     23  N   UNL     1       6.096   3.748  18.521  0.00  0.00    +0.000 N 
ATOM     24  H   UNL     1       5.145   3.395  18.597  0.00  0.00    +0.000 HD
ATOM     25  H   UNL     1       6.747   3.031  18.227  0.00  0.00    +0.000 HD
ENDBRANCH   1  23
TORSDOF 2
ENDMDL
MODEL 2
REMARK VINA RESULT:      -7.7      7.098      8.648
REMARK  Name = 
REMARK  2 active torsions:
REMARK  status: ('A' for Active; 'I' for Inactive)
REMARK    1  A    between atoms: N_1  and  C_2
REMARK    2  A    between atoms: C_8  and  C_9
REMARK                            x       y       z     vdW  Elec       q    Type
REMARK                         _______ _______ _______ _____ _____    ______ ____
ROOT
ATOM      1  C   UNL     1       5.140   4.033  18.609  0.00  0.00    +0.000 A 
ATOM      2  N   UNL     1       4.902   2.962  19.368  0.00  0.00    +0.000 NA
ATOM      3  C   UNL     1       3.792   3.011  20.110  0.00  0.00    +0.000 A 
ATOM      4  N   UNL     1       2.924   4.024  20.169  0.00  0.00    +0.000 NA
ATOM      5  C   UNL     1       3.177   5.089  19.420  0.00  0.00    +0.000 A 
ATOM      6  N   UNL     1       2.339   6.123  19.511  0.00  0.00    +0.000 NA
ATOM      7  C   UNL     1       2.561   7.247  18.784  0.00  0.00    +0.000 A 
ATOM      8  C   UNL     1       3.611   7.335  17.877  0.00  0.00    +0.000 A 
ATOM      9  C   UNL     1       4.497   6.279  17.788  0.00  0.00    +0.000 A 
ATOM     10  C   UNL     1       4.292   5.141  18.582  0.00  0.00    +0.000 A 
ENDROOT
BRANCH   7  11
ATOM     11  C   UNL     1       1.679   8.387  19.065  0.00  0.00    +0.000 A 
ATOM     12  C   UNL     1       1.175   9.235  18.079  0.00  0.00    +0.000 A 
ATOM     13  C   UNL     1       0.312  10.289  18.419  0.00  0.00    +0.000 A 
ATOM     14  C   UNL     1      -0.039  10.507  19.747  0.00  0.00    +0.000 A 
ATOM     15  N   UNL     1      -0.893  11.494  20.163  0.00  0.00    +0.000 N 
ATOM     16  C   UNL     1      -0.733  12.011  21.529  0.00  0.00    +0.000 C 
ATOM     17  C   UNL     1      -2.116  12.269  22.138  0.00  0.00    +0.000 C 
ATOM     18  O   UNL     1      -2.883  13.165  21.316  0.00  0.00    +0.000 OA
ATOM     19  C   UNL     1      -3.069  12.599  20.007  0.00  0.00    +0.000 C 
ATOM     20  C   UNL     1      -1.730  12.318  19.295  0.00  0.00    +0.000 C 
ATOM     21  N   UNL     1       0.444   9.692  20.704  0.00  0.00    +0.000 NA
ATOM     22  C   UNL     1       1.250   8.669  20.356  0.00  0.00    +0.000 A 
ENDBRANCH   7  11
BRANCH   1  23
ATOM     23  N   UNL     1       6.339   4.003  17.891  0.00  0.00    +0.000 N 
ATOM     24  H   UNL     1       6.107   3.894  16.907  0.00  0.00    +0.000 HD
ATOM     25  H   UNL     1       6.919   4.815  18.059  0.00  0.00    +0.000 HD
ENDBRANCH   1  23
TORSDOF 2
ENDMDL
MODEL 3
REMARK VINA RESULT:      -7.6      7.748      9.124
REMARK  Name = 
REMARK  2 active torsions:
REMARK  status: ('A' for Active; 'I' for Inactive)
REMARK    1  A    between atoms: N_1  and  C_2
REMARK    2  A    between atoms: C_8  and  C_9
REMARK                            x       y       z     vdW  Elec       q    Type
REMARK                         _______ _______ _______ _____ _____    ______ ____
ROOT
ATOM      1  C   UNL     1       4.086   3.490  19.703  0.00  0.00    +0.000 A 
ATOM      2  N   UNL     1       3.736   2.458  20.474  0.00  0.00    +0.000 NA
ATOM      3  C   UNL     1       2.668   2.651  21.252  0.00  0.00    +0.000 A 
ATOM      4  N   UNL     1       1.942   3.769  21.337  0.00  0.00    +0.000 NA
ATOM      5  C   UNL     1       2.307   4.794  20.577  0.00  0.00    +0.000 A 
ATOM      6  N   UNL     1       1.614   5.928  20.692  0.00  0.00    +0.000 NA
ATOM      7  C   UNL     1       1.958   7.014  19.956  0.00  0.00    +0.000 A 
ATOM      8  C   UNL     1       2.978   6.965  19.013  0.00  0.00    +0.000 A 
ATOM      9  C   UNL     1       3.715   5.803  18.897  0.00  0.00    +0.000 A 
ATOM     10  C   UNL     1       3.390   4.699  19.701  0.00  0.00    +0.000 A 
ENDROOT
BRANCH   7  11
ATOM     11  C   UNL     1       1.242   8.259  20.262  0.00  0.00    +0.000 A 
ATOM     12  C   UNL     1       1.160   9.340  19.384  0.00  0.00    +0.000 A 
ATOM     13  C   UNL     1       0.433  10.488  19.733  0.00  0.00    +0.000 A 
ATOM     14  C   UNL     1      -0.202  10.567  20.968  0.00  0.00    +0.000 A 
ATOM     15  N   UNL     1      -0.952  11.638  21.378  0.00  0.00    +0.000 N 
ATOM     16  C   UNL     1      -1.060  11.888  22.823  0.00  0.00    +0.000 C 
ATOM     17  C   UNL     1      -2.487  12.340  23.153  0.00  0.00    +0.000 C 
ATOM     18  O   UNL     1      -2.853  13.498  22.383  0.00  0.00    +0.000 OA
ATOM     19  C   UNL     1      -2.793  13.197  20.978  0.00  0.00    +0.000 C 
ATOM     20  C   UNL     1      -1.385  12.748  20.535  0.00  0.00    +0.000 C 
ATOM     21  N   UNL     1      -0.128   9.528  21.821  0.00  0.00    +0.000 NA
ATOM     22  C   UNL     1       0.553   8.422  21.457  0.00  0.00    +0.000 A 
ENDBRANCH   7  11
BRANCH   1  23
ATOM     23  N   UNL     1       5.246   3.304  18.946  0.00  0.00    +0.000 N 
ATOM     24  H   UNL     1       6.011   3.128  19.592  0.00  0.00    +0.000 HD
ATOM     25  H   UNL     1       5.152   2.569  18.256  0.00  0.00    +0.000 HD
ENDBRANCH   1  23
TORSDOF 2
ENDMDL
MODEL 4
REMARK VINA RESULT:      -7.5      7.056      8.276
REMARK  Name = 
REMARK  2 active torsions:
REMARK  status: ('A' for Active; 'I' for Inactive)
REMARK    1  A    between atoms: N_1  and  C_2
REMARK    2  A    between atoms: C_8  and  C_9
REMARK                            x       y       z     vdW  Elec       q    Type
REMARK                         _______ _______ _______ _____ _____    ______ ____
ROOT
ATOM      1  C   UNL     1       4.665   3.955  17.132  0.00  0.00    +0.000 A 
ATOM      2  N   UNL     1       5.502   4.160  16.114  0.00  0.00    +0.000 NA
ATOM      3  C   UNL     1       5.635   5.428  15.717  0.00  0.00    +0.000 A 
ATOM      4  N   UNL     1       5.006   6.488  16.231  0.00  0.00    +0.000 NA
ATOM      5  C   UNL     1       4.165   6.272  17.234  0.00  0.00    +0.000 A 
ATOM      6  N   UNL     1       3.498   7.320  17.720  0.00  0.00    +0.000 NA
ATOM      7  C   UNL     1       2.609   7.153  18.731  0.00  0.00    +0.000 A 
ATOM      8  C   UNL     1       2.418   5.919  19.341  0.00  0.00    +0.000 A 
ATOM      9  C   UNL     1       3.088   4.822  18.835  0.00  0.00    +0.000 A 
ATOM     10  C   UNL     1       3.966   4.991  17.753  0.00  0.00    +0.000 A 
ENDROOT
BRANCH   7  11
ATOM     11  C   UNL     1       1.809   8.331  19.093  0.00  0.00    +0.000 A 
ATOM     12  C   UNL     1       1.397   9.297  18.176  0.00  0.00    +0.000 A 
ATOM     13  C   UNL     1       0.608  10.382  18.589  0.00  0.00    +0.000 A 
ATOM     14  C   UNL     1       0.240  10.512  19.925  0.00  0.00    +0.000 A 
ATOM     15  N   UNL     1      -0.548  11.523  20.408  0.00  0.00    +0.000 N 
ATOM     16  C   UNL     1      -0.385  11.907  21.818  0.00  0.00    +0.000 C 
ATOM     17  C   UNL     1      -1.759  12.218  22.420  0.00  0.00    +0.000 C 
ATOM     18  O   UNL     1      -2.435  13.239  21.665  0.00  0.00    +0.000 OA
ATOM     19  C   UNL     1      -2.629  12.803  20.308  0.00  0.00    +0.000 C 
ATOM     20  C   UNL     1      -1.296  12.482  19.600  0.00  0.00    +0.000 C 
ATOM     21  N   UNL     1       0.633   9.582  20.816  0.00  0.00    +0.000 NA
ATOM     22  C   UNL     1       1.369   8.534  20.395  0.00  0.00    +0.000 A 
ENDBRANCH   7  11
BRANCH   1  23
ATOM     23  N   UNL     1       4.477   2.618  17.493  0.00  0.00    +0.000 N 
ATOM     24  H   UNL     1       3.668   2.272  16.983  0.00  0.00    +0.000 HD
ATOM     25  H   UNL     1       5.299   2.048  17.335  0.00  0.00    +0.000 HD
ENDBRANCH   1  23
TORSDOF 2
ENDMDL
MODEL 5
REMARK VINA RESULT:      -7.5      7.082      8.368
REMARK  Name = 
REMARK  2 active torsions:
REMARK  status: ('A' for Active; 'I' for Inactive)
REMARK    1  A    between atoms: N_1  and  C_2
REMARK    2  A    between atoms: C_8  and  C_9
REMARK                            x       y       z     vdW  Elec       q    Type
REMARK                         _______ _______ _______ _____ _____    ______ ____
ROOT
ATOM      1  C   UNL     1       4.642   3.695  17.181  0.00  0.00    +0.000 A 
ATOM      2  N   UNL     1       4.077   2.510  17.418  0.00  0.00    +0.000 NA
ATOM      3  C   UNL     1       2.844   2.546  17.931  0.00  0.00    +0.000 A 
ATOM      4  N   UNL     1       2.146   3.643  18.236  0.00  0.00    +0.000 NA
ATOM      5  C   UNL     1       2.722   4.816  18.009  0.00  0.00    +0.000 A 
ATOM      6  N   UNL     1       2.048   5.914  18.355  0.00  0.00    +0.000 NA
ATOM      7  C   UNL     1       2.598   7.139  18.166  0.00  0.00    +0.000 A 
ATOM      8  C   UNL     1       3.832   7.299  17.546  0.00  0.00    +0.000 A 
ATOM      9  C   UNL     1       4.548   6.170  17.200  0.00  0.00    +0.000 A 
ATOM     10  C   UNL     1       3.997   4.903  17.448  0.00  0.00    +0.000 A 
ENDROOT
BRANCH   7  11
ATOM     11  C   UNL     1       1.854   8.278  18.719  0.00  0.00    +0.000 A 
ATOM     12  C   UNL     1       1.456   9.381  17.964  0.00  0.00    +0.000 A 
ATOM     13  C   UNL     1       0.720  10.421  18.554  0.00  0.00    +0.000 A 
ATOM     14  C   UNL     1       0.391  10.368  19.905  0.00  0.00    +0.000 A 
ATOM     15  N   UNL     1      -0.345  11.324  20.553  0.00  0.00    +0.000 N 
ATOM     16  C   UNL     1      -0.132  11.493  21.998  0.00  0.00    +0.000 C 
ATOM     17  C   UNL     1      -1.477  11.760  22.680  0.00  0.00    +0.000 C 
ATOM     18  O   UNL     1      -2.132  12.903  22.102  0.00  0.00    +0.000 OA
ATOM     19  C   UNL     1      -2.377  12.676  20.703  0.00  0.00    +0.000 C 
ATOM     20  C   UNL     1      -1.076  12.415  19.916  0.00  0.00    +0.000 C 
ATOM     21  N   UNL     1       0.771   9.305  20.640  0.00  0.00    +0.000 NA
ATOM     22  C   UNL     1       1.455   8.304  20.049  0.00  0.00    +0.000 A 
ENDBRANCH   7  11
BRANCH   1  23
ATOM     23  N   UNL     1       5.958   3.647  16.712  0.00  0.00    +0.000 N 
ATOM     24  H   UNL     1       6.554   4.056  17.427  0.00  0.00    +0.000 HD
ATOM     25  H   UNL     1       6.252   2.713  16.458  0.00  0.00    +0.000 HD
ENDBRANCH   1  23
TORSDOF 2
ENDMDL
MODEL 6
REMARK VINA RESULT:      -7.5      7.356      7.994
REMARK  Name = 
REMARK  2 active torsions:
REMARK  status: ('A' for Active; 'I' for Inactive)
REMARK    1  A    between atoms: N_1  and  C_2
REMARK    2  A    between atoms: C_8  and  C_9
REMARK                            x       y       z     vdW  Elec       q    Type
REMARK                         _______ _______ _______ _____ _____    ______ ____
ROOT
ATOM      1  C   UNL     1       3.994   2.327  19.045  0.00  0.00    +0.000 A 
ATOM      2  N   UNL     1       3.248   1.418  18.415  0.00  0.00    +0.000 NA
ATOM      3  C   UNL     1       2.177   1.890  17.772  0.00  0.00    +0.000 A 
ATOM      4  N   UNL     1       1.786   3.166  17.717  0.00  0.00    +0.000 NA
ATOM      5  C   UNL     1       2.527   4.060  18.358  0.00  0.00    +0.000 A 
ATOM      6  N   UNL     1       2.115   5.329  18.345  0.00  0.00    +0.000 NA
ATOM      7  C   UNL     1       2.822   6.282  19.002  0.00  0.00    +0.000 A 
ATOM      8  C   UNL     1       4.022   5.992  19.640  0.00  0.00    +0.000 A 
ATOM      9  C   UNL     1       4.450   4.679  19.676  0.00  0.00    +0.000 A 
ATOM     10  C   UNL     1       3.686   3.688  19.041  0.00  0.00    +0.000 A 
ENDROOT
BRANCH   7  11
ATOM     11  C   UNL     1       2.211   7.616  19.066  0.00  0.00    +0.000 A 
ATOM     12  C   UNL     1       2.085   8.461  17.963  0.00  0.00    +0.000 A 
ATOM     13  C   UNL     1       1.463   9.712  18.092  0.00  0.00    +0.000 A 
ATOM     14  C   UNL     1       0.977  10.130  19.327  0.00  0.00    +0.000 A 
ATOM     15  N   UNL     1       0.334  11.321  19.536  0.00  0.00    +0.000 N 
ATOM     16  C   UNL     1       0.404  11.914  20.879  0.00  0.00    +0.000 C 
ATOM     17  C   UNL     1      -0.950  12.539  21.228  0.00  0.00    +0.000 C 
ATOM     18  O   UNL     1      -1.342  13.508  20.240  0.00  0.00    +0.000 OA
ATOM     19  C   UNL     1      -1.458  12.879  18.951  0.00  0.00    +0.000 C 
ATOM     20  C   UNL     1      -0.134  12.231  18.495  0.00  0.00    +0.000 C 
ATOM     21  N   UNL     1       1.094   9.319  20.396  0.00  0.00    +0.000 NA
ATOM     22  C   UNL     1       1.671   8.109  20.247  0.00  0.00    +0.000 A 
ENDBRANCH   7  11
BRANCH   1  23
ATOM     23  N   UNL     1       5.071   1.817  19.775  0.00  0.00    +0.000 N 
ATOM     24  H   UNL     1       4.951   0.809  19.836  0.00  0.00    +0.000 HD
ATOM     25  H   UNL     1       5.969   2.071  19.382  0.00  0.00    +0.000 HD
ENDBRANCH   1  23
TORSDOF 2
ENDMDL
MODEL 7
REMARK VINA RESULT:      -7.5      7.336      8.112
REMARK  Name = 
REMARK  2 active torsions:
REMARK  status: ('A' for Active; 'I' for Inactive)
REMARK    1  A    between atoms: N_1  and  C_2
REMARK    2  A    between atoms: C_8  and  C_9
REMARK                            x       y       z     vdW  Elec       q    Type
REMARK                         _______ _______ _______ _____ _____    ______ ____
ROOT
ATOM      1  C   UNL     1       4.010   3.291  19.750  0.00  0.00    +0.000 A 
ATOM      2  N   UNL     1       3.637   2.362  20.631  0.00  0.00    +0.000 NA
ATOM      3  C   UNL     1       2.636   2.704  21.447  0.00  0.00    +0.000 A 
ATOM      4  N   UNL     1       1.998   3.877  21.467  0.00  0.00    +0.000 NA
ATOM      5  C   UNL     1       2.386   4.799  20.596  0.00  0.00    +0.000 A 
ATOM      6  N   UNL     1       1.784   5.988  20.643  0.00  0.00    +0.000 NA
ATOM      7  C   UNL     1       2.157   6.975  19.789  0.00  0.00    +0.000 A 
ATOM      8  C   UNL     1       3.111   6.765  18.800  0.00  0.00    +0.000 A 
ATOM      9  C   UNL     1       3.754   5.544  18.753  0.00  0.00    +0.000 A 
ATOM     10  C   UNL     1       3.403   4.545  19.673  0.00  0.00    +0.000 A 
ENDROOT
BRANCH   7  11
ATOM     11  C   UNL     1       1.552   8.293  20.018  0.00  0.00    +0.000 A 
ATOM     12  C   UNL     1       1.110   8.736  21.265  0.00  0.00    +0.000 A 
ATOM     13  C   UNL     1       0.569  10.022  21.414  0.00  0.00    +0.000 A 
ATOM     14  C   UNL     1       0.453  10.866  20.314  0.00  0.00    +0.000 A 
ATOM     15  N   UNL     1      -0.038  12.143  20.375  0.00  0.00    +0.000 N 
ATOM     16  C   UNL     1      -0.659  12.699  19.164  0.00  0.00    +0.000 C 
ATOM     17  C   UNL     1      -0.274  14.176  19.030  0.00  0.00    +0.000 C 
ATOM     18  O   UNL     1      -0.645  14.916  20.206  0.00  0.00    +0.000 OA
ATOM     19  C   UNL     1       0.028  14.381  21.359  0.00  0.00    +0.000 C 
ATOM     20  C   UNL     1      -0.310  12.895  21.597  0.00  0.00    +0.000 C 
ATOM     21  N   UNL     1       0.879  10.446  19.107  0.00  0.00    +0.000 NA
ATOM     22  C   UNL     1       1.420   9.217  18.988  0.00  0.00    +0.000 A 
ENDBRANCH   7  11
BRANCH   1  23
ATOM     23  N   UNL     1       5.105   2.950  18.949  0.00  0.00    +0.000 N 
ATOM     24  H   UNL     1       4.749   2.708  18.028  0.00  0.00    +0.000 HD
ATOM     25  H   UNL     1       5.805   3.680  18.908  0.00  0.00    +0.000 HD
ENDBRANCH   1  23
TORSDOF 2
ENDMDL
MODEL 8
REMARK VINA RESULT:      -7.4      7.052      8.027
REMARK  Name = 
REMARK  2 active torsions:
REMARK  status: ('A' for Active; 'I' for Inactive)
REMARK    1  A    between atoms: N_1  and  C_2
REMARK    2  A    between atoms: C_8  and  C_9
REMARK                            x       y       z     vdW  Elec       q    Type
REMARK                         _______ _______ _______ _____ _____    ______ ____
ROOT
ATOM      1  C   UNL     1       4.568   3.908  17.217  0.00  0.00    +0.000 A 
ATOM      2  N   UNL     1       5.297   4.228  16.146  0.00  0.00    +0.000 NA
ATOM      3  C   UNL     1       5.343   5.528  15.842  0.00  0.00    +0.000 A 
ATOM      4  N   UNL     1       4.724   6.515  16.494  0.00  0.00    +0.000 NA
ATOM      5  C   UNL     1       3.991   6.185  17.549  0.00  0.00    +0.000 A 
ATOM      6  N   UNL     1       3.334   7.162  18.176  0.00  0.00    +0.000 NA
ATOM      7  C   UNL     1       2.552   6.879  19.248  0.00  0.00    +0.000 A 
ATOM      8  C   UNL     1       2.467   5.594  19.772  0.00  0.00    +0.000 A 
ATOM      9  C   UNL     1       3.128   4.571  19.121  0.00  0.00    +0.000 A 
ATOM     10  C   UNL     1       3.892   4.861  17.980  0.00  0.00    +0.000 A 
ENDROOT
BRANCH   7  11
ATOM     11  C   UNL     1       1.745   7.987  19.774  0.00  0.00    +0.000 A 
ATOM     12  C   UNL     1       1.299   8.059  21.094  0.00  0.00    +0.000 A 
ATOM     13  C   UNL     1       0.556   9.165  21.536  0.00  0.00    +0.000 A 
ATOM     14  C   UNL     1       0.243  10.196  20.656  0.00  0.00    +0.000 A 
ATOM     15  N   UNL     1      -0.454  11.322  21.009  0.00  0.00    +0.000 N 
ATOM     16  C   UNL     1      -1.222  12.011  19.962  0.00  0.00    +0.000 C 
ATOM     17  C   UNL     1      -1.100  13.525  20.159  0.00  0.00    +0.000 C 
ATOM     18  O   UNL     1      -1.530  13.912  21.476  0.00  0.00    +0.000 OA
ATOM     19  C   UNL     1      -0.717  13.264  22.470  0.00  0.00    +0.000 C 
ATOM     20  C   UNL     1      -0.786  11.726  22.371  0.00  0.00    +0.000 C 
ATOM     21  N   UNL     1       0.671  10.134  19.380  0.00  0.00    +0.000 NA
ATOM     22  C   UNL     1       1.406   9.076  18.981  0.00  0.00    +0.000 A 
ENDBRANCH   7  11
BRANCH   1  23
ATOM     23  N   UNL     1       4.467   2.540  17.486  0.00  0.00    +0.000 N 
ATOM     24  H   UNL     1       3.937   2.116  16.729  0.00  0.00    +0.000 HD
ATOM     25  H   UNL     1       5.368   2.097  17.616  0.00  0.00    +0.000 HD
ENDBRANCH   1  23
TORSDOF 2
ENDMDL
MODEL 9
REMARK VINA RESULT:      -7.4      6.261      7.705
REMARK  Name = 
REMARK  2 active torsions:
REMARK  status: ('A' for Active; 'I' for Inactive)
REMARK    1  A    between atoms: N_1  and  C_2
REMARK    2  A    between atoms: C_8  and  C_9
REMARK                            x       y       z     vdW  Elec       q    Type
REMARK                         _______ _______ _______ _____ _____    ______ ____
ROOT
ATOM      1  C   UNL     1       5.974   4.162  16.237  0.00  0.00    +0.000 A 
ATOM      2  N   UNL     1       7.162   4.634  15.854  0.00  0.00    +0.000 NA
ATOM      3  C   UNL     1       7.405   5.911  16.159  0.00  0.00    +0.000 A 
ATOM      4  N   UNL     1       6.574   6.747  16.787  0.00  0.00    +0.000 NA
ATOM      5  C   UNL     1       5.391   6.272  17.152  0.00  0.00    +0.000 A 
ATOM      6  N   UNL     1       4.539   7.115  17.738  0.00  0.00    +0.000 NA
ATOM      7  C   UNL     1       3.307   6.688  18.112  0.00  0.00    +0.000 A 
ATOM      8  C   UNL     1       2.918   5.361  17.970  0.00  0.00    +0.000 A 
ATOM      9  C   UNL     1       3.783   4.483  17.347  0.00  0.00    +0.000 A 
ATOM     10  C   UNL     1       5.036   4.943  16.913  0.00  0.00    +0.000 A 
ENDROOT
BRANCH   7  11
ATOM     11  C   UNL     1       2.384   7.720  18.603  0.00  0.00    +0.000 A 
ATOM     12  C   UNL     1       1.914   7.774  19.916  0.00  0.00    +0.000 A 
ATOM     13  C   UNL     1       1.056   8.808  20.323  0.00  0.00    +0.000 A 
ATOM     14  C   UNL     1       0.653   9.783  19.416  0.00  0.00    +0.000 A 
ATOM     15  N   UNL     1      -0.159  10.838  19.735  0.00  0.00    +0.000 N 
ATOM     16  C   UNL     1      -0.978  11.424  18.664  0.00  0.00    +0.000 C 
ATOM     17  C   UNL     1      -1.014  12.947  18.828  0.00  0.00    +0.000 C 
ATOM     18  O   UNL     1      -1.500  13.315  20.131  0.00  0.00    +0.000 OA
ATOM     19  C   UNL     1      -0.640  12.775  21.149  0.00  0.00    +0.000 C 
ATOM     20  C   UNL     1      -0.551  11.236  21.084  0.00  0.00    +0.000 C 
ATOM     21  N   UNL     1       1.103   9.737  18.148  0.00  0.00    +0.000 NA
ATOM     22  C   UNL     1       1.948   8.751  17.782  0.00  0.00    +0.000 A 
ENDBRANCH   7  11
BRANCH   1  23
ATOM     23  N   UNL     1       5.700   2.847  15.852  0.00  0.00    +0.000 N 
ATOM     24  H   UNL     1       5.042   2.883  15.078  0.00  0.00    +0.000 HD
ATOM     25  H   UNL     1       6.534   2.322  15.620  0.00  0.00    +0.000 HD
ENDBRANCH   1  23
TORSDOF 2
ENDMDL
