MODEL 1
REMARK VINA RESULT:      -7.4      0.000      0.000
REMARK  Name = 
REMARK  13 active torsions:
REMARK  status: ('A' for Active; 'I' for Inactive)
REMARK    1  A    between atoms: C_1  and  C_2
REMARK    2  A    between atoms: C_2  and  C_3
REMARK    3  A    between atoms: C_6  and  C_7
REMARK    4  A    between atoms: C_7  and  O_8
REMARK    5  A    between atoms: O_8  and  C_9
REMARK    6  A    between atoms: C_12  and  C_13
REMARK    7  A    between atoms: C_16  and  C_18
REMARK    8  A    between atoms: C_20  and  O_21
REMARK    9  A    between atoms: O_21  and  C_22
REMARK   10  A    between atoms: C_22  and  C_23
REMARK   11  A    between atoms: C_23  and  O_24
REMARK   12  A    between atoms: C_30  and  O_31
REMARK   13  A    between atoms: O_31  and  C_32
REMARK                            x       y       z     vdW  Elec       q    Type
REMARK                         _______ _______ _______ _____ _____    ______ ____
ROOT
ATOM      1  C   UNL     1       2.802   5.821  18.927  0.00  0.00    +0.000 A 
ATOM      2  C   UNL     1       2.948   6.892  18.016  0.00  0.00    +0.000 A 
ATOM      3  C   UNL     1       2.439   8.169  18.273  0.00  0.00    +0.000 A 
ATOM      4  C   UNL     1       1.765   8.453  19.462  0.00  0.00    +0.000 A 
ATOM      5  C   UNL     1       1.645   7.373  20.361  0.00  0.00    +0.000 A 
ATOM      6  C   UNL     1       2.139   6.070  20.131  0.00  0.00    +0.000 A 
ENDROOT
BRANCH   4   7
ATOM      7  C   UNL     1       1.203   9.885  19.832  0.00  0.00    +0.000 C 
ATOM      8  C   UNL     1       1.056  10.999  18.766  0.00  0.00    +0.000 C 
ATOM      9  N   UNL     1      -0.173  11.350  19.456  0.00  0.00    +0.000 N 
ATOM     10  C   UNL     1      -0.955  12.470  19.362  0.00  0.00    +0.000 C 
ATOM     11  O   UNL     1      -0.669  13.403  18.610  0.00  0.00    +0.000 OA
ATOM     12  C   UNL     1      -0.324  10.036  20.044  0.00  0.00    +0.000 C 
BRANCH  10  13
ATOM     13  C   UNL     1      -2.184  12.568  20.231  0.00  0.00    +0.000 A 
ATOM     14  C   UNL     1      -2.036  12.542  21.612  0.00  0.00    +0.000 A 
ATOM     15  C   UNL     1      -3.195  12.545  22.394  0.00  0.00    +0.000 A 
ATOM     16  C   UNL     1      -4.440  12.552  21.776  0.00  0.00    +0.000 A 
ATOM     17  C   UNL     1      -4.491  12.597  20.398  0.00  0.00    +0.000 A 
ATOM     18  N   UNL     1      -3.395  12.610  19.616  0.00  0.00    +0.000 NA
BRANCH  15  19
ATOM     19  O   UNL     1      -3.237  12.481  23.760  0.00  0.00    +0.000 OA
BRANCH  19  20
ATOM     20  C   UNL     1      -3.962  13.525  24.426  0.00  0.00    +0.000 C 
BRANCH  20  21
ATOM     21  C   UNL     1      -2.965  14.616  24.795  0.00  0.00    +0.000 C 
BRANCH  21  22
ATOM     22  O   UNL     1      -3.138  15.753  23.952  0.00  0.00    +0.000 OA
ATOM     23  H   UNL     1      -4.030  15.672  23.565  0.00  0.00    +0.000 HD
ENDBRANCH  21  22
ENDBRANCH  20  21
ENDBRANCH  19  20
ENDBRANCH  15  19
ENDBRANCH  10  13
ENDBRANCH   4   7
BRANCH   6  24
ATOM     24  O   UNL     1       1.810   5.281  21.193  0.00  0.00    +0.000 OA
ATOM     25  C   UNL     1       2.230   3.944  21.331  0.00  0.00    +0.000 C 
ENDBRANCH   6  24
BRANCH   1  26
ATOM     26  O   UNL     1       3.399   4.687  18.452  0.00  0.00    +0.000 OA
BRANCH  26  27
ATOM     27  C   UNL     1       4.812   4.589  18.543  0.00  0.00    +0.000 C 
BRANCH  27  31
ATOM     28  C   UNL     1       6.573   4.508  14.612  0.00  0.00    +0.000 A 
ATOM     29  C   UNL     1       5.214   4.228  14.784  0.00  0.00    +0.000 A 
ATOM     30  C   UNL     1       4.655   4.227  16.059  0.00  0.00    +0.000 A 
ATOM     31  C   UNL     1       5.445   4.521  17.180  0.00  0.00    +0.000 A 
ATOM     32  C   UNL     1       6.792   4.851  17.004  0.00  0.00    +0.000 A 
ATOM     33  C   UNL     1       7.351   4.846  15.728  0.00  0.00    +0.000 A 
BRANCH  28  35
ATOM     34  C   UNL     1       6.412   3.545  12.295  0.00  0.00    +0.000 C 
ATOM     35  C   UNL     1       7.194   4.439  13.242  0.00  0.00    +0.000 C 
ENDBRANCH  28  35
ENDBRANCH  27  31
ENDBRANCH  26  27
ENDBRANCH   1  26
TORSDOF 11
ENDMDL
MODEL 2
REMARK VINA RESULT:      -7.4      0.864      1.070
REMARK  Name = 
REMARK  13 active torsions:
REMARK  status: ('A' for Active; 'I' for Inactive)
REMARK    1  A    between atoms: C_1  and  C_2
REMARK    2  A    between atoms: C_2  and  C_3
REMARK    3  A    between atoms: C_6  and  C_7
REMARK    4  A    between atoms: C_7  and  O_8
REMARK    5  A    between atoms: O_8  and  C_9
REMARK    6  A    between atoms: C_12  and  C_13
REMARK    7  A    between atoms: C_16  and  C_18
REMARK    8  A    between atoms: C_20  and  O_21
REMARK    9  A    between atoms: O_21  and  C_22
REMARK   10  A    between atoms: C_22  and  C_23
REMARK   11  A    between atoms: C_23  and  O_24
REMARK   12  A    between atoms: C_30  and  O_31
REMARK   13  A    between atoms: O_31  and  C_32
REMARK                            x       y       z     vdW  Elec       q    Type
REMARK                         _______ _______ _______ _____ _____    ______ ____
ROOT
ATOM      1  C   UNL     1       2.981   5.575  18.941  0.00  0.00    +0.000 A 
ATOM      2  C   UNL     1       3.169   6.623  18.009  0.00  0.00    +0.000 A 
ATOM      3  C   UNL     1       2.613   7.893  18.190  0.00  0.00    +0.000 A 
ATOM      4  C   UNL     1       1.848   8.194  19.318  0.00  0.00    +0.000 A 
ATOM      5  C   UNL     1       1.688   7.139  20.239  0.00  0.00    +0.000 A 
ATOM      6  C   UNL     1       2.227   5.842  20.085  0.00  0.00    +0.000 A 
ENDROOT
BRANCH   4   7
ATOM      7  C   UNL     1       1.228   9.622  19.603  0.00  0.00    +0.000 C 
ATOM      8  C   UNL     1       1.386  10.790  18.596  0.00  0.00    +0.000 C 
ATOM      9  N   UNL     1       0.023  11.142  18.955  0.00  0.00    +0.000 N 
ATOM     10  C   UNL     1      -0.691  12.285  18.718  0.00  0.00    +0.000 C 
ATOM     11  O   UNL     1      -0.202  13.246  18.119  0.00  0.00    +0.000 OA
ATOM     12  C   UNL     1      -0.298   9.805  19.411  0.00  0.00    +0.000 C 
BRANCH  10  13
ATOM     13  C   UNL     1      -2.105  12.376  19.235  0.00  0.00    +0.000 A 
ATOM     14  C   UNL     1      -2.320  12.831  20.530  0.00  0.00    +0.000 A 
ATOM     15  C   UNL     1      -3.631  12.822  21.017  0.00  0.00    +0.000 A 
ATOM     16  C   UNL     1      -4.659  12.346  20.211  0.00  0.00    +0.000 A 
ATOM     17  C   UNL     1      -4.355  11.932  18.930  0.00  0.00    +0.000 A 
ATOM     18  N   UNL     1      -3.107  11.942  18.426  0.00  0.00    +0.000 NA
BRANCH  15  19
ATOM     19  O   UNL     1      -4.018  13.193  22.275  0.00  0.00    +0.000 OA
BRANCH  19  20
ATOM     20  C   UNL     1      -3.517  12.395  23.358  0.00  0.00    +0.000 C 
BRANCH  20  21
ATOM     21  C   UNL     1      -4.096  12.957  24.651  0.00  0.00    +0.000 C 
BRANCH  21  22
ATOM     22  O   UNL     1      -4.911  14.095  24.376  0.00  0.00    +0.000 OA
ATOM     23  H   UNL     1      -5.025  14.122  23.408  0.00  0.00    +0.000 HD
ENDBRANCH  21  22
ENDBRANCH  20  21
ENDBRANCH  19  20
ENDBRANCH  15  19
ENDBRANCH  10  13
ENDBRANCH   4   7
BRANCH   6  24
ATOM     24  O   UNL     1       1.838   5.077  21.144  0.00  0.00    +0.000 OA
ATOM     25  C   UNL     1       2.304   3.767  21.371  0.00  0.00    +0.000 C 
ENDBRANCH   6  24
BRANCH   1  26
ATOM     26  O   UNL     1       3.636   4.443  18.545  0.00  0.00    +0.000 OA
BRANCH  26  27
ATOM     27  C   UNL     1       5.055   4.457  18.549  0.00  0.00    +0.000 C 
BRANCH  27  31
ATOM     28  C   UNL     1       6.562   4.583  14.515  0.00  0.00    +0.000 A 
ATOM     29  C   UNL     1       5.305   4.033  14.784  0.00  0.00    +0.000 A 
ATOM     30  C   UNL     1       4.834   3.968  16.093  0.00  0.00    +0.000 A 
ATOM     31  C   UNL     1       5.608   4.467  17.150  0.00  0.00    +0.000 A 
ATOM     32  C   UNL     1       6.843   5.063  16.877  0.00  0.00    +0.000 A 
ATOM     33  C   UNL     1       7.315   5.122  15.567  0.00  0.00    +0.000 A 
BRANCH  28  35
ATOM     34  C   UNL     1       8.245   5.571  12.931  0.00  0.00    +0.000 C 
ATOM     35  C   UNL     1       7.102   4.588  13.110  0.00  0.00    +0.000 C 
ENDBRANCH  28  35
ENDBRANCH  27  31
ENDBRANCH  26  27
ENDBRANCH   1  26
TORSDOF 11
ENDMDL
MODEL 3
REMARK VINA RESULT:      -7.3      1.472      1.816
REMARK  Name = 
REMARK  13 active torsions:
REMARK  status: ('A' for Active; 'I' for Inactive)
REMARK    1  A    between atoms: C_1  and  C_2
REMARK    2  A    between atoms: C_2  and  C_3
REMARK    3  A    between atoms: C_6  and  C_7
REMARK    4  A    between atoms: C_7  and  O_8
REMARK    5  A    between atoms: O_8  and  C_9
REMARK    6  A    between atoms: C_12  and  C_13
REMARK    7  A    between atoms: C_16  and  C_18
REMARK    8  A    between atoms: C_20  and  O_21
REMARK    9  A    between atoms: O_21  and  C_22
REMARK   10  A    between atoms: C_22  and  C_23
REMARK   11  A    between atoms: C_23  and  O_24
REMARK   12  A    between atoms: C_30  and  O_31
REMARK   13  A    between atoms: O_31  and  C_32
REMARK                            x       y       z     vdW  Elec       q    Type
REMARK                         _______ _______ _______ _____ _____    ______ ____
ROOT
ATOM      1  C   UNL     1       2.925   5.229  19.422  0.00  0.00    +0.000 A 
ATOM      2  C   UNL     1       2.900   6.513  18.832  0.00  0.00    +0.000 A 
ATOM      3  C   UNL     1       2.205   7.585  19.400  0.00  0.00    +0.000 A 
ATOM      4  C   UNL     1       1.504   7.438  20.599  0.00  0.00    +0.000 A 
ATOM      5  C   UNL     1       1.557   6.153  21.176  0.00  0.00    +0.000 A 
ATOM      6  C   UNL     1       2.242   5.046  20.626  0.00  0.00    +0.000 A 
ENDROOT
BRANCH   4   7
ATOM      7  C   UNL     1       0.735   8.620  21.317  0.00  0.00    +0.000 C 
ATOM      8  C   UNL     1       1.417   9.985  21.588  0.00  0.00    +0.000 C 
ATOM      9  N   UNL     1       0.129  10.573  21.259  0.00  0.00    +0.000 N 
ATOM     10  C   UNL     1      -0.345  11.841  21.459  0.00  0.00    +0.000 C 
ATOM     11  O   UNL     1       0.335  12.712  22.004  0.00  0.00    +0.000 OA
ATOM     12  C   UNL     1      -0.300   9.423  20.490  0.00  0.00    +0.000 C 
BRANCH  10  13
ATOM     13  C   UNL     1      -1.753  12.163  21.024  0.00  0.00    +0.000 A 
ATOM     14  C   UNL     1      -2.744  12.287  21.989  0.00  0.00    +0.000 A 
ATOM     15  C   UNL     1      -4.056  12.499  21.555  0.00  0.00    +0.000 A 
ATOM     16  C   UNL     1      -4.328  12.557  20.193  0.00  0.00    +0.000 A 
ATOM     17  C   UNL     1      -3.277  12.443  19.306  0.00  0.00    +0.000 A 
ATOM     18  N   UNL     1      -2.001  12.253  19.691  0.00  0.00    +0.000 NA
BRANCH  15  19
ATOM     19  O   UNL     1      -5.158  12.601  22.361  0.00  0.00    +0.000 OA
BRANCH  19  20
ATOM     20  C   UNL     1      -4.938  13.129  23.677  0.00  0.00    +0.000 C 
BRANCH  20  21
ATOM     21  C   UNL     1      -5.526  14.534  23.715  0.00  0.00    +0.000 C 
BRANCH  21  22
ATOM     22  O   UNL     1      -6.516  14.685  22.699  0.00  0.00    +0.000 OA
ATOM     23  H   UNL     1      -7.038  13.861  22.702  0.00  0.00    +0.000 HD
ENDBRANCH  21  22
ENDBRANCH  20  21
ENDBRANCH  19  20
ENDBRANCH  15  19
ENDBRANCH  10  13
ENDBRANCH   4   7
BRANCH   6  24
ATOM     24  O   UNL     1       2.044   3.964  21.430  0.00  0.00    +0.000 OA
ATOM     25  C   UNL     1       1.344   2.810  21.025  0.00  0.00    +0.000 C 
ENDBRANCH   6  24
BRANCH   1  26
ATOM     26  O   UNL     1       3.683   4.363  18.684  0.00  0.00    +0.000 OA
BRANCH  26  27
ATOM     27  C   UNL     1       5.084   4.585  18.628  0.00  0.00    +0.000 C 
BRANCH  27  31
ATOM     28  C   UNL     1       6.549   4.509  14.577  0.00  0.00    +0.000 A 
ATOM     29  C   UNL     1       7.432   4.695  15.646  0.00  0.00    +0.000 A 
ATOM     30  C   UNL     1       6.950   4.747  16.951  0.00  0.00    +0.000 A 
ATOM     31  C   UNL     1       5.580   4.600  17.208  0.00  0.00    +0.000 A 
ATOM     32  C   UNL     1       4.702   4.364  16.145  0.00  0.00    +0.000 A 
ATOM     33  C   UNL     1       5.186   4.317  14.839  0.00  0.00    +0.000 A 
BRANCH  28  35
ATOM     34  C   UNL     1       6.351   3.512  12.278  0.00  0.00    +0.000 C 
ATOM     35  C   UNL     1       7.059   4.524  13.161  0.00  0.00    +0.000 C 
ENDBRANCH  28  35
ENDBRANCH  27  31
ENDBRANCH  26  27
ENDBRANCH   1  26
TORSDOF 11
ENDMDL
MODEL 4
REMARK VINA RESULT:      -7.2      2.135      3.211
REMARK  Name = 
REMARK  13 active torsions:
REMARK  status: ('A' for Active; 'I' for Inactive)
REMARK    1  A    between atoms: C_1  and  C_2
REMARK    2  A    between atoms: C_2  and  C_3
REMARK    3  A    between atoms: C_6  and  C_7
REMARK    4  A    between atoms: C_7  and  O_8
REMARK    5  A    between atoms: O_8  and  C_9
REMARK    6  A    between atoms: C_12  and  C_13
REMARK    7  A    between atoms: C_16  and  C_18
REMARK    8  A    between atoms: C_20  and  O_21
REMARK    9  A    between atoms: O_21  and  C_22
REMARK   10  A    between atoms: C_22  and  C_23
REMARK   11  A    between atoms: C_23  and  O_24
REMARK   12  A    between atoms: C_30  and  O_31
REMARK   13  A    between atoms: O_31  and  C_32
REMARK                            x       y       z     vdW  Elec       q    Type
REMARK                         _______ _______ _______ _____ _____    ______ ____
ROOT
ATOM      1  C   UNL     1       1.791   8.326  19.338  0.00  0.00    +0.000 A 
ATOM      2  C   UNL     1       1.624   8.829  18.027  0.00  0.00    +0.000 A 
ATOM      3  C   UNL     1       0.606   9.728  17.694  0.00  0.00    +0.000 A 
ATOM      4  C   UNL     1      -0.297  10.186  18.655  0.00  0.00    +0.000 A 
ATOM      5  C   UNL     1      -0.101   9.682  19.957  0.00  0.00    +0.000 A 
ATOM      6  C   UNL     1       0.911   8.768  20.327  0.00  0.00    +0.000 A 
ENDROOT
BRANCH   4   7
ATOM      7  C   UNL     1      -1.443  11.235  18.353  0.00  0.00    +0.000 C 
ATOM      8  C   UNL     1      -2.404  11.063  17.150  0.00  0.00    +0.000 C 
ATOM      9  N   UNL     1      -3.435  11.573  18.038  0.00  0.00    +0.000 N 
ATOM     10  C   UNL     1      -4.695  12.032  17.764  0.00  0.00    +0.000 C 
ATOM     11  O   UNL     1      -5.137  12.075  16.614  0.00  0.00    +0.000 OA
ATOM     12  C   UNL     1      -2.714  11.198  19.236  0.00  0.00    +0.000 C 
BRANCH  10  13
ATOM     13  C   UNL     1      -5.548  12.526  18.905  0.00  0.00    +0.000 A 
ATOM     14  C   UNL     1      -5.114  12.322  20.208  0.00  0.00    +0.000 A 
ATOM     15  C   UNL     1      -5.963  12.709  21.249  0.00  0.00    +0.000 A 
ATOM     16  C   UNL     1      -7.205  13.259  20.953  0.00  0.00    +0.000 A 
ATOM     17  C   UNL     1      -7.545  13.443  19.628  0.00  0.00    +0.000 A 
ATOM     18  N   UNL     1      -6.745  13.094  18.603  0.00  0.00    +0.000 NA
BRANCH  15  19
ATOM     19  O   UNL     1      -5.717  12.545  22.585  0.00  0.00    +0.000 OA
BRANCH  19  20
ATOM     20  C   UNL     1      -4.537  13.179  23.098  0.00  0.00    +0.000 C 
BRANCH  20  21
ATOM     21  C   UNL     1      -4.174  12.489  24.407  0.00  0.00    +0.000 C 
BRANCH  21  22
ATOM     22  O   UNL     1      -5.310  11.812  24.942  0.00  0.00    +0.000 OA
ATOM     23  H   UNL     1      -4.963  11.146  25.565  0.00  0.00    +0.000 HD
ENDBRANCH  21  22
ENDBRANCH  20  21
ENDBRANCH  19  20
ENDBRANCH  15  19
ENDBRANCH  10  13
ENDBRANCH   4   7
BRANCH   6  24
ATOM     24  O   UNL     1       0.774   8.474  21.651  0.00  0.00    +0.000 OA
ATOM     25  C   UNL     1       0.599   9.450  22.652  0.00  0.00    +0.000 C 
ENDBRANCH   6  24
BRANCH   1  26
ATOM     26  O   UNL     1       2.863   7.480  19.407  0.00  0.00    +0.000 OA
BRANCH  26  27
ATOM     27  C   UNL     1       2.640   6.099  19.169  0.00  0.00    +0.000 C 
BRANCH  27  31
ATOM     28  C   UNL     1       5.306   4.603  16.134  0.00  0.00    +0.000 A 
ATOM     29  C   UNL     1       5.371   5.941  16.535  0.00  0.00    +0.000 A 
ATOM     30  C   UNL     1       4.488   6.427  17.496  0.00  0.00    +0.000 A 
ATOM     31  C   UNL     1       3.538   5.579  18.080  0.00  0.00    +0.000 A 
ATOM     32  C   UNL     1       3.505   4.229  17.716  0.00  0.00    +0.000 A 
ATOM     33  C   UNL     1       4.386   3.745  16.750  0.00  0.00    +0.000 A 
BRANCH  28  35
ATOM     34  C   UNL     1       5.521   4.039  13.693  0.00  0.00    +0.000 C 
ATOM     35  C   UNL     1       6.212   4.095  15.045  0.00  0.00    +0.000 C 
ENDBRANCH  28  35
ENDBRANCH  27  31
ENDBRANCH  26  27
ENDBRANCH   1  26
TORSDOF 11
ENDMDL
MODEL 5
REMARK VINA RESULT:      -7.2      3.049     11.521
REMARK  Name = 
REMARK  13 active torsions:
REMARK  status: ('A' for Active; 'I' for Inactive)
REMARK    1  A    between atoms: C_1  and  C_2
REMARK    2  A    between atoms: C_2  and  C_3
REMARK    3  A    between atoms: C_6  and  C_7
REMARK    4  A    between atoms: C_7  and  O_8
REMARK    5  A    between atoms: O_8  and  C_9
REMARK    6  A    between atoms: C_12  and  C_13
REMARK    7  A    between atoms: C_16  and  C_18
REMARK    8  A    between atoms: C_20  and  O_21
REMARK    9  A    between atoms: O_21  and  C_22
REMARK   10  A    between atoms: C_22  and  C_23
REMARK   11  A    between atoms: C_23  and  O_24
REMARK   12  A    between atoms: C_30  and  O_31
REMARK   13  A    between atoms: O_31  and  C_32
REMARK                            x       y       z     vdW  Elec       q    Type
REMARK                         _______ _______ _______ _____ _____    ______ ____
ROOT
ATOM      1  C   UNL     1      -0.281  12.093  20.764  0.00  0.00    +0.000 A 
ATOM      2  C   UNL     1      -0.543  10.734  21.057  0.00  0.00    +0.000 A 
ATOM      3  C   UNL     1      -0.033   9.690  20.280  0.00  0.00    +0.000 A 
ATOM      4  C   UNL     1       0.779   9.941  19.173  0.00  0.00    +0.000 A 
ATOM      5  C   UNL     1       1.039  11.302  18.911  0.00  0.00    +0.000 A 
ATOM      6  C   UNL     1       0.534  12.383  19.668  0.00  0.00    +0.000 A 
ENDROOT
BRANCH   4   7
ATOM      7  C   UNL     1       1.423   8.804  18.280  0.00  0.00    +0.000 C 
ATOM      8  C   UNL     1       2.723   9.047  17.472  0.00  0.00    +0.000 C 
ATOM      9  N   UNL     1       3.076   7.686  17.837  0.00  0.00    +0.000 N 
ATOM     10  C   UNL     1       4.048   6.858  17.343  0.00  0.00    +0.000 C 
ATOM     11  O   UNL     1       4.803   7.210  16.434  0.00  0.00    +0.000 OA
ATOM     12  C   UNL     1       2.205   7.674  18.993  0.00  0.00    +0.000 C 
BRANCH  10  13
ATOM     13  C   UNL     1       4.170   5.466  17.911  0.00  0.00    +0.000 A 
ATOM     14  C   UNL     1       3.249   4.499  17.529  0.00  0.00    +0.000 A 
ATOM     15  C   UNL     1       3.330   3.243  18.137  0.00  0.00    +0.000 A 
ATOM     16  C   UNL     1       4.301   3.009  19.105  0.00  0.00    +0.000 A 
ATOM     17  C   UNL     1       5.187   4.023  19.407  0.00  0.00    +0.000 A 
ATOM     18  N   UNL     1       5.146   5.239  18.830  0.00  0.00    +0.000 NA
BRANCH  15  19
ATOM     19  O   UNL     1       2.483   2.191  17.914  0.00  0.00    +0.000 OA
BRANCH  19  20
ATOM     20  C   UNL     1       1.724   1.734  19.042  0.00  0.00    +0.000 C 
BRANCH  20  21
ATOM     21  C   UNL     1       0.570   2.709  19.247  0.00  0.00    +0.000 C 
BRANCH  21  22
ATOM     22  O   UNL     1       0.626   3.276  20.555  0.00  0.00    +0.000 OA
ATOM     23  H   UNL     1       0.979   4.179  20.447  0.00  0.00    +0.000 HD
ENDBRANCH  21  22
ENDBRANCH  20  21
ENDBRANCH  19  20
ENDBRANCH  15  19
ENDBRANCH  10  13
ENDBRANCH   4   7
BRANCH   6  24
ATOM     24  O   UNL     1       0.956  13.550  19.104  0.00  0.00    +0.000 OA
ATOM     25  C   UNL     1       2.312  13.863  18.885  0.00  0.00    +0.000 C 
ENDBRANCH   6  24
BRANCH   1  26
ATOM     26  O   UNL     1      -0.878  12.916  21.678  0.00  0.00    +0.000 OA
BRANCH  26  27
ATOM     27  C   UNL     1      -1.420  12.329  22.851  0.00  0.00    +0.000 C 
BRANCH  27  31
ATOM     28  C   UNL     1      -5.581  13.329  23.345  0.00  0.00    +0.000 A 
ATOM     29  C   UNL     1      -4.894  12.644  24.351  0.00  0.00    +0.000 A 
ATOM     30  C   UNL     1      -3.557  12.298  24.175  0.00  0.00    +0.000 A 
ATOM     31  C   UNL     1      -2.883  12.645  22.996  0.00  0.00    +0.000 A 
ATOM     32  C   UNL     1      -3.555  13.375  22.010  0.00  0.00    +0.000 A 
ATOM     33  C   UNL     1      -4.895  13.716  22.186  0.00  0.00    +0.000 A 
BRANCH  28  35
ATOM     34  C   UNL     1      -7.916  12.401  23.410  0.00  0.00    +0.000 C 
ATOM     35  C   UNL     1      -7.045  13.641  23.504  0.00  0.00    +0.000 C 
ENDBRANCH  28  35
ENDBRANCH  27  31
ENDBRANCH  26  27
ENDBRANCH   1  26
TORSDOF 11
ENDMDL
MODEL 6
REMARK VINA RESULT:      -7.2      2.931      4.442
REMARK  Name = 
REMARK  13 active torsions:
REMARK  status: ('A' for Active; 'I' for Inactive)
REMARK    1  A    between atoms: C_1  and  C_2
REMARK    2  A    between atoms: C_2  and  C_3
REMARK    3  A    between atoms: C_6  and  C_7
REMARK    4  A    between atoms: C_7  and  O_8
REMARK    5  A    between atoms: O_8  and  C_9
REMARK    6  A    between atoms: C_12  and  C_13
REMARK    7  A    between atoms: C_16  and  C_18
REMARK    8  A    between atoms: C_20  and  O_21
REMARK    9  A    between atoms: O_21  and  C_22
REMARK   10  A    between atoms: C_22  and  C_23
REMARK   11  A    between atoms: C_23  and  O_24
REMARK   12  A    between atoms: C_30  and  O_31
REMARK   13  A    between atoms: O_31  and  C_32
REMARK                            x       y       z     vdW  Elec       q    Type
REMARK                         _______ _______ _______ _____ _____    ______ ____
ROOT
ATOM      1  C   UNL     1       3.372   6.076  18.708  0.00  0.00    +0.000 A 
ATOM      2  C   UNL     1       3.376   7.168  17.809  0.00  0.00    +0.000 A 
ATOM      3  C   UNL     1       2.611   8.318  18.027  0.00  0.00    +0.000 A 
ATOM      4  C   UNL     1       1.808   8.449  19.161  0.00  0.00    +0.000 A 
ATOM      5  C   UNL     1       1.833   7.354  20.049  0.00  0.00    +0.000 A 
ATOM      6  C   UNL     1       2.586   6.174  19.857  0.00  0.00    +0.000 A 
ENDROOT
BRANCH   4   7
ATOM      7  C   UNL     1       0.953   9.741  19.487  0.00  0.00    +0.000 C 
ATOM      8  C   UNL     1       0.830  10.287  20.932  0.00  0.00    +0.000 C 
ATOM      9  N   UNL     1       0.894  11.605  20.325  0.00  0.00    +0.000 N 
ATOM     10  C   UNL     1       0.606  12.838  20.845  0.00  0.00    +0.000 C 
ATOM     11  O   UNL     1       0.212  12.979  22.005  0.00  0.00    +0.000 OA
ATOM     12  C   UNL     1       1.557  11.122  19.132  0.00  0.00    +0.000 C 
BRANCH  10  13
ATOM     13  C   UNL     1       0.749  14.049  19.958  0.00  0.00    +0.000 A 
ATOM     14  C   UNL     1       2.018  14.553  19.707  0.00  0.00    +0.000 A 
ATOM     15  C   UNL     1       2.118  15.728  18.955  0.00  0.00    +0.000 A 
ATOM     16  C   UNL     1       0.962  16.356  18.506  0.00  0.00    +0.000 A 
ATOM     17  C   UNL     1      -0.256  15.772  18.787  0.00  0.00    +0.000 A 
ATOM     18  N   UNL     1      -0.387  14.635  19.496  0.00  0.00    +0.000 NA
BRANCH  15  19
ATOM     19  O   UNL     1       3.279  16.385  18.649  0.00  0.00    +0.000 OA
BRANCH  19  20
ATOM     20  C   UNL     1       4.453  15.971  19.362  0.00  0.00    +0.000 C 
BRANCH  20  21
ATOM     21  C   UNL     1       5.546  16.995  19.085  0.00  0.00    +0.000 C 
BRANCH  21  22
ATOM     22  O   UNL     1       6.700  16.355  18.544  0.00  0.00    +0.000 OA
ATOM     23  H   UNL     1       6.383  15.791  17.814  0.00  0.00    +0.000 HD
ENDBRANCH  21  22
ENDBRANCH  20  21
ENDBRANCH  19  20
ENDBRANCH  15  19
ENDBRANCH  10  13
ENDBRANCH   4   7
BRANCH   6  24
ATOM     24  O   UNL     1       2.337   5.322  20.891  0.00  0.00    +0.000 OA
ATOM     25  C   UNL     1       1.623   4.116  20.752  0.00  0.00    +0.000 C 
ENDBRANCH   6  24
BRANCH   1  26
ATOM     26  O   UNL     1       4.212   5.085  18.280  0.00  0.00    +0.000 OA
BRANCH  26  27
ATOM     27  C   UNL     1       5.528   5.447  17.892  0.00  0.00    +0.000 C 
BRANCH  27  31
ATOM     28  C   UNL     1       6.415   4.184  13.870  0.00  0.00    +0.000 A 
ATOM     29  C   UNL     1       7.367   4.883  14.618  0.00  0.00    +0.000 A 
ATOM     30  C   UNL     1       7.066   5.314  15.907  0.00  0.00    +0.000 A 
ATOM     31  C   UNL     1       5.813   5.039  16.472  0.00  0.00    +0.000 A 
ATOM     32  C   UNL     1       4.878   4.296  15.744  0.00  0.00    +0.000 A 
ATOM     33  C   UNL     1       5.180   3.870  14.452  0.00  0.00    +0.000 A 
BRANCH  28  35
ATOM     34  C   UNL     1       5.662   2.848  11.878  0.00  0.00    +0.000 C 
ATOM     35  C   UNL     1       6.715   3.780  12.451  0.00  0.00    +0.000 C 
ENDBRANCH  28  35
ENDBRANCH  27  31
ENDBRANCH  26  27
ENDBRANCH   1  26
TORSDOF 11
ENDMDL
MODEL 7
REMARK VINA RESULT:      -7.1      2.279      3.323
REMARK  Name = 
REMARK  13 active torsions:
REMARK  status: ('A' for Active; 'I' for Inactive)
REMARK    1  A    between atoms: C_1  and  C_2
REMARK    2  A    between atoms: C_2  and  C_3
REMARK    3  A    between atoms: C_6  and  C_7
REMARK    4  A    between atoms: C_7  and  O_8
REMARK    5  A    between atoms: O_8  and  C_9
REMARK    6  A    between atoms: C_12  and  C_13
REMARK    7  A    between atoms: C_16  and  C_18
REMARK    8  A    between atoms: C_20  and  O_21
REMARK    9  A    between atoms: O_21  and  C_22
REMARK   10  A    between atoms: C_22  and  C_23
REMARK   11  A    between atoms: C_23  and  O_24
REMARK   12  A    between atoms: C_30  and  O_31
REMARK   13  A    between atoms: O_31  and  C_32
REMARK                            x       y       z     vdW  Elec       q    Type
REMARK                         _______ _______ _______ _____ _____    ______ ____
ROOT
ATOM      1  C   UNL     1       2.604   5.229  18.800  0.00  0.00    +0.000 A 
ATOM      2  C   UNL     1       2.432   6.179  17.766  0.00  0.00    +0.000 A 
ATOM      3  C   UNL     1       1.994   7.483  18.013  0.00  0.00    +0.000 A 
ATOM      4  C   UNL     1       1.715   7.918  19.310  0.00  0.00    +0.000 A 
ATOM      5  C   UNL     1       1.908   6.958  20.325  0.00  0.00    +0.000 A 
ATOM      6  C   UNL     1       2.340   5.631  20.110  0.00  0.00    +0.000 A 
ENDROOT
BRANCH   4   7
ATOM      7  C   UNL     1       1.258   9.392  19.662  0.00  0.00    +0.000 C 
ATOM      8  C   UNL     1       1.378  10.545  18.634  0.00  0.00    +0.000 C 
ATOM      9  N   UNL     1       0.107  11.008  19.167  0.00  0.00    +0.000 N 
ATOM     10  C   UNL     1      -0.534  12.208  19.016  0.00  0.00    +0.000 C 
ATOM     11  O   UNL     1      -0.051  13.126  18.350  0.00  0.00    +0.000 OA
ATOM     12  C   UNL     1      -0.259   9.702  19.672  0.00  0.00    +0.000 C 
BRANCH  10  13
ATOM     13  C   UNL     1      -1.855  12.414  19.714  0.00  0.00    +0.000 A 
ATOM     14  C   UNL     1      -3.024  12.020  19.074  0.00  0.00    +0.000 A 
ATOM     15  C   UNL     1      -4.240  12.302  19.702  0.00  0.00    +0.000 A 
ATOM     16  C   UNL     1      -4.245  12.976  20.919  0.00  0.00    +0.000 A 
ATOM     17  C   UNL     1      -3.035  13.311  21.491  0.00  0.00    +0.000 A 
ATOM     18  N   UNL     1      -1.846  13.041  20.920  0.00  0.00    +0.000 NA
BRANCH  15  19
ATOM     19  O   UNL     1      -5.482  12.026  19.199  0.00  0.00    +0.000 OA
BRANCH  19  20
ATOM     20  C   UNL     1      -6.564  12.018  20.141  0.00  0.00    +0.000 C 
BRANCH  20  21
ATOM     21  C   UNL     1      -7.205  10.636  20.096  0.00  0.00    +0.000 C 
BRANCH  21  22
ATOM     22  O   UNL     1      -7.163  10.113  18.769  0.00  0.00    +0.000 OA
ATOM     23  H   UNL     1      -8.019  10.338  18.360  0.00  0.00    +0.000 HD
ENDBRANCH  21  22
ENDBRANCH  20  21
ENDBRANCH  19  20
ENDBRANCH  15  19
ENDBRANCH  10  13
ENDBRANCH   4   7
BRANCH   6  24
ATOM     24  O   UNL     1       2.377   4.982  21.309  0.00  0.00    +0.000 OA
ATOM     25  C   UNL     1       2.052   3.621  21.468  0.00  0.00    +0.000 C 
ENDBRANCH   6  24
BRANCH   1  26
ATOM     26  O   UNL     1       3.053   4.037  18.302  0.00  0.00    +0.000 OA
BRANCH  26  27
ATOM     27  C   UNL     1       3.982   4.070  17.230  0.00  0.00    +0.000 C 
BRANCH  27  31
ATOM     28  C   UNL     1       7.259   6.702  18.177  0.00  0.00    +0.000 A 
ATOM     29  C   UNL     1       6.502   6.903  17.018  0.00  0.00    +0.000 A 
ATOM     30  C   UNL     1       5.462   6.033  16.701  0.00  0.00    +0.000 A 
ATOM     31  C   UNL     1       5.155   4.958  17.547  0.00  0.00    +0.000 A 
ATOM     32  C   UNL     1       5.878   4.786  18.731  0.00  0.00    +0.000 A 
ATOM     33  C   UNL     1       6.922   5.654  19.044  0.00  0.00    +0.000 A 
BRANCH  28  35
ATOM     34  C   UNL     1       8.210   9.023  18.002  0.00  0.00    +0.000 C 
ATOM     35  C   UNL     1       8.428   7.599  18.483  0.00  0.00    +0.000 C 
ENDBRANCH  28  35
ENDBRANCH  27  31
ENDBRANCH  26  27
ENDBRANCH   1  26
TORSDOF 11
ENDMDL
MODEL 8
REMARK VINA RESULT:      -7.1      3.215     11.962
REMARK  Name = 
REMARK  13 active torsions:
REMARK  status: ('A' for Active; 'I' for Inactive)
REMARK    1  A    between atoms: C_1  and  C_2
REMARK    2  A    between atoms: C_2  and  C_3
REMARK    3  A    between atoms: C_6  and  C_7
REMARK    4  A    between atoms: C_7  and  O_8
REMARK    5  A    between atoms: O_8  and  C_9
REMARK    6  A    between atoms: C_12  and  C_13
REMARK    7  A    between atoms: C_16  and  C_18
REMARK    8  A    between atoms: C_20  and  O_21
REMARK    9  A    between atoms: O_21  and  C_22
REMARK   10  A    between atoms: C_22  and  C_23
REMARK   11  A    between atoms: C_23  and  O_24
REMARK   12  A    between atoms: C_30  and  O_31
REMARK   13  A    between atoms: O_31  and  C_32
REMARK                            x       y       z     vdW  Elec       q    Type
REMARK                         _______ _______ _______ _____ _____    ______ ____
ROOT
ATOM      1  C   UNL     1       0.074  10.909  19.651  0.00  0.00    +0.000 A 
ATOM      2  C   UNL     1       0.382  10.378  18.377  0.00  0.00    +0.000 A 
ATOM      3  C   UNL     1       1.197   9.254  18.213  0.00  0.00    +0.000 A 
ATOM      4  C   UNL     1       1.741   8.588  19.312  0.00  0.00    +0.000 A 
ATOM      5  C   UNL     1       1.407   9.127  20.572  0.00  0.00    +0.000 A 
ATOM      6  C   UNL     1       0.594  10.265  20.775  0.00  0.00    +0.000 A 
ENDROOT
BRANCH   4   7
ATOM      7  C   UNL     1       2.634   7.286  19.197  0.00  0.00    +0.000 C 
ATOM      8  C   UNL     1       2.003   5.885  19.002  0.00  0.00    +0.000 C 
ATOM      9  N   UNL     1       3.126   5.620  18.118  0.00  0.00    +0.000 N 
ATOM     10  C   UNL     1       3.589   4.441  17.600  0.00  0.00    +0.000 C 
ATOM     11  O   UNL     1       3.054   3.361  17.859  0.00  0.00    +0.000 OA
ATOM     12  C   UNL     1       3.368   7.023  17.858  0.00  0.00    +0.000 C 
BRANCH  10  13
ATOM     13  C   UNL     1       4.807   4.470  16.712  0.00  0.00    +0.000 A 
ATOM     14  C   UNL     1       4.635   4.495  15.333  0.00  0.00    +0.000 A 
ATOM     15  C   UNL     1       5.778   4.433  14.530  0.00  0.00    +0.000 A 
ATOM     16  C   UNL     1       7.030   4.328  15.126  0.00  0.00    +0.000 A 
ATOM     17  C   UNL     1       7.107   4.331  16.504  0.00  0.00    +0.000 A 
ATOM     18  N   UNL     1       6.028   4.404  17.305  0.00  0.00    +0.000 NA
BRANCH  15  19
ATOM     19  O   UNL     1       5.794   4.403  13.163  0.00  0.00    +0.000 OA
BRANCH  19  20
ATOM     20  C   UNL     1       6.506   3.316  12.556  0.00  0.00    +0.000 C 
BRANCH  20  21
ATOM     21  C   UNL     1       5.515   2.532  11.705  0.00  0.00    +0.000 C 
BRANCH  21  22
ATOM     22  O   UNL     1       6.077   1.281  11.313  0.00  0.00    +0.000 OA
ATOM     23  H   UNL     1       5.378   0.614  11.443  0.00  0.00    +0.000 HD
ENDBRANCH  21  22
ENDBRANCH  20  21
ENDBRANCH  19  20
ENDBRANCH  15  19
ENDBRANCH  10  13
ENDBRANCH   4   7
BRANCH   6  24
ATOM     24  O   UNL     1       0.520  10.517  22.112  0.00  0.00    +0.000 OA
ATOM     25  C   UNL     1      -0.595  10.185  22.907  0.00  0.00    +0.000 C 
ENDBRANCH   6  24
BRANCH   1  26
ATOM     26  O   UNL     1      -0.750  11.995  19.544  0.00  0.00    +0.000 OA
BRANCH  26  27
ATOM     27  C   UNL     1      -1.874  12.067  20.408  0.00  0.00    +0.000 C 
BRANCH  27  31
ATOM     28  C   UNL     1      -5.544  12.238  18.157  0.00  0.00    +0.000 A 
ATOM     29  C   UNL     1      -5.481  12.767  19.450  0.00  0.00    +0.000 A 
ATOM     30  C   UNL     1      -4.301  12.684  20.185  0.00  0.00    +0.000 A 
ATOM     31  C   UNL     1      -3.162  12.084  19.631  0.00  0.00    +0.000 A 
ATOM     32  C   UNL     1      -3.209  11.600  18.319  0.00  0.00    +0.000 A 
ATOM     33  C   UNL     1      -4.392  11.679  17.588  0.00  0.00    +0.000 A 
BRANCH  28  35
ATOM     34  C   UNL     1      -7.207  13.660  16.918  0.00  0.00    +0.000 C 
ATOM     35  C   UNL     1      -6.839  12.264  17.390  0.00  0.00    +0.000 C 
ENDBRANCH  28  35
ENDBRANCH  27  31
ENDBRANCH  26  27
ENDBRANCH   1  26
TORSDOF 11
ENDMDL
MODEL 9
REMARK VINA RESULT:      -7.1      1.789      2.867
REMARK  Name = 
REMARK  13 active torsions:
REMARK  status: ('A' for Active; 'I' for Inactive)
REMARK    1  A    between atoms: C_1  and  C_2
REMARK    2  A    between atoms: C_2  and  C_3
REMARK    3  A    between atoms: C_6  and  C_7
REMARK    4  A    between atoms: C_7  and  O_8
REMARK    5  A    between atoms: O_8  and  C_9
REMARK    6  A    between atoms: C_12  and  C_13
REMARK    7  A    between atoms: C_16  and  C_18
REMARK    8  A    between atoms: C_20  and  O_21
REMARK    9  A    between atoms: O_21  and  C_22
REMARK   10  A    between atoms: C_22  and  C_23
REMARK   11  A    between atoms: C_23  and  O_24
REMARK   12  A    between atoms: C_30  and  O_31
REMARK   13  A    between atoms: O_31  and  C_32
REMARK                            x       y       z     vdW  Elec       q    Type
REMARK                         _______ _______ _______ _____ _____    ______ ____
ROOT
ATOM      1  C   UNL     1       2.443   4.749  18.957  0.00  0.00    +0.000 A 
ATOM      2  C   UNL     1       2.375   5.706  17.918  0.00  0.00    +0.000 A 
ATOM      3  C   UNL     1       2.103   7.056  18.160  0.00  0.00    +0.000 A 
ATOM      4  C   UNL     1       1.896   7.531  19.456  0.00  0.00    +0.000 A 
ATOM      5  C   UNL     1       1.984   6.562  20.476  0.00  0.00    +0.000 A 
ATOM      6  C   UNL     1       2.248   5.189  20.268  0.00  0.00    +0.000 A 
ENDROOT
BRANCH   4   7
ATOM      7  C   UNL     1       1.627   9.052  19.801  0.00  0.00    +0.000 C 
ATOM      8  C   UNL     1       1.243  10.076  18.704  0.00  0.00    +0.000 C 
ATOM      9  N   UNL     1       0.351  10.646  19.700  0.00  0.00    +0.000 N 
ATOM     10  C   UNL     1      -0.308  11.846  19.719  0.00  0.00    +0.000 C 
ATOM     11  O   UNL     1      -0.199  12.663  18.802  0.00  0.00    +0.000 OA
ATOM     12  C   UNL     1       0.279   9.420  20.467  0.00  0.00    +0.000 C 
BRANCH  10  13
ATOM     13  C   UNL     1      -1.165  12.181  20.914  0.00  0.00    +0.000 A 
ATOM     14  C   UNL     1      -2.542  12.263  20.753  0.00  0.00    +0.000 A 
ATOM     15  C   UNL     1      -3.307  12.662  21.853  0.00  0.00    +0.000 A 
ATOM     16  C   UNL     1      -2.674  12.979  23.050  0.00  0.00    +0.000 A 
ATOM     17  C   UNL     1      -1.302  12.850  23.124  0.00  0.00    +0.000 A 
ATOM     18  N   UNL     1      -0.538  12.455  22.088  0.00  0.00    +0.000 NA
BRANCH  15  19
ATOM     19  O   UNL     1      -4.664  12.837  21.863  0.00  0.00    +0.000 OA
BRANCH  19  20
ATOM     20  C   UNL     1      -5.338  12.662  20.608  0.00  0.00    +0.000 C 
BRANCH  20  21
ATOM     21  C   UNL     1      -6.679  11.999  20.894  0.00  0.00    +0.000 C 
BRANCH  21  22
ATOM     22  O   UNL     1      -7.503  12.862  21.676  0.00  0.00    +0.000 OA
ATOM     23  H   UNL     1      -8.419  12.712  21.375  0.00  0.00    +0.000 HD
ENDBRANCH  21  22
ENDBRANCH  20  21
ENDBRANCH  19  20
ENDBRANCH  15  19
ENDBRANCH  10  13
ENDBRANCH   4   7
BRANCH   6  24
ATOM     24  O   UNL     1       2.221   4.550  21.471  0.00  0.00    +0.000 OA
ATOM     25  C   UNL     1       1.886   3.190  21.623  0.00  0.00    +0.000 C 
ENDBRANCH   6  24
BRANCH   1  26
ATOM     26  O   UNL     1       2.737   3.508  18.464  0.00  0.00    +0.000 OA
BRANCH  26  27
ATOM     27  C   UNL     1       4.094   3.094  18.468  0.00  0.00    +0.000 C 
BRANCH  27  31
ATOM     28  C   UNL     1       6.821   6.240  17.360  0.00  0.00    +0.000 A 
ATOM     29  C   UNL     1       6.650   5.892  18.704  0.00  0.00    +0.000 A 
ATOM     30  C   UNL     1       5.746   4.894  19.060  0.00  0.00    +0.000 A 
ATOM     31  C   UNL     1       5.012   4.219  18.075  0.00  0.00    +0.000 A 
ATOM     32  C   UNL     1       5.219   4.531  16.727  0.00  0.00    +0.000 A 
ATOM     33  C   UNL     1       6.120   5.534  16.374  0.00  0.00    +0.000 A 
BRANCH  28  35
ATOM     34  C   UNL     1       8.153   8.210  18.176  0.00  0.00    +0.000 C 
ATOM     35  C   UNL     1       7.744   7.367  16.981  0.00  0.00    +0.000 C 
ENDBRANCH  28  35
ENDBRANCH  27  31
ENDBRANCH  26  27
ENDBRANCH   1  26
TORSDOF 11
ENDMDL
