MODEL 1
REMARK VINA RESULT:      -6.6      0.000      0.000
REMARK  Name = 
REMARK  11 active torsions:
REMARK  status: ('A' for Active; 'I' for Inactive)
REMARK    1  A    between atoms: C_1  and  C_2
REMARK    2  A    between atoms: C_5  and  C_6
REMARK    3  A    between atoms: C_7  and  C_8
REMARK    4  A    between atoms: C_11  and  N_12
REMARK    5  A    between atoms: C_13  and  C_15
REMARK    6  A    between atoms: C_19  and  C_20
REMARK    7  A    between atoms: C_21  and  C_22
REMARK    8  A    between atoms: C_22  and  O_24
REMARK    9  A    between atoms: O_24  and  C_25
REMARK   10  A    between atoms: C_25  and  C_26
REMARK   11  A    between atoms: C_25  and  C_27
REMARK                            x       y       z     vdW  Elec       q    Type
REMARK                         _______ _______ _______ _____ _____    ______ ____
ROOT
ATOM      1  C   UNL     1       1.452   9.619  18.637  0.00  0.00    +0.000 A 
ATOM      2  C   UNL     1       2.214   9.382  17.504  0.00  0.00    +0.000 A 
ATOM      3  S   UNL     1       2.877   7.814  17.450  0.00  0.00    +0.000 S 
ATOM      4  C   UNL     1       2.438   7.548  19.062  0.00  0.00    +0.000 A 
ATOM      5  C   UNL     1       1.578   8.507  19.578  0.00  0.00    +0.000 A 
ENDROOT
BRANCH   1  12
ATOM      6  C   UNL     1       1.908  14.424  19.931  0.00  0.00    +0.000 C 
ATOM      7  C   UNL     1       1.042  13.308  19.423  0.00  0.00    +0.000 A 
ATOM      8  C   UNL     1      -0.295  13.526  19.108  0.00  0.00    +0.000 A 
ATOM      9  C   UNL     1      -1.097  12.465  18.689  0.00  0.00    +0.000 A 
ATOM     10  C   UNL     1      -0.586  11.158  18.572  0.00  0.00    +0.000 A 
ATOM     11  C   UNL     1      -1.567  10.074  18.203  0.00  0.00    +0.000 C 
ATOM     12  C   UNL     1       0.787  10.928  18.833  0.00  0.00    +0.000 A 
ATOM     13  C   UNL     1       1.574  12.019  19.263  0.00  0.00    +0.000 A 
ENDBRANCH   1  12
BRANCH   4  14
ATOM     14  N   UNL     1       2.996   6.399  19.588  0.00  0.00    +0.000 N 
ATOM     15  C   UNL     1       2.656   5.190  18.997  0.00  0.00    +0.000 C 
ATOM     16  O   UNL     1       1.886   5.064  18.044  0.00  0.00    +0.000 OA
ATOM     17  H   UNL     1       3.019   6.352  20.600  0.00  0.00    +0.000 HD
BRANCH  15  18
ATOM     18  C   UNL     1       3.252   4.033  19.653  0.00  0.00    +0.000 A 
ATOM     19  C   UNL     1       4.512   3.403  19.428  0.00  0.00    +0.000 A 
ATOM     20  C   UNL     1       4.565   2.319  20.272  0.00  0.00    +0.000 A 
ATOM     21  O   UNL     1       3.436   2.242  21.020  0.00  0.00    +0.000 OA
ATOM     22  C   UNL     1       2.636   3.280  20.640  0.00  0.00    +0.000 A 
ATOM     23  C   UNL     1       1.326   3.376  21.322  0.00  0.00    +0.000 C 
ENDBRANCH  15  18
ENDBRANCH   4  14
BRANCH   5  24
ATOM     24  C   UNL     1       0.877   8.379  20.859  0.00  0.00    +0.000 C 
ATOM     25  O   UNL     1       0.387   7.328  21.259  0.00  0.00    +0.000 OA
BRANCH  24  26
ATOM     26  O   UNL     1       0.846   9.536  21.571  0.00  0.00    +0.000 OA
BRANCH  26  27
ATOM     27  C   UNL     1      -0.307   9.791  22.388  0.00  0.00    +0.000 C 
ATOM     28  C   UNL     1       0.050   9.477  23.833  0.00  0.00    +0.000 C 
ATOM     29  C   UNL     1      -0.651  11.268  22.226  0.00  0.00    +0.000 C 
ENDBRANCH  26  27
ENDBRANCH  24  26
ENDBRANCH   5  24
TORSDOF 6
ENDMDL
MODEL 2
REMARK VINA RESULT:      -6.4      0.974      1.488
REMARK  Name = 
REMARK  11 active torsions:
REMARK  status: ('A' for Active; 'I' for Inactive)
REMARK    1  A    between atoms: C_1  and  C_2
REMARK    2  A    between atoms: C_5  and  C_6
REMARK    3  A    between atoms: C_7  and  C_8
REMARK    4  A    between atoms: C_11  and  N_12
REMARK    5  A    between atoms: C_13  and  C_15
REMARK    6  A    between atoms: C_19  and  C_20
REMARK    7  A    between atoms: C_21  and  C_22
REMARK    8  A    between atoms: C_22  and  O_24
REMARK    9  A    between atoms: O_24  and  C_25
REMARK   10  A    between atoms: C_25  and  C_26
REMARK   11  A    between atoms: C_25  and  C_27
REMARK                            x       y       z     vdW  Elec       q    Type
REMARK                         _______ _______ _______ _____ _____    ______ ____
ROOT
ATOM      1  C   UNL     1       1.168   9.677  18.985  0.00  0.00    +0.000 A 
ATOM      2  C   UNL     1       2.042   9.733  17.910  0.00  0.00    +0.000 A 
ATOM      3  S   UNL     1       2.899   8.283  17.658  0.00  0.00    +0.000 S 
ATOM      4  C   UNL     1       2.370   7.684  19.149  0.00  0.00    +0.000 A 
ATOM      5  C   UNL     1       1.357   8.434  19.731  0.00  0.00    +0.000 A 
ENDROOT
BRANCH   1  12
ATOM      6  C   UNL     1       0.787  13.997  21.467  0.00  0.00    +0.000 C 
ATOM      7  C   UNL     1       0.180  13.003  20.520  0.00  0.00    +0.000 A 
ATOM      8  C   UNL     1      -1.078  13.216  19.968  0.00  0.00    +0.000 A 
ATOM      9  C   UNL     1      -1.647  12.256  19.133  0.00  0.00    +0.000 A 
ATOM     10  C   UNL     1      -0.975  11.056  18.825  0.00  0.00    +0.000 A 
ATOM     11  C   UNL     1      -1.726  10.050  17.990  0.00  0.00    +0.000 C 
ATOM     12  C   UNL     1       0.330  10.848  19.331  0.00  0.00    +0.000 A 
ATOM     13  C   UNL     1       0.879  11.834  20.181  0.00  0.00    +0.000 A 
ENDBRANCH   1  12
BRANCH   4  14
ATOM     14  N   UNL     1       3.024   6.527  19.527  0.00  0.00    +0.000 N 
ATOM     15  C   UNL     1       2.679   5.352  18.873  0.00  0.00    +0.000 C 
ATOM     16  O   UNL     1       1.826   5.261  17.990  0.00  0.00    +0.000 OA
ATOM     17  H   UNL     1       3.147   6.404  20.524  0.00  0.00    +0.000 HD
BRANCH  15  18
ATOM     18  C   UNL     1       3.384   4.179  19.376  0.00  0.00    +0.000 A 
ATOM     19  C   UNL     1       2.919   3.121  20.212  0.00  0.00    +0.000 A 
ATOM     20  C   UNL     1       3.995   2.295  20.437  0.00  0.00    +0.000 A 
ATOM     21  O   UNL     1       5.091   2.753  19.783  0.00  0.00    +0.000 OA
ATOM     22  C   UNL     1       4.722   3.901  19.144  0.00  0.00    +0.000 A 
ATOM     23  C   UNL     1       5.784   4.589  18.376  0.00  0.00    +0.000 C 
ENDBRANCH  15  18
ENDBRANCH   4  14
BRANCH   5  24
ATOM     24  C   UNL     1       0.578   8.001  20.895  0.00  0.00    +0.000 C 
ATOM     25  O   UNL     1       0.673   6.885  21.394  0.00  0.00    +0.000 OA
BRANCH  24  26
ATOM     26  O   UNL     1      -0.242   8.969  21.380  0.00  0.00    +0.000 OA
BRANCH  26  27
ATOM     27  C   UNL     1      -0.160   9.279  22.780  0.00  0.00    +0.000 C 
ATOM     28  C   UNL     1       1.300   9.522  23.133  0.00  0.00    +0.000 C 
ATOM     29  C   UNL     1      -0.987  10.540  23.007  0.00  0.00    +0.000 C 
ENDBRANCH  26  27
ENDBRANCH  24  26
ENDBRANCH   5  24
TORSDOF 6
ENDMDL
MODEL 3
REMARK VINA RESULT:      -6.2      2.129      7.301
REMARK  Name = 
REMARK  11 active torsions:
REMARK  status: ('A' for Active; 'I' for Inactive)
REMARK    1  A    between atoms: C_1  and  C_2
REMARK    2  A    between atoms: C_5  and  C_6
REMARK    3  A    between atoms: C_7  and  C_8
REMARK    4  A    between atoms: C_11  and  N_12
REMARK    5  A    between atoms: C_13  and  C_15
REMARK    6  A    between atoms: C_19  and  C_20
REMARK    7  A    between atoms: C_21  and  C_22
REMARK    8  A    between atoms: C_22  and  O_24
REMARK    9  A    between atoms: O_24  and  C_25
REMARK   10  A    between atoms: C_25  and  C_26
REMARK   11  A    between atoms: C_25  and  C_27
REMARK                            x       y       z     vdW  Elec       q    Type
REMARK                         _______ _______ _______ _____ _____    ______ ____
ROOT
ATOM      1  C   UNL     1       2.858   7.212  18.248  0.00  0.00    +0.000 A 
ATOM      2  C   UNL     1       2.747   8.258  17.345  0.00  0.00    +0.000 A 
ATOM      3  S   UNL     1       1.876   9.589  17.955  0.00  0.00    +0.000 S 
ATOM      4  C   UNL     1       1.364   8.675  19.283  0.00  0.00    +0.000 A 
ATOM      5  C   UNL     1       2.030   7.466  19.426  0.00  0.00    +0.000 A 
ENDROOT
BRANCH   1  12
ATOM      6  C   UNL     1       7.294   4.976  17.710  0.00  0.00    +0.000 C 
ATOM      7  C   UNL     1       5.797   4.882  17.676  0.00  0.00    +0.000 A 
ATOM      8  C   UNL     1       5.162   3.682  17.370  0.00  0.00    +0.000 A 
ATOM      9  C   UNL     1       3.771   3.628  17.291  0.00  0.00    +0.000 A 
ATOM     10  C   UNL     1       2.975   4.769  17.515  0.00  0.00    +0.000 A 
ATOM     11  C   UNL     1       1.490   4.614  17.308  0.00  0.00    +0.000 C 
ATOM     12  C   UNL     1       3.601   5.984  17.884  0.00  0.00    +0.000 A 
ATOM     13  C   UNL     1       5.012   6.012  17.950  0.00  0.00    +0.000 A 
ENDBRANCH   1  12
BRANCH   4  14
ATOM     14  N   UNL     1       0.379   9.303  20.020  0.00  0.00    +0.000 N 
ATOM     15  C   UNL     1       0.659  10.567  20.522  0.00  0.00    +0.000 C 
ATOM     16  O   UNL     1       1.724  11.166  20.368  0.00  0.00    +0.000 OA
ATOM     17  H   UNL     1      -0.110   8.714  20.683  0.00  0.00    +0.000 HD
BRANCH  15  18
ATOM     18  C   UNL     1      -0.420  11.125  21.328  0.00  0.00    +0.000 A 
ATOM     19  C   UNL     1      -1.284  12.228  21.061  0.00  0.00    +0.000 A 
ATOM     20  C   UNL     1      -2.088  12.375  22.167  0.00  0.00    +0.000 A 
ATOM     21  O   UNL     1      -1.798  11.428  23.094  0.00  0.00    +0.000 OA
ATOM     22  C   UNL     1      -0.782  10.673  22.587  0.00  0.00    +0.000 A 
ATOM     23  C   UNL     1      -0.287   9.580  23.454  0.00  0.00    +0.000 C 
ENDBRANCH  15  18
ENDBRANCH   4  14
BRANCH   5  24
ATOM     24  C   UNL     1       1.935   6.609  20.612  0.00  0.00    +0.000 C 
ATOM     25  O   UNL     1       1.270   6.898  21.602  0.00  0.00    +0.000 OA
BRANCH  24  26
ATOM     26  O   UNL     1       2.636   5.452  20.495  0.00  0.00    +0.000 OA
BRANCH  26  27
ATOM     27  C   UNL     1       2.092   4.272  21.107  0.00  0.00    +0.000 C 
ATOM     28  C   UNL     1       0.786   3.926  20.408  0.00  0.00    +0.000 C 
ATOM     29  C   UNL     1       3.117   3.159  20.919  0.00  0.00    +0.000 C 
ENDBRANCH  26  27
ENDBRANCH  24  26
ENDBRANCH   5  24
TORSDOF 6
ENDMDL
MODEL 4
REMARK VINA RESULT:      -6.2      2.506      3.949
REMARK  Name = 
REMARK  11 active torsions:
REMARK  status: ('A' for Active; 'I' for Inactive)
REMARK    1  A    between atoms: C_1  and  C_2
REMARK    2  A    between atoms: C_5  and  C_6
REMARK    3  A    between atoms: C_7  and  C_8
REMARK    4  A    between atoms: C_11  and  N_12
REMARK    5  A    between atoms: C_13  and  C_15
REMARK    6  A    between atoms: C_19  and  C_20
REMARK    7  A    between atoms: C_21  and  C_22
REMARK    8  A    between atoms: C_22  and  O_24
REMARK    9  A    between atoms: O_24  and  C_25
REMARK   10  A    between atoms: C_25  and  C_26
REMARK   11  A    between atoms: C_25  and  C_27
REMARK                            x       y       z     vdW  Elec       q    Type
REMARK                         _______ _______ _______ _____ _____    ______ ____
ROOT
ATOM      1  C   UNL     1      -0.915  12.749  19.212  0.00  0.00    +0.000 A 
ATOM      2  C   UNL     1      -1.594  12.173  18.150  0.00  0.00    +0.000 A 
ATOM      3  S   UNL     1      -1.332  10.496  18.009  0.00  0.00    +0.000 S 
ATOM      4  C   UNL     1      -0.076  10.573  19.139  0.00  0.00    +0.000 A 
ATOM      5  C   UNL     1      -0.003  11.781  19.819  0.00  0.00    +0.000 A 
ENDROOT
BRANCH   1  12
ATOM      6  C   UNL     1       0.675  17.386  18.244  0.00  0.00    +0.000 C 
ATOM      7  C   UNL     1      -0.287  16.482  18.959  0.00  0.00    +0.000 A 
ATOM      8  C   UNL     1      -1.275  17.001  19.789  0.00  0.00    +0.000 A 
ATOM      9  C   UNL     1      -2.124  16.143  20.486  0.00  0.00    +0.000 A 
ATOM     10  C   UNL     1      -2.010  14.743  20.374  0.00  0.00    +0.000 A 
ATOM     11  C   UNL     1      -2.917  13.914  21.247  0.00  0.00    +0.000 C 
ATOM     12  C   UNL     1      -1.048  14.197  19.489  0.00  0.00    +0.000 A 
ATOM     13  C   UNL     1      -0.197  15.090  18.801  0.00  0.00    +0.000 A 
ENDBRANCH   1  12
BRANCH   4  14
ATOM     14  N   UNL     1       0.657   9.404  19.210  0.00  0.00    +0.000 N 
ATOM     15  C   UNL     1       1.765   9.289  18.383  0.00  0.00    +0.000 C 
ATOM     16  O   UNL     1       2.139  10.147  17.582  0.00  0.00    +0.000 OA
ATOM     17  H   UNL     1       0.111   8.552  19.261  0.00  0.00    +0.000 HD
BRANCH  15  18
ATOM     18  C   UNL     1       2.442   8.003  18.492  0.00  0.00    +0.000 A 
ATOM     19  C   UNL     1       3.314   7.347  17.573  0.00  0.00    +0.000 A 
ATOM     20  C   UNL     1       3.632   6.132  18.132  0.00  0.00    +0.000 A 
ATOM     21  O   UNL     1       3.036   5.994  19.342  0.00  0.00    +0.000 OA
ATOM     22  C   UNL     1       2.308   7.127  19.558  0.00  0.00    +0.000 A 
ATOM     23  C   UNL     1       1.549   7.181  20.827  0.00  0.00    +0.000 C 
ENDBRANCH  15  18
ENDBRANCH   4  14
BRANCH   5  24
ATOM     24  C   UNL     1       0.839  12.013  20.997  0.00  0.00    +0.000 C 
ATOM     25  O   UNL     1       2.042  12.246  20.931  0.00  0.00    +0.000 OA
BRANCH  24  26
ATOM     26  O   UNL     1       0.150  11.967  22.166  0.00  0.00    +0.000 OA
BRANCH  26  27
ATOM     27  C   UNL     1      -0.764  10.877  22.364  0.00  0.00    +0.000 C 
ATOM     28  C   UNL     1      -0.009   9.729  23.018  0.00  0.00    +0.000 C 
ATOM     29  C   UNL     1      -1.873  11.385  23.281  0.00  0.00    +0.000 C 
ENDBRANCH  26  27
ENDBRANCH  24  26
ENDBRANCH   5  24
TORSDOF 6
ENDMDL
MODEL 5
REMARK VINA RESULT:      -6.2      2.101      7.397
REMARK  Name = 
REMARK  11 active torsions:
REMARK  status: ('A' for Active; 'I' for Inactive)
REMARK    1  A    between atoms: C_1  and  C_2
REMARK    2  A    between atoms: C_5  and  C_6
REMARK    3  A    between atoms: C_7  and  C_8
REMARK    4  A    between atoms: C_11  and  N_12
REMARK    5  A    between atoms: C_13  and  C_15
REMARK    6  A    between atoms: C_19  and  C_20
REMARK    7  A    between atoms: C_21  and  C_22
REMARK    8  A    between atoms: C_22  and  O_24
REMARK    9  A    between atoms: O_24  and  C_25
REMARK   10  A    between atoms: C_25  and  C_26
REMARK   11  A    between atoms: C_25  and  C_27
REMARK                            x       y       z     vdW  Elec       q    Type
REMARK                         _______ _______ _______ _____ _____    ______ ____
ROOT
ATOM      1  C   UNL     1       2.797   7.341  18.329  0.00  0.00    +0.000 A 
ATOM      2  C   UNL     1       2.683   8.393  17.433  0.00  0.00    +0.000 A 
ATOM      3  S   UNL     1       1.791   9.709  18.044  0.00  0.00    +0.000 S 
ATOM      4  C   UNL     1       1.276   8.780  19.360  0.00  0.00    +0.000 A 
ATOM      5  C   UNL     1       1.955   7.577  19.501  0.00  0.00    +0.000 A 
ENDROOT
BRANCH   1  12
ATOM      6  C   UNL     1       7.264   5.161  17.820  0.00  0.00    +0.000 C 
ATOM      7  C   UNL     1       5.768   5.049  17.770  0.00  0.00    +0.000 A 
ATOM      8  C   UNL     1       5.151   3.845  17.448  0.00  0.00    +0.000 A 
ATOM      9  C   UNL     1       3.762   3.775  17.354  0.00  0.00    +0.000 A 
ATOM     10  C   UNL     1       2.951   4.905  17.579  0.00  0.00    +0.000 A 
ATOM     11  C   UNL     1       1.469   4.735  17.355  0.00  0.00    +0.000 C 
ATOM     12  C   UNL     1       3.558   6.125  17.964  0.00  0.00    +0.000 A 
ATOM     13  C   UNL     1       4.968   6.169  18.044  0.00  0.00    +0.000 A 
ENDBRANCH   1  12
BRANCH   4  14
ATOM     14  N   UNL     1       0.276   9.390  20.092  0.00  0.00    +0.000 N 
ATOM     15  C   UNL     1       0.593  10.569  20.753  0.00  0.00    +0.000 C 
ATOM     16  O   UNL     1       1.702  11.106  20.745  0.00  0.00    +0.000 OA
ATOM     17  H   UNL     1      -0.298   8.767  20.647  0.00  0.00    +0.000 HD
BRANCH  15  18
ATOM     18  C   UNL     1      -0.509  11.109  21.538  0.00  0.00    +0.000 A 
ATOM     19  C   UNL     1      -0.867  10.870  22.899  0.00  0.00    +0.000 A 
ATOM     20  C   UNL     1      -2.021  11.580  23.133  0.00  0.00    +0.000 A 
ATOM     21  O   UNL     1      -2.396  12.259  22.021  0.00  0.00    +0.000 OA
ATOM     22  C   UNL     1      -1.481  11.969  21.051  0.00  0.00    +0.000 A 
ATOM     23  C   UNL     1      -1.712  12.596  19.730  0.00  0.00    +0.000 C 
ENDBRANCH  15  18
ENDBRANCH   4  14
BRANCH   5  24
ATOM     24  C   UNL     1       1.858   6.710  20.680  0.00  0.00    +0.000 C 
ATOM     25  O   UNL     1       1.178   6.983  21.664  0.00  0.00    +0.000 OA
BRANCH  24  26
ATOM     26  O   UNL     1       2.576   5.563  20.562  0.00  0.00    +0.000 OA
BRANCH  26  27
ATOM     27  C   UNL     1       2.042   4.372  21.160  0.00  0.00    +0.000 C 
ATOM     28  C   UNL     1       0.763   3.998  20.426  0.00  0.00    +0.000 C 
ATOM     29  C   UNL     1       3.095   3.281  20.999  0.00  0.00    +0.000 C 
ENDBRANCH  26  27
ENDBRANCH  24  26
ENDBRANCH   5  24
TORSDOF 6
ENDMDL
MODEL 6
REMARK VINA RESULT:      -6.1      4.087      8.709
REMARK  Name = 
REMARK  11 active torsions:
REMARK  status: ('A' for Active; 'I' for Inactive)
REMARK    1  A    between atoms: C_1  and  C_2
REMARK    2  A    between atoms: C_5  and  C_6
REMARK    3  A    between atoms: C_7  and  C_8
REMARK    4  A    between atoms: C_11  and  N_12
REMARK    5  A    between atoms: C_13  and  C_15
REMARK    6  A    between atoms: C_19  and  C_20
REMARK    7  A    between atoms: C_21  and  C_22
REMARK    8  A    between atoms: C_22  and  O_24
REMARK    9  A    between atoms: O_24  and  C_25
REMARK   10  A    between atoms: C_25  and  C_26
REMARK   11  A    between atoms: C_25  and  C_27
REMARK                            x       y       z     vdW  Elec       q    Type
REMARK                         _______ _______ _______ _____ _____    ______ ____
ROOT
ATOM      1  C   UNL     1      -0.552  10.597  19.357  0.00  0.00    +0.000 A 
ATOM      2  C   UNL     1      -1.669  10.455  18.549  0.00  0.00    +0.000 A 
ATOM      3  S   UNL     1      -2.605  11.874  18.433  0.00  0.00    +0.000 S 
ATOM      4  C   UNL     1      -1.731  12.582  19.696  0.00  0.00    +0.000 A 
ATOM      5  C   UNL     1      -0.582  11.887  20.046  0.00  0.00    +0.000 A 
ENDROOT
BRANCH   1  12
ATOM      6  C   UNL     1       3.081   7.754  17.436  0.00  0.00    +0.000 C 
ATOM      7  C   UNL     1       2.210   8.106  18.607  0.00  0.00    +0.000 A 
ATOM      8  C   UNL     1       2.326   7.428  19.816  0.00  0.00    +0.000 A 
ATOM      9  C   UNL     1       1.472   7.733  20.874  0.00  0.00    +0.000 A 
ATOM     10  C   UNL     1       0.477   8.724  20.755  0.00  0.00    +0.000 A 
ATOM     11  C   UNL     1      -0.451   8.901  21.930  0.00  0.00    +0.000 C 
ATOM     12  C   UNL     1       0.381   9.464  19.552  0.00  0.00    +0.000 A 
ATOM     13  C   UNL     1       1.255   9.129  18.494  0.00  0.00    +0.000 A 
ENDBRANCH   1  12
BRANCH   4  14
ATOM     14  N   UNL     1      -2.301  13.754  20.154  0.00  0.00    +0.000 N 
ATOM     15  C   UNL     1      -3.127  13.673  21.268  0.00  0.00    +0.000 C 
ATOM     16  O   UNL     1      -3.397  12.635  21.872  0.00  0.00    +0.000 OA
ATOM     17  H   UNL     1      -2.664  14.370  19.437  0.00  0.00    +0.000 HD
BRANCH  15  18
ATOM     18  C   UNL     1      -3.721  14.950  21.644  0.00  0.00    +0.000 A 
ATOM     19  C   UNL     1      -4.163  16.030  20.823  0.00  0.00    +0.000 A 
ATOM     20  C   UNL     1      -4.591  17.021  21.674  0.00  0.00    +0.000 A 
ATOM     21  O   UNL     1      -4.465  16.627  22.965  0.00  0.00    +0.000 OA
ATOM     22  C   UNL     1      -3.932  15.371  22.947  0.00  0.00    +0.000 A 
ATOM     23  C   UNL     1      -3.686  14.749  24.267  0.00  0.00    +0.000 C 
ENDBRANCH  15  18
ENDBRANCH   4  14
BRANCH   5  24
ATOM     24  C   UNL     1       0.456  12.410  20.940  0.00  0.00    +0.000 C 
ATOM     25  O   UNL     1       0.227  12.815  22.075  0.00  0.00    +0.000 OA
BRANCH  24  26
ATOM     26  O   UNL     1       1.700  12.376  20.395  0.00  0.00    +0.000 OA
BRANCH  26  27
ATOM     27  C   UNL     1       2.029  13.369  19.413  0.00  0.00    +0.000 C 
ATOM     28  C   UNL     1       3.080  14.299  20.002  0.00  0.00    +0.000 C 
ATOM     29  C   UNL     1       2.583  12.630  18.199  0.00  0.00    +0.000 C 
ENDBRANCH  26  27
ENDBRANCH  24  26
ENDBRANCH   5  24
TORSDOF 6
ENDMDL
MODEL 7
REMARK VINA RESULT:      -6.1      0.941      1.912
REMARK  Name = 
REMARK  11 active torsions:
REMARK  status: ('A' for Active; 'I' for Inactive)
REMARK    1  A    between atoms: C_1  and  C_2
REMARK    2  A    between atoms: C_5  and  C_6
REMARK    3  A    between atoms: C_7  and  C_8
REMARK    4  A    between atoms: C_11  and  N_12
REMARK    5  A    between atoms: C_13  and  C_15
REMARK    6  A    between atoms: C_19  and  C_20
REMARK    7  A    between atoms: C_21  and  C_22
REMARK    8  A    between atoms: C_22  and  O_24
REMARK    9  A    between atoms: O_24  and  C_25
REMARK   10  A    between atoms: C_25  and  C_26
REMARK   11  A    between atoms: C_25  and  C_27
REMARK                            x       y       z     vdW  Elec       q    Type
REMARK                         _______ _______ _______ _____ _____    ______ ____
ROOT
ATOM      1  C   UNL     1       0.983   9.672  18.934  0.00  0.00    +0.000 A 
ATOM      2  C   UNL     1       1.898   9.737  17.895  0.00  0.00    +0.000 A 
ATOM      3  S   UNL     1       2.802   8.307  17.698  0.00  0.00    +0.000 S 
ATOM      4  C   UNL     1       2.229   7.713  19.174  0.00  0.00    +0.000 A 
ATOM      5  C   UNL     1       1.175   8.443  19.705  0.00  0.00    +0.000 A 
ENDROOT
BRANCH   1  12
ATOM      6  C   UNL     1      -3.558  11.716  18.528  0.00  0.00    +0.000 C 
ATOM      7  C   UNL     1      -2.159  11.793  19.067  0.00  0.00    +0.000 A 
ATOM      8  C   UNL     1      -1.750  12.871  19.845  0.00  0.00    +0.000 A 
ATOM      9  C   UNL     1      -0.432  12.951  20.292  0.00  0.00    +0.000 A 
ATOM     10  C   UNL     1       0.515  11.957  19.974  0.00  0.00    +0.000 A 
ATOM     11  C   UNL     1       1.932  12.196  20.429  0.00  0.00    +0.000 C 
ATOM     12  C   UNL     1       0.102  10.824  19.231  0.00  0.00    +0.000 A 
ATOM     13  C   UNL     1      -1.237  10.773  18.786  0.00  0.00    +0.000 A 
ENDBRANCH   1  12
BRANCH   4  14
ATOM     14  N   UNL     1       2.897   6.579  19.594  0.00  0.00    +0.000 N 
ATOM     15  C   UNL     1       2.549   5.373  19.002  0.00  0.00    +0.000 C 
ATOM     16  O   UNL     1       1.681   5.236  18.138  0.00  0.00    +0.000 OA
ATOM     17  H   UNL     1       3.038   6.503  20.594  0.00  0.00    +0.000 HD
BRANCH  15  18
ATOM     18  C   UNL     1       3.270   4.229  19.545  0.00  0.00    +0.000 A 
ATOM     19  C   UNL     1       4.560   3.719  19.214  0.00  0.00    +0.000 A 
ATOM     20  C   UNL     1       4.746   2.591  19.977  0.00  0.00    +0.000 A 
ATOM     21  O   UNL     1       3.670   2.373  20.774  0.00  0.00    +0.000 OA
ATOM     22  C   UNL     1       2.771   3.364  20.508  0.00  0.00    +0.000 A 
ATOM     23  C   UNL     1       1.498   3.308  21.260  0.00  0.00    +0.000 C 
ENDBRANCH  15  18
ENDBRANCH   4  14
BRANCH   5  24
ATOM     24  C   UNL     1       0.360   8.005  20.842  0.00  0.00    +0.000 C 
ATOM     25  O   UNL     1       0.372   6.859  21.279  0.00  0.00    +0.000 OA
BRANCH  24  26
ATOM     26  O   UNL     1      -0.390   9.001  21.380  0.00  0.00    +0.000 OA
BRANCH  26  27
ATOM     27  C   UNL     1      -0.219   9.294  22.774  0.00  0.00    +0.000 C 
ATOM     28  C   UNL     1       1.264   9.505  23.042  0.00  0.00    +0.000 C 
ATOM     29  C   UNL     1      -1.006  10.567  23.064  0.00  0.00    +0.000 C 
ENDBRANCH  26  27
ENDBRANCH  24  26
ENDBRANCH   5  24
TORSDOF 6
ENDMDL
MODEL 8
REMARK VINA RESULT:      -6.1      1.151      2.318
REMARK  Name = 
REMARK  11 active torsions:
REMARK  status: ('A' for Active; 'I' for Inactive)
REMARK    1  A    between atoms: C_1  and  C_2
REMARK    2  A    between atoms: C_5  and  C_6
REMARK    3  A    between atoms: C_7  and  C_8
REMARK    4  A    between atoms: C_11  and  N_12
REMARK    5  A    between atoms: C_13  and  C_15
REMARK    6  A    between atoms: C_19  and  C_20
REMARK    7  A    between atoms: C_21  and  C_22
REMARK    8  A    between atoms: C_22  and  O_24
REMARK    9  A    between atoms: O_24  and  C_25
REMARK   10  A    between atoms: C_25  and  C_26
REMARK   11  A    between atoms: C_25  and  C_27
REMARK                            x       y       z     vdW  Elec       q    Type
REMARK                         _______ _______ _______ _____ _____    ______ ____
ROOT
ATOM      1  C   UNL     1       0.971   9.687  18.922  0.00  0.00    +0.000 A 
ATOM      2  C   UNL     1       1.855   9.777  17.858  0.00  0.00    +0.000 A 
ATOM      3  S   UNL     1       2.788   8.370  17.632  0.00  0.00    +0.000 S 
ATOM      4  C   UNL     1       2.271   7.759  19.121  0.00  0.00    +0.000 A 
ATOM      5  C   UNL     1       1.214   8.462  19.683  0.00  0.00    +0.000 A 
ENDROOT
BRANCH   1  12
ATOM      6  C   UNL     1      -3.597  11.675  18.541  0.00  0.00    +0.000 C 
ATOM      7  C   UNL     1      -2.204  11.756  19.093  0.00  0.00    +0.000 A 
ATOM      8  C   UNL     1      -1.817  12.816  19.907  0.00  0.00    +0.000 A 
ATOM      9  C   UNL     1      -0.504  12.902  20.366  0.00  0.00    +0.000 A 
ATOM     10  C   UNL     1       0.460  11.932  20.026  0.00  0.00    +0.000 A 
ATOM     11  C   UNL     1       1.870  12.178  20.499  0.00  0.00    +0.000 C 
ATOM     12  C   UNL     1       0.071  10.816  19.246  0.00  0.00    +0.000 A 
ATOM     13  C   UNL     1      -1.265  10.759  18.789  0.00  0.00    +0.000 A 
ENDBRANCH   1  12
BRANCH   4  14
ATOM     14  N   UNL     1       2.978   6.641  19.519  0.00  0.00    +0.000 N 
ATOM     15  C   UNL     1       2.715   5.447  18.860  0.00  0.00    +0.000 C 
ATOM     16  O   UNL     1       1.891   5.308  17.955  0.00  0.00    +0.000 OA
ATOM     17  H   UNL     1       3.081   6.525  20.520  0.00  0.00    +0.000 HD
BRANCH  15  18
ATOM     18  C   UNL     1       3.470   4.316  19.384  0.00  0.00    +0.000 A 
ATOM     19  C   UNL     1       3.041   3.233  20.208  0.00  0.00    +0.000 A 
ATOM     20  C   UNL     1       4.155   2.468  20.464  0.00  0.00    +0.000 A 
ATOM     21  O   UNL     1       5.242   2.988  19.841  0.00  0.00    +0.000 OA
ATOM     22  C   UNL     1       4.827   4.113  19.190  0.00  0.00    +0.000 A 
ATOM     23  C   UNL     1       5.870   4.860  18.452  0.00  0.00    +0.000 C 
ENDBRANCH  15  18
ENDBRANCH   4  14
BRANCH   5  24
ATOM     24  C   UNL     1       0.441   8.000  20.841  0.00  0.00    +0.000 C 
ATOM     25  O   UNL     1       0.510   6.860  21.287  0.00  0.00    +0.000 OA
BRANCH  24  26
ATOM     26  O   UNL     1      -0.339   8.970  21.385  0.00  0.00    +0.000 OA
BRANCH  26  27
ATOM     27  C   UNL     1      -0.184   9.251  22.784  0.00  0.00    +0.000 C 
ATOM     28  C   UNL     1       1.295   9.466  23.069  0.00  0.00    +0.000 C 
ATOM     29  C   UNL     1      -0.979  10.519  23.076  0.00  0.00    +0.000 C 
ENDBRANCH  26  27
ENDBRANCH  24  26
ENDBRANCH   5  24
TORSDOF 6
ENDMDL
MODEL 9
REMARK VINA RESULT:      -6.0      2.092      7.523
REMARK  Name = 
REMARK  11 active torsions:
REMARK  status: ('A' for Active; 'I' for Inactive)
REMARK    1  A    between atoms: C_1  and  C_2
REMARK    2  A    between atoms: C_5  and  C_6
REMARK    3  A    between atoms: C_7  and  C_8
REMARK    4  A    between atoms: C_11  and  N_12
REMARK    5  A    between atoms: C_13  and  C_15
REMARK    6  A    between atoms: C_19  and  C_20
REMARK    7  A    between atoms: C_21  and  C_22
REMARK    8  A    between atoms: C_22  and  O_24
REMARK    9  A    between atoms: O_24  and  C_25
REMARK   10  A    between atoms: C_25  and  C_26
REMARK   11  A    between atoms: C_25  and  C_27
REMARK                            x       y       z     vdW  Elec       q    Type
REMARK                         _______ _______ _______ _____ _____    ______ ____
ROOT
ATOM      1  C   UNL     1       2.780   7.385  18.234  0.00  0.00    +0.000 A 
ATOM      2  C   UNL     1       2.731   8.456  17.356  0.00  0.00    +0.000 A 
ATOM      3  S   UNL     1       1.892   9.802  17.977  0.00  0.00    +0.000 S 
ATOM      4  C   UNL     1       1.312   8.876  19.267  0.00  0.00    +0.000 A 
ATOM      5  C   UNL     1       1.930   7.639  19.397  0.00  0.00    +0.000 A 
ENDROOT
BRANCH   1  12
ATOM      6  C   UNL     1       2.484   2.479  17.333  0.00  0.00    +0.000 C 
ATOM      7  C   UNL     1       3.313   3.730  17.366  0.00  0.00    +0.000 A 
ATOM      8  C   UNL     1       4.657   3.709  17.007  0.00  0.00    +0.000 A 
ATOM      9  C   UNL     1       5.422   4.870  17.095  0.00  0.00    +0.000 A 
ATOM     10  C   UNL     1       4.868   6.085  17.544  0.00  0.00    +0.000 A 
ATOM     11  C   UNL     1       5.812   7.252  17.691  0.00  0.00    +0.000 C 
ATOM     12  C   UNL     1       3.488   6.140  17.859  0.00  0.00    +0.000 A 
ATOM     13  C   UNL     1       2.738   4.946  17.767  0.00  0.00    +0.000 A 
ENDBRANCH   1  12
BRANCH   4  14
ATOM     14  N   UNL     1       0.330   9.520  19.994  0.00  0.00    +0.000 N 
ATOM     15  C   UNL     1       0.738  10.332  21.044  0.00  0.00    +0.000 C 
ATOM     16  O   UNL     1       1.908  10.513  21.382  0.00  0.00    +0.000 OA
ATOM     17  H   UNL     1      -0.481   8.959  20.221  0.00  0.00    +0.000 HD
BRANCH  15  18
ATOM     18  C   UNL     1      -0.369  10.927  21.783  0.00  0.00    +0.000 A 
ATOM     19  C   UNL     1      -0.895  10.595  23.067  0.00  0.00    +0.000 A 
ATOM     20  C   UNL     1      -1.974  11.421  23.275  0.00  0.00    +0.000 A 
ATOM     21  O   UNL     1      -2.146  12.256  22.220  0.00  0.00    +0.000 OA
ATOM     22  C   UNL     1      -1.174  11.952  21.311  0.00  0.00    +0.000 A 
ATOM     23  C   UNL     1      -1.187  12.738  20.057  0.00  0.00    +0.000 C 
ENDBRANCH  15  18
ENDBRANCH   4  14
BRANCH   5  24
ATOM     24  C   UNL     1       1.773   6.758  20.558  0.00  0.00    +0.000 C 
ATOM     25  O   UNL     1       1.081   7.040  21.530  0.00  0.00    +0.000 OA
BRANCH  24  26
ATOM     26  O   UNL     1       2.451   5.587  20.437  0.00  0.00    +0.000 OA
BRANCH  26  27
ATOM     27  C   UNL     1       1.913   4.429  21.093  0.00  0.00    +0.000 C 
ATOM     28  C   UNL     1       0.714   3.938  20.294  0.00  0.00    +0.000 C 
ATOM     29  C   UNL     1       3.015   3.375  21.113  0.00  0.00    +0.000 C 
ENDBRANCH  26  27
ENDBRANCH  24  26
ENDBRANCH   5  24
TORSDOF 6
ENDMDL
