MODEL 1
REMARK VINA RESULT:      -3.9      0.000      0.000
REMARK  Name = 
REMARK  6 active torsions:
REMARK  status: ('A' for Active; 'I' for Inactive)
REMARK    1  A    between atoms: O_1  and  C_2
REMARK    2  A    between atoms: C_2  and  C_3
REMARK    3  A    between atoms: C_3  and  C_4
REMARK    4  A    between atoms: C_4  and  C_5
REMARK    5  A    between atoms: C_5  and  C_6
REMARK    6  A    between atoms: C_6  and  O_7
REMARK                            x       y       z     vdW  Elec       q    Type
REMARK                         _______ _______ _______ _____ _____    ______ ____
ROOT
ATOM      1  C   UNL     1       9.175   4.433  27.633  0.00  0.00    +0.000 C 
ENDROOT
BRANCH   1   2
ATOM      2  C   UNL     1      10.589   5.012  27.729  0.00  0.00    +0.000 C 
BRANCH   2   3
ATOM      3  C   UNL     1      11.566   4.030  28.364  0.00  0.00    +0.000 C 
BRANCH   3   4
ATOM      4  O   UNL     1      11.114   2.699  28.160  0.00  0.00    +0.000 OA
ATOM      5  H   UNL     1      11.903   2.143  28.041  0.00  0.00    +0.000 HD
ENDBRANCH   3   4
ENDBRANCH   2   3
ENDBRANCH   1   2
BRANCH   1   6
ATOM      6  C   UNL     1       8.159   5.306  28.367  0.00  0.00    +0.000 C 
BRANCH   6   7
ATOM      7  C   UNL     1       6.739   5.022  27.893  0.00  0.00    +0.000 C 
BRANCH   7   8
ATOM      8  O   UNL     1       6.614   3.653  27.530  0.00  0.00    +0.000 OA
ATOM      9  H   UNL     1       6.621   3.607  26.560  0.00  0.00    +0.000 HD
ENDBRANCH   7   8
ENDBRANCH   6   7
ENDBRANCH   1   6
TORSDOF 6
ENDMDL
MODEL 2
REMARK VINA RESULT:      -3.6     10.044     11.349
REMARK  Name = 
REMARK  6 active torsions:
REMARK  status: ('A' for Active; 'I' for Inactive)
REMARK    1  A    between atoms: O_1  and  C_2
REMARK    2  A    between atoms: C_2  and  C_3
REMARK    3  A    between atoms: C_3  and  C_4
REMARK    4  A    between atoms: C_4  and  C_5
REMARK    5  A    between atoms: C_5  and  C_6
REMARK    6  A    between atoms: C_6  and  O_7
REMARK                            x       y       z     vdW  Elec       q    Type
REMARK                         _______ _______ _______ _____ _____    ______ ____
ROOT
ATOM      1  C   UNL     1       1.063   3.295  19.144  0.00  0.00    +0.000 C 
ENDROOT
BRANCH   1   2
ATOM      2  C   UNL     1       1.236   3.824  20.571  0.00  0.00    +0.000 C 
BRANCH   2   3
ATOM      3  C   UNL     1       1.410   2.696  21.580  0.00  0.00    +0.000 C 
BRANCH   3   4
ATOM      4  O   UNL     1       2.783   2.554  21.914  0.00  0.00    +0.000 OA
ATOM      5  H   UNL     1       3.135   3.447  22.069  0.00  0.00    +0.000 HD
ENDBRANCH   3   4
ENDBRANCH   2   3
ENDBRANCH   1   2
BRANCH   1   6
ATOM      6  C   UNL     1       2.205   3.744  18.235  0.00  0.00    +0.000 C 
BRANCH   6   7
ATOM      7  C   UNL     1       3.130   2.583  17.892  0.00  0.00    +0.000 C 
BRANCH   7   8
ATOM      8  O   UNL     1       2.627   1.380  18.458  0.00  0.00    +0.000 OA
ATOM      9  H   UNL     1       2.256   0.849  17.732  0.00  0.00    +0.000 HD
ENDBRANCH   7   8
ENDBRANCH   6   7
ENDBRANCH   1   6
TORSDOF 6
ENDMDL
MODEL 3
REMARK VINA RESULT:      -3.5      9.677     11.272
REMARK  Name = 
REMARK  6 active torsions:
REMARK  status: ('A' for Active; 'I' for Inactive)
REMARK    1  A    between atoms: O_1  and  C_2
REMARK    2  A    between atoms: C_2  and  C_3
REMARK    3  A    between atoms: C_3  and  C_4
REMARK    4  A    between atoms: C_4  and  C_5
REMARK    5  A    between atoms: C_5  and  C_6
REMARK    6  A    between atoms: C_6  and  O_7
REMARK                            x       y       z     vdW  Elec       q    Type
REMARK                         _______ _______ _______ _____ _____    ______ ____
ROOT
ATOM      1  C   UNL     1       0.806   3.025  19.608  0.00  0.00    +0.000 C 
ENDROOT
BRANCH   1   2
ATOM      2  C   UNL     1       1.405   3.215  18.211  0.00  0.00    +0.000 C 
BRANCH   2   3
ATOM      3  C   UNL     1       2.850   2.738  18.139  0.00  0.00    +0.000 C 
BRANCH   3   4
ATOM      4  O   UNL     1       2.905   1.333  18.344  0.00  0.00    +0.000 OA
ATOM      5  H   UNL     1       2.345   0.922  17.664  0.00  0.00    +0.000 HD
ENDBRANCH   3   4
ENDBRANCH   2   3
ENDBRANCH   1   2
BRANCH   1   6
ATOM      6  C   UNL     1       1.234   4.140  20.560  0.00  0.00    +0.000 C 
BRANCH   6   7
ATOM      7  C   UNL     1       2.163   3.615  21.647  0.00  0.00    +0.000 C 
BRANCH   7   8
ATOM      8  O   UNL     1       1.639   2.410  22.191  0.00  0.00    +0.000 OA
ATOM      9  H   UNL     1       0.970   2.655  22.852  0.00  0.00    +0.000 HD
ENDBRANCH   7   8
ENDBRANCH   6   7
ENDBRANCH   1   6
TORSDOF 6
ENDMDL
MODEL 4
REMARK VINA RESULT:      -3.5      9.851     11.517
REMARK  Name = 
REMARK  6 active torsions:
REMARK  status: ('A' for Active; 'I' for Inactive)
REMARK    1  A    between atoms: O_1  and  C_2
REMARK    2  A    between atoms: C_2  and  C_3
REMARK    3  A    between atoms: C_3  and  C_4
REMARK    4  A    between atoms: C_4  and  C_5
REMARK    5  A    between atoms: C_5  and  C_6
REMARK    6  A    between atoms: C_6  and  O_7
REMARK                            x       y       z     vdW  Elec       q    Type
REMARK                         _______ _______ _______ _____ _____    ______ ____
ROOT
ATOM      1  C   UNL     1       1.855   4.676  19.228  0.00  0.00    +0.000 C 
ENDROOT
BRANCH   1   2
ATOM      2  C   UNL     1       1.172   4.071  20.457  0.00  0.00    +0.000 C 
BRANCH   2   3
ATOM      3  C   UNL     1       2.167   3.377  21.380  0.00  0.00    +0.000 C 
BRANCH   3   4
ATOM      4  O   UNL     1       1.485   2.460  22.222  0.00  0.00    +0.000 OA
ATOM      5  H   UNL     1       0.538   2.676  22.175  0.00  0.00    +0.000 HD
ENDBRANCH   3   4
ENDBRANCH   2   3
ENDBRANCH   1   2
BRANCH   1   6
ATOM      6  C   UNL     1       1.487   3.923  17.951  0.00  0.00    +0.000 C 
BRANCH   6   7
ATOM      7  C   UNL     1       2.613   2.996  17.510  0.00  0.00    +0.000 C 
BRANCH   7   8
ATOM      8  O   UNL     1       2.386   1.685  18.011  0.00  0.00    +0.000 OA
ATOM      9  H   UNL     1       1.622   1.319  17.534  0.00  0.00    +0.000 HD
ENDBRANCH   7   8
ENDBRANCH   6   7
ENDBRANCH   1   6
TORSDOF 6
ENDMDL
MODEL 5
REMARK VINA RESULT:      -3.5     10.151     11.294
REMARK  Name = 
REMARK  6 active torsions:
REMARK  status: ('A' for Active; 'I' for Inactive)
REMARK    1  A    between atoms: O_1  and  C_2
REMARK    2  A    between atoms: C_2  and  C_3
REMARK    3  A    between atoms: C_3  and  C_4
REMARK    4  A    between atoms: C_4  and  C_5
REMARK    5  A    between atoms: C_5  and  C_6
REMARK    6  A    between atoms: C_6  and  O_7
REMARK                            x       y       z     vdW  Elec       q    Type
REMARK                         _______ _______ _______ _____ _____    ______ ____
ROOT
ATOM      1  C   UNL     1       3.000   4.135  17.602  0.00  0.00    +0.000 C 
ENDROOT
BRANCH   1   2
ATOM      2  C   UNL     1       3.732   4.775  18.786  0.00  0.00    +0.000 C 
BRANCH   2   3
ATOM      3  C   UNL     1       5.129   4.197  18.973  0.00  0.00    +0.000 C 
BRANCH   3   4
ATOM      4  O   UNL     1       5.041   2.820  19.308  0.00  0.00    +0.000 OA
ATOM      5  H   UNL     1       5.711   2.647  19.992  0.00  0.00    +0.000 HD
ENDBRANCH   3   4
ENDBRANCH   2   3
ENDBRANCH   1   2
BRANCH   1   6
ATOM      6  C   UNL     1       1.571   3.740  17.971  0.00  0.00    +0.000 C 
BRANCH   6   7
ATOM      7  C   UNL     1       1.535   2.395  18.685  0.00  0.00    +0.000 C 
BRANCH   7   8
ATOM      8  O   UNL     1       2.524   1.531  18.141  0.00  0.00    +0.000 OA
ATOM      9  H   UNL     1       3.173   2.086  17.677  0.00  0.00    +0.000 HD
ENDBRANCH   7   8
ENDBRANCH   6   7
ENDBRANCH   1   6
TORSDOF 6
ENDMDL
MODEL 6
REMARK VINA RESULT:      -3.5      9.933     10.537
REMARK  Name = 
REMARK  6 active torsions:
REMARK  status: ('A' for Active; 'I' for Inactive)
REMARK    1  A    between atoms: O_1  and  C_2
REMARK    2  A    between atoms: C_2  and  C_3
REMARK    3  A    between atoms: C_3  and  C_4
REMARK    4  A    between atoms: C_4  and  C_5
REMARK    5  A    between atoms: C_5  and  C_6
REMARK    6  A    between atoms: C_6  and  O_7
REMARK                            x       y       z     vdW  Elec       q    Type
REMARK                         _______ _______ _______ _____ _____    ______ ____
ROOT
ATOM      1  C   UNL     1       1.837   2.472  18.810  0.00  0.00    +0.000 C 
ENDROOT
BRANCH   1   2
ATOM      2  C   UNL     1       3.230   2.633  18.195  0.00  0.00    +0.000 C 
BRANCH   2   3
ATOM      3  C   UNL     1       4.236   3.183  19.198  0.00  0.00    +0.000 C 
BRANCH   3   4
ATOM      4  O   UNL     1       4.973   2.116  19.777  0.00  0.00    +0.000 OA
ATOM      5  H   UNL     1       4.967   1.383  19.138  0.00  0.00    +0.000 HD
ENDBRANCH   3   4
ENDBRANCH   2   3
ENDBRANCH   1   2
BRANCH   1   6
ATOM      6  C   UNL     1       1.588   3.496  19.916  0.00  0.00    +0.000 C 
BRANCH   6   7
ATOM      7  C   UNL     1       1.282   2.815  21.243  0.00  0.00    +0.000 C 
BRANCH   7   8
ATOM      8  O   UNL     1       2.275   3.155  22.203  0.00  0.00    +0.000 OA
ATOM      9  H   UNL     1       1.963   2.842  23.069  0.00  0.00    +0.000 HD
ENDBRANCH   7   8
ENDBRANCH   6   7
ENDBRANCH   1   6
TORSDOF 6
ENDMDL
MODEL 7
REMARK VINA RESULT:      -3.5     10.990     11.873
REMARK  Name = 
REMARK  6 active torsions:
REMARK  status: ('A' for Active; 'I' for Inactive)
REMARK    1  A    between atoms: O_1  and  C_2
REMARK    2  A    between atoms: C_2  and  C_3
REMARK    3  A    between atoms: C_3  and  C_4
REMARK    4  A    between atoms: C_4  and  C_5
REMARK    5  A    between atoms: C_5  and  C_6
REMARK    6  A    between atoms: C_6  and  O_7
REMARK                            x       y       z     vdW  Elec       q    Type
REMARK                         _______ _______ _______ _____ _____    ______ ____
ROOT
ATOM      1  C   UNL     1       1.574   3.521  18.096  0.00  0.00    +0.000 C 
ENDROOT
BRANCH   1   2
ATOM      2  C   UNL     1       2.178   4.258  19.295  0.00  0.00    +0.000 C 
BRANCH   2   3
ATOM      3  C   UNL     1       1.212   4.321  20.472  0.00  0.00    +0.000 C 
BRANCH   3   4
ATOM      4  O   UNL     1       0.540   3.078  20.612  0.00  0.00    +0.000 OA
ATOM      5  H   UNL     1       0.271   2.999  21.543  0.00  0.00    +0.000 HD
ENDBRANCH   3   4
ENDBRANCH   2   3
ENDBRANCH   1   2
BRANCH   1   6
ATOM      6  C   UNL     1       2.424   2.319  17.688  0.00  0.00    +0.000 C 
BRANCH   6   7
ATOM      7  C   UNL     1       3.581   2.104  18.655  0.00  0.00    +0.000 C 
BRANCH   7   8
ATOM      8  O   UNL     1       4.163   0.826  18.438  0.00  0.00    +0.000 OA
ATOM      9  H   UNL     1       5.105   0.963  18.243  0.00  0.00    +0.000 HD
ENDBRANCH   7   8
ENDBRANCH   6   7
ENDBRANCH   1   6
TORSDOF 6
ENDMDL
MODEL 8
REMARK VINA RESULT:      -3.4     11.799     12.051
REMARK  Name = 
REMARK  6 active torsions:
REMARK  status: ('A' for Active; 'I' for Inactive)
REMARK    1  A    between atoms: O_1  and  C_2
REMARK    2  A    between atoms: C_2  and  C_3
REMARK    3  A    between atoms: C_3  and  C_4
REMARK    4  A    between atoms: C_4  and  C_5
REMARK    5  A    between atoms: C_5  and  C_6
REMARK    6  A    between atoms: C_6  and  O_7
REMARK                            x       y       z     vdW  Elec       q    Type
REMARK                         _______ _______ _______ _____ _____    ______ ____
ROOT
ATOM      1  C   UNL     1       1.853   4.304  17.617  0.00  0.00    +0.000 C 
ENDROOT
BRANCH   1   2
ATOM      2  C   UNL     1       3.242   4.935  17.743  0.00  0.00    +0.000 C 
BRANCH   2   3
ATOM      3  C   UNL     1       4.292   4.169  16.948  0.00  0.00    +0.000 C 
BRANCH   3   4
ATOM      4  O   UNL     1       4.597   2.946  17.604  0.00  0.00    +0.000 OA
ATOM      5  H   UNL     1       3.833   2.722  18.162  0.00  0.00    +0.000 HD
ENDBRANCH   3   4
ENDBRANCH   2   3
ENDBRANCH   1   2
BRANCH   1   6
ATOM      6  C   UNL     1       1.348   3.782  18.960  0.00  0.00    +0.000 C 
BRANCH   6   7
ATOM      7  C   UNL     1       1.049   2.289  18.898  0.00  0.00    +0.000 C 
BRANCH   7   8
ATOM      8  O   UNL     1       2.035   1.630  18.114  0.00  0.00    +0.000 OA
ATOM      9  H   UNL     1       2.792   1.442  18.695  0.00  0.00    +0.000 HD
ENDBRANCH   7   8
ENDBRANCH   6   7
ENDBRANCH   1   6
TORSDOF 6
ENDMDL
MODEL 9
REMARK VINA RESULT:      -3.4     10.293     11.397
REMARK  Name = 
REMARK  6 active torsions:
REMARK  status: ('A' for Active; 'I' for Inactive)
REMARK    1  A    between atoms: O_1  and  C_2
REMARK    2  A    between atoms: C_2  and  C_3
REMARK    3  A    between atoms: C_3  and  C_4
REMARK    4  A    between atoms: C_4  and  C_5
REMARK    5  A    between atoms: C_5  and  C_6
REMARK    6  A    between atoms: C_6  and  O_7
REMARK                            x       y       z     vdW  Elec       q    Type
REMARK                         _______ _______ _______ _____ _____    ______ ____
ROOT
ATOM      1  C   UNL     1       2.744   3.448  17.431  0.00  0.00    +0.000 C 
ENDROOT
BRANCH   1   2
ATOM      2  C   UNL     1       3.865   4.411  17.833  0.00  0.00    +0.000 C 
BRANCH   2   3
ATOM      3  C   UNL     1       4.724   3.848  18.958  0.00  0.00    +0.000 C 
BRANCH   3   4
ATOM      4  O   UNL     1       6.089   3.837  18.564  0.00  0.00    +0.000 OA
ATOM      5  H   UNL     1       6.189   4.500  17.859  0.00  0.00    +0.000 HD
ENDBRANCH   3   4
ENDBRANCH   2   3
ENDBRANCH   1   2
BRANCH   1   6
ATOM      6  C   UNL     1       1.426   3.800  18.117  0.00  0.00    +0.000 C 
BRANCH   6   7
ATOM      7  C   UNL     1       0.905   2.633  18.947  0.00  0.00    +0.000 C 
BRANCH   7   8
ATOM      8  O   UNL     1       0.394   3.109  20.185  0.00  0.00    +0.000 OA
ATOM      9  H   UNL     1       0.569   2.426  20.854  0.00  0.00    +0.000 HD
ENDBRANCH   7   8
ENDBRANCH   6   7
ENDBRANCH   1   6
TORSDOF 6
ENDMDL
