MODEL 1
REMARK VINA RESULT:      -9.0      0.000      0.000
REMARK  Name = 
REMARK  6 active torsions:
REMARK  status: ('A' for Active; 'I' for Inactive)
REMARK    1  A    between atoms: C_3  and  C_4
REMARK    2  A    between atoms: C_4  and  O_5
REMARK    3  A    between atoms: C_4  and  C_6
REMARK    4  A    between atoms: N_19  and  C_20
REMARK    5  A    between atoms: C_20  and  C_21
REMARK    6  A    between atoms: C_22  and  C_23
REMARK                            x       y       z     vdW  Elec       q    Type
REMARK                         _______ _______ _______ _____ _____    ______ ____
ROOT
ATOM      1  O   UNL     1       1.677   5.070  17.623  0.00  0.00    +0.000 OA
ATOM      2  C   UNL     1       1.924   4.647  18.749  0.00  0.00    +0.000 C 
ATOM      3  C   UNL     1       1.880   3.148  19.030  0.00  0.00    +0.000 C 
ATOM      4  C   UNL     1       1.235   2.876  20.397  0.00  0.00    +0.000 C 
ATOM      5  C   UNL     1       1.928   3.667  21.496  0.00  0.00    +0.000 C 
ATOM      6  C   UNL     1       1.899   5.148  21.160  0.00  0.00    +0.000 C 
ATOM      7  N   UNL     1       2.331   5.464  19.801  0.00  0.00    +0.000 N 
ENDROOT
BRANCH   3   8
ATOM      8  C   UNL     1       3.288   2.523  18.911  0.00  0.00    +0.000 C 
BRANCH   8   9
ATOM      9  C   UNL     1       4.365   3.304  18.181  0.00  0.00    +0.000 A 
ATOM     10  C   UNL     1       5.372   4.026  18.839  0.00  0.00    +0.000 A 
ATOM     11  C   UNL     1       6.369   4.690  18.112  0.00  0.00    +0.000 A 
ATOM     12  C   UNL     1       6.363   4.654  16.722  0.00  0.00    +0.000 A 
ATOM     13  C   UNL     1       5.361   3.950  16.052  0.00  0.00    +0.000 A 
ATOM     14  C   UNL     1       4.353   3.310  16.774  0.00  0.00    +0.000 A 
ATOM     15  O   UNL     1       5.312   3.836  14.685  0.00  0.00    +0.000 OA
ATOM     16  C   UNL     1       6.592   4.123  14.110  0.00  0.00    +0.000 C 
ATOM     17  C   UNL     1       7.147   5.421  14.674  0.00  0.00    +0.000 C 
ATOM     18  O   UNL     1       7.383   5.310  16.082  0.00  0.00    +0.000 OA
ENDBRANCH   8   9
BRANCH   8  19
ATOM     19  O   UNL     1       3.174   1.253  18.254  0.00  0.00    +0.000 OA
ATOM     20  H   UNL     1       2.478   0.755  18.717  0.00  0.00    +0.000 HD
ENDBRANCH   8  19
ENDBRANCH   3   8
BRANCH   7  21
ATOM     21  C   UNL     1       2.537   6.882  19.508  0.00  0.00    +0.000 C 
BRANCH  21  22
ATOM     22  C   UNL     1       1.698   7.756  20.396  0.00  0.00    +0.000 C 
ATOM     23  C   UNL     1       1.130   8.924  20.058  0.00  0.00    +0.000 C 
BRANCH  23  24
ATOM     24  C   UNL     1       0.372   9.706  21.036  0.00  0.00    +0.000 A 
ATOM     25  C   UNL     1       0.186   9.193  22.324  0.00  0.00    +0.000 A 
ATOM     26  C   UNL     1      -0.562   9.901  23.266  0.00  0.00    +0.000 A 
ATOM     27  C   UNL     1      -1.130  11.128  22.926  0.00  0.00    +0.000 A 
ATOM     28  C   UNL     1      -0.947  11.646  21.641  0.00  0.00    +0.000 A 
ATOM     29  C   UNL     1      -0.201  10.938  20.698  0.00  0.00    +0.000 A 
ENDBRANCH  23  24
ENDBRANCH  21  22
ENDBRANCH   7  21
TORSDOF 6
ENDMDL
MODEL 2
REMARK VINA RESULT:      -8.5      1.616      1.764
REMARK  Name = 
REMARK  6 active torsions:
REMARK  status: ('A' for Active; 'I' for Inactive)
REMARK    1  A    between atoms: C_3  and  C_4
REMARK    2  A    between atoms: C_4  and  O_5
REMARK    3  A    between atoms: C_4  and  C_6
REMARK    4  A    between atoms: N_19  and  C_20
REMARK    5  A    between atoms: C_20  and  C_21
REMARK    6  A    between atoms: C_22  and  C_23
REMARK                            x       y       z     vdW  Elec       q    Type
REMARK                         _______ _______ _______ _____ _____    ______ ____
ROOT
ATOM      1  O   UNL     1       1.182   4.662  17.184  0.00  0.00    +0.000 OA
ATOM      2  C   UNL     1       1.660   4.650  18.315  0.00  0.00    +0.000 C 
ATOM      3  C   UNL     1       1.652   3.365  19.136  0.00  0.00    +0.000 C 
ATOM      4  C   UNL     1       1.313   3.667  20.603  0.00  0.00    +0.000 C 
ATOM      5  C   UNL     1       2.241   4.730  21.172  0.00  0.00    +0.000 C 
ATOM      6  C   UNL     1       2.166   5.985  20.321  0.00  0.00    +0.000 C 
ATOM      7  N   UNL     1       2.300   5.748  18.886  0.00  0.00    +0.000 N 
ENDROOT
BRANCH   3   8
ATOM      8  C   UNL     1       2.989   2.606  18.987  0.00  0.00    +0.000 C 
BRANCH   8   9
ATOM      9  C   UNL     1       4.153   3.319  18.323  0.00  0.00    +0.000 A 
ATOM     10  C   UNL     1       5.184   3.943  19.041  0.00  0.00    +0.000 A 
ATOM     11  C   UNL     1       6.258   4.546  18.373  0.00  0.00    +0.000 A 
ATOM     12  C   UNL     1       6.308   4.545  16.983  0.00  0.00    +0.000 A 
ATOM     13  C   UNL     1       5.284   3.939  16.254  0.00  0.00    +0.000 A 
ATOM     14  C   UNL     1       4.201   3.362  16.917  0.00  0.00    +0.000 A 
ATOM     15  O   UNL     1       5.284   3.864  14.884  0.00  0.00    +0.000 OA
ATOM     16  C   UNL     1       6.605   4.064  14.369  0.00  0.00    +0.000 C 
ATOM     17  C   UNL     1       7.234   5.300  14.991  0.00  0.00    +0.000 C 
ATOM     18  O   UNL     1       7.402   5.136  16.404  0.00  0.00    +0.000 OA
ENDBRANCH   8   9
BRANCH   8  19
ATOM     19  O   UNL     1       2.756   1.403  18.243  0.00  0.00    +0.000 OA
ATOM     20  H   UNL     1       3.505   1.296  17.632  0.00  0.00    +0.000 HD
ENDBRANCH   8  19
ENDBRANCH   3   8
BRANCH   7  21
ATOM     21  C   UNL     1       2.462   6.939  18.052  0.00  0.00    +0.000 C 
BRANCH  21  22
ATOM     22  C   UNL     1       1.577   8.061  18.515  0.00  0.00    +0.000 C 
ATOM     23  C   UNL     1       1.456   9.268  17.942  0.00  0.00    +0.000 C 
BRANCH  23  24
ATOM     24  C   UNL     1       0.589  10.295  18.522  0.00  0.00    +0.000 A 
ATOM     25  C   UNL     1      -0.786  10.254  18.266  0.00  0.00    +0.000 A 
ATOM     26  C   UNL     1      -1.631  11.239  18.778  0.00  0.00    +0.000 A 
ATOM     27  C   UNL     1      -1.107  12.274  19.551  0.00  0.00    +0.000 A 
ATOM     28  C   UNL     1       0.265  12.321  19.811  0.00  0.00    +0.000 A 
ATOM     29  C   UNL     1       1.111  11.337  19.298  0.00  0.00    +0.000 A 
ENDBRANCH  23  24
ENDBRANCH  21  22
ENDBRANCH   7  21
TORSDOF 6
ENDMDL
MODEL 3
REMARK VINA RESULT:      -8.5      1.317      1.857
REMARK  Name = 
REMARK  6 active torsions:
REMARK  status: ('A' for Active; 'I' for Inactive)
REMARK    1  A    between atoms: C_3  and  C_4
REMARK    2  A    between atoms: C_4  and  O_5
REMARK    3  A    between atoms: C_4  and  C_6
REMARK    4  A    between atoms: N_19  and  C_20
REMARK    5  A    between atoms: C_20  and  C_21
REMARK    6  A    between atoms: C_22  and  C_23
REMARK                            x       y       z     vdW  Elec       q    Type
REMARK                         _______ _______ _______ _____ _____    ______ ____
ROOT
ATOM      1  O   UNL     1       1.120   4.461  17.156  0.00  0.00    +0.000 OA
ATOM      2  C   UNL     1       1.617   4.540  18.276  0.00  0.00    +0.000 C 
ATOM      3  C   UNL     1       1.665   3.311  19.179  0.00  0.00    +0.000 C 
ATOM      4  C   UNL     1       1.340   3.698  20.630  0.00  0.00    +0.000 C 
ATOM      5  C   UNL     1       2.243   4.825  21.110  0.00  0.00    +0.000 C 
ATOM      6  C   UNL     1       2.112   6.019  20.181  0.00  0.00    +0.000 C 
ATOM      7  N   UNL     1       2.229   5.692  18.762  0.00  0.00    +0.000 N 
ENDROOT
BRANCH   3   8
ATOM      8  C   UNL     1       3.024   2.587  19.055  0.00  0.00    +0.000 C 
BRANCH   8   9
ATOM      9  C   UNL     1       4.165   3.309  18.363  0.00  0.00    +0.000 A 
ATOM     10  C   UNL     1       5.198   3.959  19.056  0.00  0.00    +0.000 A 
ATOM     11  C   UNL     1       6.251   4.570  18.364  0.00  0.00    +0.000 A 
ATOM     12  C   UNL     1       6.279   4.552  16.974  0.00  0.00    +0.000 A 
ATOM     13  C   UNL     1       5.253   3.921  16.269  0.00  0.00    +0.000 A 
ATOM     14  C   UNL     1       4.190   3.335  16.956  0.00  0.00    +0.000 A 
ATOM     15  O   UNL     1       5.233   3.828  14.900  0.00  0.00    +0.000 OA
ATOM     16  C   UNL     1       6.543   4.042  14.361  0.00  0.00    +0.000 C 
ATOM     17  C   UNL     1       7.161   5.296  14.958  0.00  0.00    +0.000 C 
ATOM     18  O   UNL     1       7.354   5.152  16.370  0.00  0.00    +0.000 OA
ENDBRANCH   8   9
BRANCH   8  19
ATOM     19  O   UNL     1       2.824   1.352  18.354  0.00  0.00    +0.000 OA
ATOM     20  H   UNL     1       3.013   1.524  17.415  0.00  0.00    +0.000 HD
ENDBRANCH   8  19
ENDBRANCH   3   8
BRANCH   7  21
ATOM     21  C   UNL     1       2.338   6.830  17.849  0.00  0.00    +0.000 C 
BRANCH  21  22
ATOM     22  C   UNL     1       1.797   8.087  18.469  0.00  0.00    +0.000 C 
ATOM     23  C   UNL     1       1.777   9.306  17.909  0.00  0.00    +0.000 C 
BRANCH  23  24
ATOM     24  C   UNL     1       1.261  10.464  18.641  0.00  0.00    +0.000 A 
ATOM     25  C   UNL     1       1.898  11.702  18.499  0.00  0.00    +0.000 A 
ATOM     26  C   UNL     1       1.448  12.815  19.211  0.00  0.00    +0.000 A 
ATOM     27  C   UNL     1       0.357  12.698  20.070  0.00  0.00    +0.000 A 
ATOM     28  C   UNL     1      -0.284  11.465  20.216  0.00  0.00    +0.000 A 
ATOM     29  C   UNL     1       0.166  10.351  19.506  0.00  0.00    +0.000 A 
ENDBRANCH  23  24
ENDBRANCH  21  22
ENDBRANCH   7  21
TORSDOF 6
ENDMDL
MODEL 4
REMARK VINA RESULT:      -8.4      0.904      1.923
REMARK  Name = 
REMARK  6 active torsions:
REMARK  status: ('A' for Active; 'I' for Inactive)
REMARK    1  A    between atoms: C_3  and  C_4
REMARK    2  A    between atoms: C_4  and  O_5
REMARK    3  A    between atoms: C_4  and  C_6
REMARK    4  A    between atoms: N_19  and  C_20
REMARK    5  A    between atoms: C_20  and  C_21
REMARK    6  A    between atoms: C_22  and  C_23
REMARK                            x       y       z     vdW  Elec       q    Type
REMARK                         _______ _______ _______ _____ _____    ______ ____
ROOT
ATOM      1  O   UNL     1       1.272   4.756  17.754  0.00  0.00    +0.000 OA
ATOM      2  C   UNL     1       1.726   4.438  18.850  0.00  0.00    +0.000 C 
ATOM      3  C   UNL     1       1.841   2.965  19.231  0.00  0.00    +0.000 C 
ATOM      4  C   UNL     1       1.442   2.758  20.700  0.00  0.00    +0.000 C 
ATOM      5  C   UNL     1       2.239   3.674  21.617  0.00  0.00    +0.000 C 
ATOM      6  C   UNL     1       2.046   5.120  21.194  0.00  0.00    +0.000 C 
ATOM      7  N   UNL     1       2.232   5.357  19.764  0.00  0.00    +0.000 N 
ENDROOT
BRANCH   3   8
ATOM      8  C   UNL     1       3.255   2.424  18.925  0.00  0.00    +0.000 C 
BRANCH   8   9
ATOM      9  C   UNL     1       4.207   3.300  18.132  0.00  0.00    +0.000 A 
ATOM     10  C   UNL     1       4.207   3.365  16.730  0.00  0.00    +0.000 A 
ATOM     11  C   UNL     1       5.078   4.229  16.053  0.00  0.00    +0.000 A 
ATOM     12  C   UNL     1       5.968   5.026  16.765  0.00  0.00    +0.000 A 
ATOM     13  C   UNL     1       5.989   4.964  18.160  0.00  0.00    +0.000 A 
ATOM     14  C   UNL     1       5.140   4.085  18.834  0.00  0.00    +0.000 A 
ATOM     15  O   UNL     1       6.810   5.747  18.931  0.00  0.00    +0.000 OA
ATOM     16  C   UNL     1       7.270   6.881  18.186  0.00  0.00    +0.000 C 
ATOM     17  C   UNL     1       7.808   6.442  16.833  0.00  0.00    +0.000 C 
ATOM     18  O   UNL     1       6.772   5.860  16.033  0.00  0.00    +0.000 OA
ENDBRANCH   8   9
BRANCH   8  19
ATOM     19  O   UNL     1       3.130   1.188  18.209  0.00  0.00    +0.000 OA
ATOM     20  H   UNL     1       2.417   1.307  17.558  0.00  0.00    +0.000 HD
ENDBRANCH   8  19
ENDBRANCH   3   8
BRANCH   7  21
ATOM     21  C   UNL     1       2.281   6.759  19.349  0.00  0.00    +0.000 C 
BRANCH  21  22
ATOM     22  C   UNL     1       1.473   7.634  20.265  0.00  0.00    +0.000 C 
ATOM     23  C   UNL     1       1.176   8.929  20.074  0.00  0.00    +0.000 C 
BRANCH  23  24
ATOM     24  C   UNL     1       0.416   9.684  21.071  0.00  0.00    +0.000 A 
ATOM     25  C   UNL     1       0.116  11.029  20.827  0.00  0.00    +0.000 A 
ATOM     26  C   UNL     1      -0.578  11.782  21.775  0.00  0.00    +0.000 A 
ATOM     27  C   UNL     1      -0.978  11.195  22.975  0.00  0.00    +0.000 A 
ATOM     28  C   UNL     1      -0.682   9.852  23.224  0.00  0.00    +0.000 A 
ATOM     29  C   UNL     1       0.013   9.099  22.277  0.00  0.00    +0.000 A 
ENDBRANCH  23  24
ENDBRANCH  21  22
ENDBRANCH   7  21
TORSDOF 6
ENDMDL
MODEL 5
REMARK VINA RESULT:      -8.4      1.121      1.936
REMARK  Name = 
REMARK  6 active torsions:
REMARK  status: ('A' for Active; 'I' for Inactive)
REMARK    1  A    between atoms: C_3  and  C_4
REMARK    2  A    between atoms: C_4  and  O_5
REMARK    3  A    between atoms: C_4  and  C_6
REMARK    4  A    between atoms: N_19  and  C_20
REMARK    5  A    between atoms: C_20  and  C_21
REMARK    6  A    between atoms: C_22  and  C_23
REMARK                            x       y       z     vdW  Elec       q    Type
REMARK                         _______ _______ _______ _____ _____    ______ ____
ROOT
ATOM      1  O   UNL     1       1.156   5.304  17.563  0.00  0.00    +0.000 OA
ATOM      2  C   UNL     1       1.501   4.765  18.611  0.00  0.00    +0.000 C 
ATOM      3  C   UNL     1       1.293   3.266  18.805  0.00  0.00    +0.000 C 
ATOM      4  C   UNL     1       0.818   2.972  20.236  0.00  0.00    +0.000 C 
ATOM      5  C   UNL     1       1.763   3.579  21.262  0.00  0.00    +0.000 C 
ATOM      6  C   UNL     1       1.890   5.073  21.022  0.00  0.00    +0.000 C 
ATOM      7  N   UNL     1       2.163   5.438  19.635  0.00  0.00    +0.000 N 
ENDROOT
BRANCH   3   8
ATOM      8  C   UNL     1       2.570   2.479  18.437  0.00  0.00    +0.000 C 
BRANCH   8   9
ATOM      9  C   UNL     1       3.811   3.260  18.044  0.00  0.00    +0.000 A 
ATOM     10  C   UNL     1       4.102   3.628  16.722  0.00  0.00    +0.000 A 
ATOM     11  C   UNL     1       5.239   4.390  16.425  0.00  0.00    +0.000 A 
ATOM     12  C   UNL     1       6.106   4.781  17.440  0.00  0.00    +0.000 A 
ATOM     13  C   UNL     1       5.837   4.413  18.759  0.00  0.00    +0.000 A 
ATOM     14  C   UNL     1       4.718   3.632  19.053  0.00  0.00    +0.000 A 
ATOM     15  O   UNL     1       6.622   4.794  19.818  0.00  0.00    +0.000 OA
ATOM     16  C   UNL     1       7.429   5.924  19.464  0.00  0.00    +0.000 C 
ATOM     17  C   UNL     1       8.132   5.677  18.139  0.00  0.00    +0.000 C 
ATOM     18  O   UNL     1       7.185   5.543  17.073  0.00  0.00    +0.000 OA
ENDBRANCH   8   9
BRANCH   8  19
ATOM     19  O   UNL     1       2.269   1.597  17.348  0.00  0.00    +0.000 OA
ATOM     20  H   UNL     1       3.070   1.536  16.800  0.00  0.00    +0.000 HD
ENDBRANCH   8  19
ENDBRANCH   3   8
BRANCH   7  21
ATOM     21  C   UNL     1       2.517   6.838  19.398  0.00  0.00    +0.000 C 
BRANCH  21  22
ATOM     22  C   UNL     1       1.778   7.758  20.328  0.00  0.00    +0.000 C 
ATOM     23  C   UNL     1       1.010   8.800  19.973  0.00  0.00    +0.000 C 
BRANCH  23  24
ATOM     24  C   UNL     1       0.379   9.651  20.983  0.00  0.00    +0.000 A 
ATOM     25  C   UNL     1      -0.102   9.072  22.162  0.00  0.00    +0.000 A 
ATOM     26  C   UNL     1      -0.738   9.854  23.126  0.00  0.00    +0.000 A 
ATOM     27  C   UNL     1      -0.898  11.223  22.919  0.00  0.00    +0.000 A 
ATOM     28  C   UNL     1      -0.420  11.808  21.744  0.00  0.00    +0.000 A 
ATOM     29  C   UNL     1       0.216  11.027  20.778  0.00  0.00    +0.000 A 
ENDBRANCH  23  24
ENDBRANCH  21  22
ENDBRANCH   7  21
TORSDOF 6
ENDMDL
MODEL 6
REMARK VINA RESULT:      -8.1      1.611      2.172
REMARK  Name = 
REMARK  6 active torsions:
REMARK  status: ('A' for Active; 'I' for Inactive)
REMARK    1  A    between atoms: C_3  and  C_4
REMARK    2  A    between atoms: C_4  and  O_5
REMARK    3  A    between atoms: C_4  and  C_6
REMARK    4  A    between atoms: N_19  and  C_20
REMARK    5  A    between atoms: C_20  and  C_21
REMARK    6  A    between atoms: C_22  and  C_23
REMARK                            x       y       z     vdW  Elec       q    Type
REMARK                         _______ _______ _______ _____ _____    ______ ____
ROOT
ATOM      1  O   UNL     1       2.416   6.811  17.686  0.00  0.00    +0.000 OA
ATOM      2  C   UNL     1       2.301   6.012  18.612  0.00  0.00    +0.000 C 
ATOM      3  C   UNL     1       2.394   4.513  18.345  0.00  0.00    +0.000 C 
ATOM      4  C   UNL     1       1.347   3.755  19.175  0.00  0.00    +0.000 C 
ATOM      5  C   UNL     1       1.461   4.105  20.651  0.00  0.00    +0.000 C 
ATOM      6  C   UNL     1       1.326   5.606  20.835  0.00  0.00    +0.000 C 
ATOM      7  N   UNL     1       2.167   6.400  19.942  0.00  0.00    +0.000 N 
ENDROOT
BRANCH   3   8
ATOM      8  C   UNL     1       3.827   3.995  18.595  0.00  0.00    +0.000 C 
BRANCH   8   9
ATOM      9  C   UNL     1       4.907   4.347  17.588  0.00  0.00    +0.000 A 
ATOM     10  C   UNL     1       6.154   4.879  17.950  0.00  0.00    +0.000 A 
ATOM     11  C   UNL     1       7.130   5.141  16.980  0.00  0.00    +0.000 A 
ATOM     12  C   UNL     1       6.868   4.890  15.637  0.00  0.00    +0.000 A 
ATOM     13  C   UNL     1       5.628   4.373  15.258  0.00  0.00    +0.000 A 
ATOM     14  C   UNL     1       4.645   4.136  16.221  0.00  0.00    +0.000 A 
ATOM     15  O   UNL     1       5.311   4.063  13.960  0.00  0.00    +0.000 OA
ATOM     16  C   UNL     1       6.499   3.915  13.173  0.00  0.00    +0.000 C 
ATOM     17  C   UNL     1       7.428   5.098  13.392  0.00  0.00    +0.000 C 
ATOM     18  O   UNL     1       7.880   5.152  14.750  0.00  0.00    +0.000 OA
ENDBRANCH   8   9
BRANCH   8  19
ATOM     19  O   UNL     1       3.790   2.565  18.685  0.00  0.00    +0.000 OA
ATOM     20  H   UNL     1       3.031   2.265  18.156  0.00  0.00    +0.000 HD
ENDBRANCH   8  19
ENDBRANCH   3   8
BRANCH   7  21
ATOM     21  C   UNL     1       2.240   7.831  20.236  0.00  0.00    +0.000 C 
BRANCH  21  22
ATOM     22  C   UNL     1       0.987   8.545  19.816  0.00  0.00    +0.000 C 
ATOM     23  C   UNL     1       0.898   9.815  19.392  0.00  0.00    +0.000 C 
BRANCH  23  24
ATOM     24  C   UNL     1      -0.397  10.410  19.056  0.00  0.00    +0.000 A 
ATOM     25  C   UNL     1      -1.064   9.988  17.901  0.00  0.00    +0.000 A 
ATOM     26  C   UNL     1      -2.283  10.561  17.538  0.00  0.00    +0.000 A 
ATOM     27  C   UNL     1      -2.845  11.562  18.330  0.00  0.00    +0.000 A 
ATOM     28  C   UNL     1      -2.185  11.987  19.485  0.00  0.00    +0.000 A 
ATOM     29  C   UNL     1      -0.965  11.416  19.848  0.00  0.00    +0.000 A 
ENDBRANCH  23  24
ENDBRANCH  21  22
ENDBRANCH   7  21
TORSDOF 6
ENDMDL
MODEL 7
REMARK VINA RESULT:      -8.1      1.804      3.032
REMARK  Name = 
REMARK  6 active torsions:
REMARK  status: ('A' for Active; 'I' for Inactive)
REMARK    1  A    between atoms: C_3  and  C_4
REMARK    2  A    between atoms: C_4  and  O_5
REMARK    3  A    between atoms: C_4  and  C_6
REMARK    4  A    between atoms: N_19  and  C_20
REMARK    5  A    between atoms: C_20  and  C_21
REMARK    6  A    between atoms: C_22  and  C_23
REMARK                            x       y       z     vdW  Elec       q    Type
REMARK                         _______ _______ _______ _____ _____    ______ ____
ROOT
ATOM      1  O   UNL     1       0.488   2.529  19.377  0.00  0.00    +0.000 OA
ATOM      2  C   UNL     1       1.703   2.645  19.243  0.00  0.00    +0.000 C 
ATOM      3  C   UNL     1       2.398   2.053  18.020  0.00  0.00    +0.000 C 
ATOM      4  C   UNL     1       3.733   1.409  18.422  0.00  0.00    +0.000 C 
ATOM      5  C   UNL     1       4.608   2.394  19.184  0.00  0.00    +0.000 C 
ATOM      6  C   UNL     1       3.860   2.910  20.401  0.00  0.00    +0.000 C 
ATOM      7  N   UNL     1       2.503   3.373  20.120  0.00  0.00    +0.000 N 
ENDROOT
BRANCH   3   8
ATOM      8  C   UNL     1       2.568   3.116  16.913  0.00  0.00    +0.000 C 
BRANCH   8   9
ATOM      9  C   UNL     1       3.902   3.829  16.796  0.00  0.00    +0.000 A 
ATOM     10  C   UNL     1       4.991   3.313  16.077  0.00  0.00    +0.000 A 
ATOM     11  C   UNL     1       6.184   4.039  15.965  0.00  0.00    +0.000 A 
ATOM     12  C   UNL     1       6.310   5.279  16.581  0.00  0.00    +0.000 A 
ATOM     13  C   UNL     1       5.241   5.801  17.311  0.00  0.00    +0.000 A 
ATOM     14  C   UNL     1       4.061   5.068  17.445  0.00  0.00    +0.000 A 
ATOM     15  O   UNL     1       5.276   7.034  17.912  0.00  0.00    +0.000 OA
ATOM     16  C   UNL     1       6.308   7.845  17.338  0.00  0.00    +0.000 C 
ATOM     17  C   UNL     1       7.615   7.071  17.276  0.00  0.00    +0.000 C 
ATOM     18  O   UNL     1       7.500   5.937  16.408  0.00  0.00    +0.000 OA
ENDBRANCH   8   9
BRANCH   8  19
ATOM     19  O   UNL     1       1.567   4.128  17.089  0.00  0.00    +0.000 OA
ATOM     20  H   UNL     1       2.029   4.983  17.123  0.00  0.00    +0.000 HD
ENDBRANCH   8  19
ENDBRANCH   3   8
BRANCH   7  21
ATOM     21  C   UNL     1       1.832   4.085  21.207  0.00  0.00    +0.000 C 
BRANCH  21  22
ATOM     22  C   UNL     1       1.509   5.501  20.823  0.00  0.00    +0.000 C 
ATOM     23  C   UNL     1       2.262   6.310  20.061  0.00  0.00    +0.000 C 
BRANCH  23  24
ATOM     24  C   UNL     1       1.855   7.692  19.798  0.00  0.00    +0.000 A 
ATOM     25  C   UNL     1       1.250   8.433  20.819  0.00  0.00    +0.000 A 
ATOM     26  C   UNL     1       0.821   9.740  20.587  0.00  0.00    +0.000 A 
ATOM     27  C   UNL     1       0.996  10.317  19.329  0.00  0.00    +0.000 A 
ATOM     28  C   UNL     1       1.600   9.584  18.306  0.00  0.00    +0.000 A 
ATOM     29  C   UNL     1       2.028   8.276  18.537  0.00  0.00    +0.000 A 
ENDBRANCH  23  24
ENDBRANCH  21  22
ENDBRANCH   7  21
TORSDOF 6
ENDMDL
MODEL 8
REMARK VINA RESULT:      -8.0      1.669      2.491
REMARK  Name = 
REMARK  6 active torsions:
REMARK  status: ('A' for Active; 'I' for Inactive)
REMARK    1  A    between atoms: C_3  and  C_4
REMARK    2  A    between atoms: C_4  and  O_5
REMARK    3  A    between atoms: C_4  and  C_6
REMARK    4  A    between atoms: N_19  and  C_20
REMARK    5  A    between atoms: C_20  and  C_21
REMARK    6  A    between atoms: C_22  and  C_23
REMARK                            x       y       z     vdW  Elec       q    Type
REMARK                         _______ _______ _______ _____ _____    ______ ____
ROOT
ATOM      1  O   UNL     1       1.020   4.453  17.175  0.00  0.00    +0.000 OA
ATOM      2  C   UNL     1       1.489   4.476  18.310  0.00  0.00    +0.000 C 
ATOM      3  C   UNL     1       1.447   3.223  19.180  0.00  0.00    +0.000 C 
ATOM      4  C   UNL     1       1.103   3.589  20.631  0.00  0.00    +0.000 C 
ATOM      5  C   UNL     1       2.049   4.653  21.166  0.00  0.00    +0.000 C 
ATOM      6  C   UNL     1       2.008   5.876  20.267  0.00  0.00    +0.000 C 
ATOM      7  N   UNL     1       2.147   5.581  18.843  0.00  0.00    +0.000 N 
ENDROOT
BRANCH   3   8
ATOM      8  C   UNL     1       2.769   2.431  19.072  0.00  0.00    +0.000 C 
BRANCH   8   9
ATOM      9  C   UNL     1       3.981   3.129  18.481  0.00  0.00    +0.000 A 
ATOM     10  C   UNL     1       4.243   3.183  17.104  0.00  0.00    +0.000 A 
ATOM     11  C   UNL     1       5.354   3.882  16.613  0.00  0.00    +0.000 A 
ATOM     12  C   UNL     1       6.223   4.521  17.491  0.00  0.00    +0.000 A 
ATOM     13  C   UNL     1       5.984   4.466  18.865  0.00  0.00    +0.000 A 
ATOM     14  C   UNL     1       4.892   3.749  19.357  0.00  0.00    +0.000 A 
ATOM     15  O   UNL     1       6.773   5.104  19.789  0.00  0.00    +0.000 OA
ATOM     16  C   UNL     1       7.542   6.138  19.164  0.00  0.00    +0.000 C 
ATOM     17  C   UNL     1       8.232   5.605  17.919  0.00  0.00    +0.000 C 
ATOM     18  O   UNL     1       7.274   5.202  16.933  0.00  0.00    +0.000 OA
ENDBRANCH   8   9
BRANCH   8  19
ATOM     19  O   UNL     1       2.538   1.256  18.284  0.00  0.00    +0.000 OA
ATOM     20  H   UNL     1       1.779   1.444  17.706  0.00  0.00    +0.000 HD
ENDBRANCH   8  19
ENDBRANCH   3   8
BRANCH   7  21
ATOM     21  C   UNL     1       2.341   6.735  17.966  0.00  0.00    +0.000 C 
BRANCH  21  22
ATOM     22  C   UNL     1       1.846   8.002  18.603  0.00  0.00    +0.000 C 
ATOM     23  C   UNL     1       1.538   9.144  17.970  0.00  0.00    +0.000 C 
BRANCH  23  24
ATOM     24  C   UNL     1       1.108  10.328  18.717  0.00  0.00    +0.000 A 
ATOM     25  C   UNL     1      -0.015  10.244  19.547  0.00  0.00    +0.000 A 
ATOM     26  C   UNL     1      -0.466  11.365  20.243  0.00  0.00    +0.000 A 
ATOM     27  C   UNL     1       0.204  12.581  20.115  0.00  0.00    +0.000 A 
ATOM     28  C   UNL     1       1.326  12.673  19.289  0.00  0.00    +0.000 A 
ATOM     29  C   UNL     1       1.778  11.552  18.591  0.00  0.00    +0.000 A 
ENDBRANCH  23  24
ENDBRANCH  21  22
ENDBRANCH   7  21
TORSDOF 6
ENDMDL
MODEL 9
REMARK VINA RESULT:      -7.9      2.340      3.043
REMARK  Name = 
REMARK  6 active torsions:
REMARK  status: ('A' for Active; 'I' for Inactive)
REMARK    1  A    between atoms: C_3  and  C_4
REMARK    2  A    between atoms: C_4  and  O_5
REMARK    3  A    between atoms: C_4  and  C_6
REMARK    4  A    between atoms: N_19  and  C_20
REMARK    5  A    between atoms: C_20  and  C_21
REMARK    6  A    between atoms: C_22  and  C_23
REMARK                            x       y       z     vdW  Elec       q    Type
REMARK                         _______ _______ _______ _____ _____    ______ ____
ROOT
ATOM      1  O   UNL     1       2.201   7.810  17.573  0.00  0.00    +0.000 OA
ATOM      2  C   UNL     1       2.221   7.140  18.603  0.00  0.00    +0.000 C 
ATOM      3  C   UNL     1       2.647   5.676  18.554  0.00  0.00    +0.000 C 
ATOM      4  C   UNL     1       1.754   4.826  19.470  0.00  0.00    +0.000 C 
ATOM      5  C   UNL     1       1.725   5.391  20.883  0.00  0.00    +0.000 C 
ATOM      6  C   UNL     1       1.259   6.836  20.849  0.00  0.00    +0.000 C 
ATOM      7  N   UNL     1       1.947   7.666  19.862  0.00  0.00    +0.000 N 
ENDROOT
BRANCH   3   8
ATOM      8  C   UNL     1       4.147   5.526  18.894  0.00  0.00    +0.000 C 
BRANCH   8   9
ATOM      9  C   UNL     1       5.149   5.541  17.754  0.00  0.00    +0.000 A 
ATOM     10  C   UNL     1       6.432   6.099  17.864  0.00  0.00    +0.000 A 
ATOM     11  C   UNL     1       7.332   6.042  16.793  0.00  0.00    +0.000 A 
ATOM     12  C   UNL     1       6.959   5.441  15.595  0.00  0.00    +0.000 A 
ATOM     13  C   UNL     1       5.682   4.892  15.465  0.00  0.00    +0.000 A 
ATOM     14  C   UNL     1       4.775   4.971  16.523  0.00  0.00    +0.000 A 
ATOM     15  O   UNL     1       5.256   4.249  14.331  0.00  0.00    +0.000 OA
ATOM     16  C   UNL     1       6.374   3.840  13.534  0.00  0.00    +0.000 C 
ATOM     17  C   UNL     1       7.342   4.997  13.348  0.00  0.00    +0.000 C 
ATOM     18  O   UNL     1       7.902   5.405  14.601  0.00  0.00    +0.000 OA
ENDBRANCH   8   9
BRANCH   8  19
ATOM     19  O   UNL     1       4.337   4.294  19.602  0.00  0.00    +0.000 OA
ATOM     20  H   UNL     1       3.992   3.583  19.035  0.00  0.00    +0.000 HD
ENDBRANCH   8  19
ENDBRANCH   3   8
BRANCH   7  21
ATOM     21  C   UNL     1       1.696   9.104  19.949  0.00  0.00    +0.000 C 
BRANCH  21  22
ATOM     22  C   UNL     1       0.303   9.449  19.503  0.00  0.00    +0.000 C 
ATOM     23  C   UNL     1      -0.033  10.335  18.553  0.00  0.00    +0.000 C 
BRANCH  23  24
ATOM     24  C   UNL     1      -1.436  10.614  18.244  0.00  0.00    +0.000 A 
ATOM     25  C   UNL     1      -2.048   9.947  17.178  0.00  0.00    +0.000 A 
ATOM     26  C   UNL     1      -3.374  10.219  16.840  0.00  0.00    +0.000 A 
ATOM     27  C   UNL     1      -4.100  11.162  17.567  0.00  0.00    +0.000 A 
ATOM     28  C   UNL     1      -3.495  11.831  18.634  0.00  0.00    +0.000 A 
ATOM     29  C   UNL     1      -2.168  11.561  18.972  0.00  0.00    +0.000 A 
ENDBRANCH  23  24
ENDBRANCH  21  22
ENDBRANCH   7  21
TORSDOF 6
ENDMDL
