MODEL 1
REMARK VINA RESULT:      -7.5      0.000      0.000
REMARK  Name = 
REMARK  9 active torsions:
REMARK  status: ('A' for Active; 'I' for Inactive)
REMARK    1  A    between atoms: C_2  and  C_3
REMARK    2  A    between atoms: C_3  and  N_4
REMARK    3  A    between atoms: N_4  and  C_5
REMARK    4  A    between atoms: N_8  and  C_9
REMARK    5  A    between atoms: C_12  and  C_13
REMARK    6  A    between atoms: C_18  and  O_19
REMARK    7  A    between atoms: O_19  and  C_20
REMARK    8  A    between atoms: C_21  and  O_22
REMARK    9  A    between atoms: O_22  and  C_23
REMARK                            x       y       z     vdW  Elec       q    Type
REMARK                         _______ _______ _______ _____ _____    ______ ____
ROOT
ATOM      1  C   UNL     1       2.259   7.148  19.401  0.00  0.00    +0.000 A 
ATOM      2  C   UNL     1       2.309   7.795  18.155  0.00  0.00    +0.000 A 
ATOM      3  C   UNL     1       1.697   9.029  17.960  0.00  0.00    +0.000 A 
ATOM      4  C   UNL     1       1.039   9.705  18.994  0.00  0.00    +0.000 A 
ATOM      5  C   UNL     1       1.079   9.133  20.272  0.00  0.00    +0.000 A 
ATOM      6  C   UNL     1       1.669   7.866  20.458  0.00  0.00    +0.000 A 
ENDROOT
BRANCH   4   7
ATOM      7  C   UNL     1       0.161  10.841  18.622  0.00  0.00    +0.000 C 
ATOM      8  C   UNL     1       0.618  12.092  18.805  0.00  0.00    +0.000 C 
ATOM      9  C   UNL     1       2.057  12.429  19.038  0.00  0.00    +0.000 C 
ATOM     10  C   UNL     1       2.120  13.888  18.788  0.00  0.00    +0.000 A 
ATOM     11  C   UNL     1       3.262  14.599  18.521  0.00  0.00    +0.000 A 
ATOM     12  C   UNL     1       3.164  15.981  18.427  0.00  0.00    +0.000 A 
ATOM     13  C   UNL     1       1.958  16.632  18.791  0.00  0.00    +0.000 A 
ATOM     14  C   UNL     1       0.777  15.880  18.958  0.00  0.00    +0.000 A 
ATOM     15  C   UNL     1       0.878  14.498  18.875  0.00  0.00    +0.000 A 
ATOM     16  C   UNL     1      -0.141  13.406  18.808  0.00  0.00    +0.000 C 
ATOM     17  O   UNL     1      -1.345  13.546  18.769  0.00  0.00    +0.000 OA
BRANCH  12  18
ATOM     18  O   UNL     1       4.261  16.721  18.052  0.00  0.00    +0.000 OA
ATOM     19  C   UNL     1       5.319  16.679  19.018  0.00  0.00    +0.000 C 
ENDBRANCH  12  18
BRANCH  13  20
ATOM     20  O   UNL     1       2.039  17.998  18.900  0.00  0.00    +0.000 OA
ATOM     21  C   UNL     1       1.499  18.592  20.076  0.00  0.00    +0.000 C 
ENDBRANCH  13  20
ENDBRANCH   4   7
BRANCH   1  26
ATOM     22  N   UNL     1       3.926   3.880  17.697  0.00  0.00    +0.000 N 
ATOM     23  C   UNL     1       4.190   2.627  18.522  0.00  0.00    +0.000 C 
ATOM     24  C   UNL     1       4.729   5.093  18.237  0.00  0.00    +0.000 C 
ATOM     25  C   UNL     1       4.212   5.611  19.601  0.00  0.00    +0.000 C 
ATOM     26  N   UNL     1       2.761   5.862  19.610  0.00  0.00    +0.000 N 
ATOM     27  C   UNL     1       1.933   4.742  19.122  0.00  0.00    +0.000 C 
ATOM     28  C   UNL     1       2.409   4.248  17.730  0.00  0.00    +0.000 C 
BRANCH  22  29
ATOM     29  C   UNL     1       4.304   3.607  16.227  0.00  0.00    +0.000 C 
BRANCH  29  31
ATOM     30  C   UNL     1       6.191   4.078  14.627  0.00  0.00    +0.000 C 
ATOM     31  C   UNL     1       5.461   4.407  15.701  0.00  0.00    +0.000 C 
ENDBRANCH  29  31
ENDBRANCH  22  29
ENDBRANCH   1  26
TORSDOF 6
ENDMDL
MODEL 2
REMARK VINA RESULT:      -7.2      4.921     10.738
REMARK  Name = 
REMARK  9 active torsions:
REMARK  status: ('A' for Active; 'I' for Inactive)
REMARK    1  A    between atoms: C_2  and  C_3
REMARK    2  A    between atoms: C_3  and  N_4
REMARK    3  A    between atoms: N_4  and  C_5
REMARK    4  A    between atoms: N_8  and  C_9
REMARK    5  A    between atoms: C_12  and  C_13
REMARK    6  A    between atoms: C_18  and  O_19
REMARK    7  A    between atoms: O_19  and  C_20
REMARK    8  A    between atoms: C_21  and  O_22
REMARK    9  A    between atoms: O_22  and  C_23
REMARK                            x       y       z     vdW  Elec       q    Type
REMARK                         _______ _______ _______ _____ _____    ______ ____
ROOT
ATOM      1  C   UNL     1      -0.319  11.978  19.112  0.00  0.00    +0.000 A 
ATOM      2  C   UNL     1      -0.751  10.699  18.722  0.00  0.00    +0.000 A 
ATOM      3  C   UNL     1       0.153   9.740  18.273  0.00  0.00    +0.000 A 
ATOM      4  C   UNL     1       1.531   9.982  18.225  0.00  0.00    +0.000 A 
ATOM      5  C   UNL     1       1.993  11.207  18.721  0.00  0.00    +0.000 A 
ATOM      6  C   UNL     1       1.072  12.189  19.140  0.00  0.00    +0.000 A 
ENDROOT
BRANCH   4   7
ATOM      7  C   UNL     1       2.367   9.033  17.450  0.00  0.00    +0.000 C 
ATOM      8  C   UNL     1       2.654   7.838  17.994  0.00  0.00    +0.000 C 
ATOM      9  C   UNL     1       1.927   7.258  19.166  0.00  0.00    +0.000 C 
ATOM     10  C   UNL     1       2.310   5.828  19.144  0.00  0.00    +0.000 A 
ATOM     11  C   UNL     1       1.638   4.815  19.780  0.00  0.00    +0.000 A 
ATOM     12  C   UNL     1       2.196   3.544  19.756  0.00  0.00    +0.000 A 
ATOM     13  C   UNL     1       3.510   3.357  19.257  0.00  0.00    +0.000 A 
ATOM     14  C   UNL     1       4.134   4.384  18.519  0.00  0.00    +0.000 A 
ATOM     15  C   UNL     1       3.467   5.597  18.415  0.00  0.00    +0.000 A 
ATOM     16  C   UNL     1       3.703   6.820  17.588  0.00  0.00    +0.000 C 
ATOM     17  O   UNL     1       4.573   6.969  16.755  0.00  0.00    +0.000 OA
BRANCH  12  18
ATOM     18  O   UNL     1       1.501   2.481  20.283  0.00  0.00    +0.000 OA
ATOM     19  C   UNL     1       1.440   2.511  21.715  0.00  0.00    +0.000 C 
ENDBRANCH  12  18
BRANCH  13  20
ATOM     20  O   UNL     1       4.059   2.123  19.502  0.00  0.00    +0.000 OA
ATOM     21  C   UNL     1       4.970   2.019  20.591  0.00  0.00    +0.000 C 
ENDBRANCH  13  20
ENDBRANCH   4   7
BRANCH   1  26
ATOM     22  N   UNL     1      -2.274  13.841  22.122  0.00  0.00    +0.000 N 
ATOM     23  C   UNL     1      -3.269  14.956  21.826  0.00  0.00    +0.000 C 
ATOM     24  C   UNL     1      -0.847  14.213  21.641  0.00  0.00    +0.000 C 
ATOM     25  C   UNL     1      -0.707  14.234  20.100  0.00  0.00    +0.000 C 
ATOM     26  N   UNL     1      -1.200  13.003  19.460  0.00  0.00    +0.000 N 
ATOM     27  C   UNL     1      -2.561  12.597  19.861  0.00  0.00    +0.000 C 
ATOM     28  C   UNL     1      -2.700  12.522  21.404  0.00  0.00    +0.000 C 
BRANCH  22  29
ATOM     29  C   UNL     1      -2.265  13.561  23.639  0.00  0.00    +0.000 C 
BRANCH  29  31
ATOM     30  C   UNL     1      -4.342  12.570  24.662  0.00  0.00    +0.000 C 
ATOM     31  C   UNL     1      -3.604  13.633  24.315  0.00  0.00    +0.000 C 
ENDBRANCH  29  31
ENDBRANCH  22  29
ENDBRANCH   1  26
TORSDOF 6
ENDMDL
MODEL 3
REMARK VINA RESULT:      -7.2      3.758      5.816
REMARK  Name = 
REMARK  9 active torsions:
REMARK  status: ('A' for Active; 'I' for Inactive)
REMARK    1  A    between atoms: C_2  and  C_3
REMARK    2  A    between atoms: C_3  and  N_4
REMARK    3  A    between atoms: N_4  and  C_5
REMARK    4  A    between atoms: N_8  and  C_9
REMARK    5  A    between atoms: C_12  and  C_13
REMARK    6  A    between atoms: C_18  and  O_19
REMARK    7  A    between atoms: O_19  and  C_20
REMARK    8  A    between atoms: C_21  and  O_22
REMARK    9  A    between atoms: O_22  and  C_23
REMARK                            x       y       z     vdW  Elec       q    Type
REMARK                         _______ _______ _______ _____ _____    ______ ____
ROOT
ATOM      1  C   UNL     1       2.917   6.938  18.507  0.00  0.00    +0.000 A 
ATOM      2  C   UNL     1       2.252   6.779  19.734  0.00  0.00    +0.000 A 
ATOM      3  C   UNL     1       1.424   7.778  20.239  0.00  0.00    +0.000 A 
ATOM      4  C   UNL     1       1.180   8.965  19.539  0.00  0.00    +0.000 A 
ATOM      5  C   UNL     1       1.738   9.093  18.261  0.00  0.00    +0.000 A 
ATOM      6  C   UNL     1       2.605   8.095  17.769  0.00  0.00    +0.000 A 
ENDROOT
BRANCH   4   7
ATOM      7  C   UNL     1       0.551  10.083  20.284  0.00  0.00    +0.000 C 
ATOM      8  C   UNL     1      -0.573  10.631  19.791  0.00  0.00    +0.000 C 
ATOM      9  C   UNL     1      -1.421   9.991  18.738  0.00  0.00    +0.000 C 
ATOM     10  C   UNL     1      -2.697  10.740  18.811  0.00  0.00    +0.000 A 
ATOM     11  C   UNL     1      -3.900  10.311  18.312  0.00  0.00    +0.000 A 
ATOM     12  C   UNL     1      -4.977  11.186  18.359  0.00  0.00    +0.000 A 
ATOM     13  C   UNL     1      -4.774  12.538  18.733  0.00  0.00    +0.000 A 
ATOM     14  C   UNL     1      -3.561  12.926  19.337  0.00  0.00    +0.000 A 
ATOM     15  C   UNL     1      -2.557  11.972  19.432  0.00  0.00    +0.000 A 
ATOM     16  C   UNL     1      -1.247  11.942  20.151  0.00  0.00    +0.000 C 
ATOM     17  O   UNL     1      -0.805  12.806  20.881  0.00  0.00    +0.000 OA
BRANCH  12  18
ATOM     18  O   UNL     1      -6.225  10.757  17.973  0.00  0.00    +0.000 OA
ATOM     19  C   UNL     1      -6.921  10.058  19.014  0.00  0.00    +0.000 C 
ENDBRANCH  12  18
BRANCH  13  20
ATOM     20  O   UNL     1      -5.841  13.374  18.512  0.00  0.00    +0.000 OA
ATOM     21  C   UNL     1      -6.491  13.920  19.655  0.00  0.00    +0.000 C 
ENDBRANCH  13  20
ENDBRANCH   4   7
BRANCH   1  26
ATOM     22  N   UNL     1       6.831   6.068  17.975  0.00  0.00    +0.000 N 
ATOM     23  C   UNL     1       7.249   4.816  17.214  0.00  0.00    +0.000 C 
ATOM     24  C   UNL     1       6.019   5.713  19.248  0.00  0.00    +0.000 C 
ATOM     25  C   UNL     1       4.608   5.158  18.940  0.00  0.00    +0.000 C 
ATOM     26  N   UNL     1       3.841   6.013  18.019  0.00  0.00    +0.000 N 
ATOM     27  C   UNL     1       4.548   6.379  16.776  0.00  0.00    +0.000 C 
ATOM     28  C   UNL     1       5.944   6.985  17.074  0.00  0.00    +0.000 C 
BRANCH  22  29
ATOM     29  C   UNL     1       8.091   6.872  18.356  0.00  0.00    +0.000 C 
BRANCH  29  31
ATOM     30  C   UNL     1       8.670   9.314  18.568  0.00  0.00    +0.000 C 
ATOM     31  C   UNL     1       8.106   8.301  17.896  0.00  0.00    +0.000 C 
ENDBRANCH  29  31
ENDBRANCH  22  29
ENDBRANCH   1  26
TORSDOF 6
ENDMDL
MODEL 4
REMARK VINA RESULT:      -7.2      5.140     10.809
REMARK  Name = 
REMARK  9 active torsions:
REMARK  status: ('A' for Active; 'I' for Inactive)
REMARK    1  A    between atoms: C_2  and  C_3
REMARK    2  A    between atoms: C_3  and  N_4
REMARK    3  A    between atoms: N_4  and  C_5
REMARK    4  A    between atoms: N_8  and  C_9
REMARK    5  A    between atoms: C_12  and  C_13
REMARK    6  A    between atoms: C_18  and  O_19
REMARK    7  A    between atoms: O_19  and  C_20
REMARK    8  A    between atoms: C_21  and  O_22
REMARK    9  A    between atoms: O_22  and  C_23
REMARK                            x       y       z     vdW  Elec       q    Type
REMARK                         _______ _______ _______ _____ _____    ______ ____
ROOT
ATOM      1  C   UNL     1      -0.430  12.109  19.990  0.00  0.00    +0.000 A 
ATOM      2  C   UNL     1      -1.045  11.204  19.110  0.00  0.00    +0.000 A 
ATOM      3  C   UNL     1      -0.320  10.178  18.510  0.00  0.00    +0.000 A 
ATOM      4  C   UNL     1       1.037   9.970  18.780  0.00  0.00    +0.000 A 
ATOM      5  C   UNL     1       1.640  10.788  19.744  0.00  0.00    +0.000 A 
ATOM      6  C   UNL     1       0.912  11.848  20.322  0.00  0.00    +0.000 A 
ENDROOT
BRANCH   4   7
ATOM      7  C   UNL     1       1.787   9.069  17.871  0.00  0.00    +0.000 C 
ATOM      8  C   UNL     1       2.361   7.969  18.389  0.00  0.00    +0.000 C 
ATOM      9  C   UNL     1       2.027   7.407  19.734  0.00  0.00    +0.000 C 
ATOM     10  C   UNL     1       2.590   6.038  19.693  0.00  0.00    +0.000 A 
ATOM     11  C   UNL     1       2.240   5.009  20.529  0.00  0.00    +0.000 A 
ATOM     12  C   UNL     1       2.949   3.819  20.433  0.00  0.00    +0.000 A 
ATOM     13  C   UNL     1       4.117   3.753  19.633  0.00  0.00    +0.000 A 
ATOM     14  C   UNL     1       4.394   4.782  18.709  0.00  0.00    +0.000 A 
ATOM     15  C   UNL     1       3.559   5.889  18.711  0.00  0.00    +0.000 A 
ATOM     16  C   UNL     1       3.415   7.057  17.788  0.00  0.00    +0.000 C 
ATOM     17  O   UNL     1       4.028   7.240  16.757  0.00  0.00    +0.000 OA
BRANCH  12  18
ATOM     18  O   UNL     1       2.558   2.727  21.173  0.00  0.00    +0.000 OA
ATOM     19  C   UNL     1       1.166   2.756  21.515  0.00  0.00    +0.000 C 
ENDBRANCH  12  18
BRANCH  13  20
ATOM     20  O   UNL     1       4.877   2.622  19.797  0.00  0.00    +0.000 OA
ATOM     21  C   UNL     1       4.509   1.472  19.044  0.00  0.00    +0.000 C 
ENDBRANCH  13  20
ENDBRANCH   4   7
BRANCH   1  26
ATOM     22  N   UNL     1      -3.007  13.438  22.810  0.00  0.00    +0.000 N 
ATOM     23  C   UNL     1      -3.452  14.895  22.827  0.00  0.00    +0.000 C 
ATOM     24  C   UNL     1      -1.473  13.313  23.013  0.00  0.00    +0.000 C 
ATOM     25  C   UNL     1      -0.653  13.810  21.799  0.00  0.00    +0.000 C 
ATOM     26  N   UNL     1      -1.091  13.216  20.524  0.00  0.00    +0.000 N 
ATOM     27  C   UNL     1      -2.539  13.313  20.259  0.00  0.00    +0.000 C 
ATOM     28  C   UNL     1      -3.373  12.769  21.448  0.00  0.00    +0.000 C 
BRANCH  22  29
ATOM     29  C   UNL     1      -3.752  12.668  23.920  0.00  0.00    +0.000 C 
BRANCH  29  31
ATOM     30  C   UNL     1      -6.268  12.595  23.999  0.00  0.00    +0.000 C 
ATOM     31  C   UNL     1      -5.108  13.205  24.276  0.00  0.00    +0.000 C 
ENDBRANCH  29  31
ENDBRANCH  22  29
ENDBRANCH   1  26
TORSDOF 6
ENDMDL
MODEL 5
REMARK VINA RESULT:      -7.0      5.216     10.078
REMARK  Name = 
REMARK  9 active torsions:
REMARK  status: ('A' for Active; 'I' for Inactive)
REMARK    1  A    between atoms: C_2  and  C_3
REMARK    2  A    between atoms: C_3  and  N_4
REMARK    3  A    between atoms: N_4  and  C_5
REMARK    4  A    between atoms: N_8  and  C_9
REMARK    5  A    between atoms: C_12  and  C_13
REMARK    6  A    between atoms: C_18  and  O_19
REMARK    7  A    between atoms: O_19  and  C_20
REMARK    8  A    between atoms: C_21  and  O_22
REMARK    9  A    between atoms: O_22  and  C_23
REMARK                            x       y       z     vdW  Elec       q    Type
REMARK                         _______ _______ _______ _____ _____    ______ ____
ROOT
ATOM      1  C   UNL     1      -0.540  11.331  21.066  0.00  0.00    +0.000 A 
ATOM      2  C   UNL     1      -0.057  10.674  22.210  0.00  0.00    +0.000 A 
ATOM      3  C   UNL     1       0.563   9.431  22.118  0.00  0.00    +0.000 A 
ATOM      4  C   UNL     1       0.773   8.794  20.890  0.00  0.00    +0.000 A 
ATOM      5  C   UNL     1       0.405   9.484  19.729  0.00  0.00    +0.000 A 
ATOM      6  C   UNL     1      -0.255  10.726  19.828  0.00  0.00    +0.000 A 
ENDROOT
BRANCH   4   7
ATOM      7  C   UNL     1       1.147   7.358  20.917  0.00  0.00    +0.000 C 
ATOM      8  C   UNL     1       1.867   6.863  19.895  0.00  0.00    +0.000 C 
ATOM      9  C   UNL     1       2.601   7.710  18.904  0.00  0.00    +0.000 C 
ATOM     10  C   UNL     1       3.527   6.758  18.248  0.00  0.00    +0.000 A 
ATOM     11  C   UNL     1       4.647   7.103  17.535  0.00  0.00    +0.000 A 
ATOM     12  C   UNL     1       5.343   6.093  16.883  0.00  0.00    +0.000 A 
ATOM     13  C   UNL     1       4.792   4.790  16.806  0.00  0.00    +0.000 A 
ATOM     14  C   UNL     1       3.702   4.438  17.628  0.00  0.00    +0.000 A 
ATOM     15  C   UNL     1       3.133   5.438  18.403  0.00  0.00    +0.000 A 
ATOM     16  C   UNL     1       2.124   5.419  19.506  0.00  0.00    +0.000 C 
ATOM     17  O   UNL     1       1.606   4.436  19.993  0.00  0.00    +0.000 OA
BRANCH  12  18
ATOM     18  O   UNL     1       6.531   6.379  16.252  0.00  0.00    +0.000 OA
ATOM     19  C   UNL     1       7.480   7.022  17.114  0.00  0.00    +0.000 C 
ENDBRANCH  12  18
BRANCH  13  20
ATOM     20  O   UNL     1       5.428   3.936  15.939  0.00  0.00    +0.000 OA
ATOM     21  C   UNL     1       5.384   4.259  14.553  0.00  0.00    +0.000 C 
ENDBRANCH  13  20
ENDBRANCH   4   7
BRANCH   1  26
ATOM     22  N   UNL     1      -4.213  13.016  21.243  0.00  0.00    +0.000 N 
ATOM     23  C   UNL     1      -4.373  14.530  21.183  0.00  0.00    +0.000 C 
ATOM     24  C   UNL     1      -3.386  12.583  22.483  0.00  0.00    +0.000 C 
ATOM     25  C   UNL     1      -1.890  12.962  22.383  0.00  0.00    +0.000 C 
ATOM     26  N   UNL     1      -1.265  12.522  21.124  0.00  0.00    +0.000 N 
ATOM     27  C   UNL     1      -1.992  12.913  19.901  0.00  0.00    +0.000 C 
ATOM     28  C   UNL     1      -3.483  12.492  19.966  0.00  0.00    +0.000 C 
BRANCH  22  29
ATOM     29  C   UNL     1      -5.608  12.360  21.281  0.00  0.00    +0.000 C 
BRANCH  29  31
ATOM     30  C   UNL     1      -7.072  10.967  19.779  0.00  0.00    +0.000 C 
ATOM     31  C   UNL     1      -6.152  11.925  19.951  0.00  0.00    +0.000 C 
ENDBRANCH  29  31
ENDBRANCH  22  29
ENDBRANCH   1  26
TORSDOF 6
ENDMDL
MODEL 6
REMARK VINA RESULT:      -7.0      2.293      2.869
REMARK  Name = 
REMARK  9 active torsions:
REMARK  status: ('A' for Active; 'I' for Inactive)
REMARK    1  A    between atoms: C_2  and  C_3
REMARK    2  A    between atoms: C_3  and  N_4
REMARK    3  A    between atoms: N_4  and  C_5
REMARK    4  A    between atoms: N_8  and  C_9
REMARK    5  A    between atoms: C_12  and  C_13
REMARK    6  A    between atoms: C_18  and  O_19
REMARK    7  A    between atoms: O_19  and  C_20
REMARK    8  A    between atoms: C_21  and  O_22
REMARK    9  A    between atoms: O_22  and  C_23
REMARK                            x       y       z     vdW  Elec       q    Type
REMARK                         _______ _______ _______ _____ _____    ______ ____
ROOT
ATOM      1  C   UNL     1       2.700   7.183  18.685  0.00  0.00    +0.000 A 
ATOM      2  C   UNL     1       2.313   8.252  17.860  0.00  0.00    +0.000 A 
ATOM      3  C   UNL     1       1.424   9.223  18.310  0.00  0.00    +0.000 A 
ATOM      4  C   UNL     1       0.904   9.211  19.609  0.00  0.00    +0.000 A 
ATOM      5  C   UNL     1       1.367   8.222  20.485  0.00  0.00    +0.000 A 
ATOM      6  C   UNL     1       2.240   7.219  20.015  0.00  0.00    +0.000 A 
ENDROOT
BRANCH   4   7
ATOM      7  C   UNL     1      -0.259  10.089  19.891  0.00  0.00    +0.000 C 
ATOM      8  C   UNL     1      -0.028  11.364  20.248  0.00  0.00    +0.000 C 
ATOM      9  C   UNL     1       1.283  12.059  20.060  0.00  0.00    +0.000 C 
ATOM     10  C   UNL     1       0.947  13.493  20.221  0.00  0.00    +0.000 A 
ATOM     11  C   UNL     1       1.717  14.543  19.790  0.00  0.00    +0.000 A 
ATOM     12  C   UNL     1       1.314  15.829  20.124  0.00  0.00    +0.000 A 
ATOM     13  C   UNL     1       0.252  16.022  21.042  0.00  0.00    +0.000 A 
ATOM     14  C   UNL     1      -0.585  14.940  21.387  0.00  0.00    +0.000 A 
ATOM     15  C   UNL     1      -0.251  13.687  20.892  0.00  0.00    +0.000 A 
ATOM     16  C   UNL     1      -0.969  12.376  20.876  0.00  0.00    +0.000 C 
ATOM     17  O   UNL     1      -2.089  12.162  21.291  0.00  0.00    +0.000 OA
BRANCH  12  18
ATOM     18  O   UNL     1       1.994  16.912  19.618  0.00  0.00    +0.000 OA
ATOM     19  C   UNL     1       1.720  17.144  18.230  0.00  0.00    +0.000 C 
ENDBRANCH  12  18
BRANCH  13  20
ATOM     20  O   UNL     1       0.094  17.309  21.494  0.00  0.00    +0.000 OA
ATOM     21  C   UNL     1      -0.745  17.505  22.627  0.00  0.00    +0.000 C 
ENDBRANCH  13  20
ENDBRANCH   4   7
BRANCH   1  26
ATOM     22  N   UNL     1       6.466   5.914  17.934  0.00  0.00    +0.000 N 
ATOM     23  C   UNL     1       6.711   4.549  17.303  0.00  0.00    +0.000 C 
ATOM     24  C   UNL     1       5.754   5.783  19.307  0.00  0.00    +0.000 C 
ATOM     25  C   UNL     1       4.281   5.323  19.191  0.00  0.00    +0.000 C 
ATOM     26  N   UNL     1       3.498   6.129  18.239  0.00  0.00    +0.000 N 
ATOM     27  C   UNL     1       4.110   6.283  16.905  0.00  0.00    +0.000 C 
ATOM     28  C   UNL     1       5.572   6.794  17.006  0.00  0.00    +0.000 C 
BRANCH  22  29
ATOM     29  C   UNL     1       7.815   6.643  18.105  0.00  0.00    +0.000 C 
BRANCH  29  31
ATOM     30  C   UNL     1       8.390   9.090  18.239  0.00  0.00    +0.000 C 
ATOM     31  C   UNL     1       7.856   8.051  17.586  0.00  0.00    +0.000 C 
ENDBRANCH  29  31
ENDBRANCH  22  29
ENDBRANCH   1  26
TORSDOF 6
ENDMDL
MODEL 7
REMARK VINA RESULT:      -7.0      4.964     10.857
REMARK  Name = 
REMARK  9 active torsions:
REMARK  status: ('A' for Active; 'I' for Inactive)
REMARK    1  A    between atoms: C_2  and  C_3
REMARK    2  A    between atoms: C_3  and  N_4
REMARK    3  A    between atoms: N_4  and  C_5
REMARK    4  A    between atoms: N_8  and  C_9
REMARK    5  A    between atoms: C_12  and  C_13
REMARK    6  A    between atoms: C_18  and  O_19
REMARK    7  A    between atoms: O_19  and  C_20
REMARK    8  A    between atoms: C_21  and  O_22
REMARK    9  A    between atoms: O_22  and  C_23
REMARK                            x       y       z     vdW  Elec       q    Type
REMARK                         _______ _______ _______ _____ _____    ______ ____
ROOT
ATOM      1  C   UNL     1      -0.620  12.565  19.660  0.00  0.00    +0.000 A 
ATOM      2  C   UNL     1      -1.208  11.361  19.236  0.00  0.00    +0.000 A 
ATOM      3  C   UNL     1      -0.436  10.331  18.706  0.00  0.00    +0.000 A 
ATOM      4  C   UNL     1       0.957  10.421  18.606  0.00  0.00    +0.000 A 
ATOM      5  C   UNL     1       1.573  11.564  19.131  0.00  0.00    +0.000 A 
ATOM      6  C   UNL     1       0.786  12.620  19.634  0.00  0.00    +0.000 A 
ENDROOT
BRANCH   4   7
ATOM      7  C   UNL     1       1.649   9.424  17.754  0.00  0.00    +0.000 C 
ATOM      8  C   UNL     1       2.182   8.338  18.340  0.00  0.00    +0.000 C 
ATOM      9  C   UNL     1       1.845   7.888  19.726  0.00  0.00    +0.000 C 
ATOM     10  C   UNL     1       2.345   6.495  19.775  0.00  0.00    +0.000 A 
ATOM     11  C   UNL     1       1.962   5.545  20.687  0.00  0.00    +0.000 A 
ATOM     12  C   UNL     1       2.615   4.319  20.667  0.00  0.00    +0.000 A 
ATOM     13  C   UNL     1       3.764   4.143  19.857  0.00  0.00    +0.000 A 
ATOM     14  C   UNL     1       4.073   5.090  18.858  0.00  0.00    +0.000 A 
ATOM     15  C   UNL     1       3.288   6.233  18.793  0.00  0.00    +0.000 A 
ATOM     16  C   UNL     1       3.182   7.337  17.791  0.00  0.00    +0.000 C 
ATOM     17  O   UNL     1       3.785   7.419  16.742  0.00  0.00    +0.000 OA
BRANCH  12  18
ATOM     18  O   UNL     1       2.187   3.302  21.488  0.00  0.00    +0.000 OA
ATOM     19  C   UNL     1       1.111   2.543  20.920  0.00  0.00    +0.000 C 
ENDBRANCH  12  18
BRANCH  13  20
ATOM     20  O   UNL     1       4.475   2.992  20.091  0.00  0.00    +0.000 OA
ATOM     21  C   UNL     1       4.265   1.902  19.200  0.00  0.00    +0.000 C 
ENDBRANCH  13  20
ENDBRANCH   4   7
BRANCH   1  26
ATOM     22  N   UNL     1      -1.896  14.711  22.842  0.00  0.00    +0.000 N 
ATOM     23  C   UNL     1      -2.864  15.872  22.654  0.00  0.00    +0.000 C 
ATOM     24  C   UNL     1      -0.560  14.962  22.094  0.00  0.00    +0.000 C 
ATOM     25  C   UNL     1      -0.697  14.891  20.555  0.00  0.00    +0.000 C 
ATOM     26  N   UNL     1      -1.366  13.663  20.091  0.00  0.00    +0.000 N 
ATOM     27  C   UNL     1      -2.653  13.370  20.751  0.00  0.00    +0.000 C 
ATOM     28  C   UNL     1      -2.517  13.386  22.296  0.00  0.00    +0.000 C 
BRANCH  22  29
ATOM     29  C   UNL     1      -1.631  14.512  24.348  0.00  0.00    +0.000 C 
BRANCH  29  31
ATOM     30  C   UNL     1      -1.328  16.292  26.102  0.00  0.00    +0.000 C 
ATOM     31  C   UNL     1      -2.102  15.625  25.237  0.00  0.00    +0.000 C 
ENDBRANCH  29  31
ENDBRANCH  22  29
ENDBRANCH   1  26
TORSDOF 6
ENDMDL
MODEL 8
REMARK VINA RESULT:      -7.0      1.561      2.667
REMARK  Name = 
REMARK  9 active torsions:
REMARK  status: ('A' for Active; 'I' for Inactive)
REMARK    1  A    between atoms: C_2  and  C_3
REMARK    2  A    between atoms: C_3  and  N_4
REMARK    3  A    between atoms: N_4  and  C_5
REMARK    4  A    between atoms: N_8  and  C_9
REMARK    5  A    between atoms: C_12  and  C_13
REMARK    6  A    between atoms: C_18  and  O_19
REMARK    7  A    between atoms: O_19  and  C_20
REMARK    8  A    between atoms: C_21  and  O_22
REMARK    9  A    between atoms: O_22  and  C_23
REMARK                            x       y       z     vdW  Elec       q    Type
REMARK                         _______ _______ _______ _____ _____    ______ ____
ROOT
ATOM      1  C   UNL     1       2.694   7.470  18.621  0.00  0.00    +0.000 A 
ATOM      2  C   UNL     1       2.459   8.425  17.618  0.00  0.00    +0.000 A 
ATOM      3  C   UNL     1       1.567   9.475  17.819  0.00  0.00    +0.000 A 
ATOM      4  C   UNL     1       0.894   9.658  19.033  0.00  0.00    +0.000 A 
ATOM      5  C   UNL     1       1.204   8.786  20.084  0.00  0.00    +0.000 A 
ATOM      6  C   UNL     1       2.080   7.703  19.866  0.00  0.00    +0.000 A 
ENDROOT
BRANCH   4   7
ATOM      7  C   UNL     1      -0.252  10.599  19.046  0.00  0.00    +0.000 C 
ATOM      8  C   UNL     1      -0.010  11.902  19.274  0.00  0.00    +0.000 C 
ATOM      9  C   UNL     1       1.345  12.527  19.183  0.00  0.00    +0.000 C 
ATOM     10  C   UNL     1       1.059  13.979  19.123  0.00  0.00    +0.000 A 
ATOM     11  C   UNL     1       1.928  14.942  18.677  0.00  0.00    +0.000 A 
ATOM     12  C   UNL     1       1.546  16.272  18.796  0.00  0.00    +0.000 A 
ATOM     13  C   UNL     1       0.383  16.612  19.532  0.00  0.00    +0.000 A 
ATOM     14  C   UNL     1      -0.541  15.608  19.887  0.00  0.00    +0.000 A 
ATOM     15  C   UNL     1      -0.205  14.293  19.598  0.00  0.00    +0.000 A 
ATOM     16  C   UNL     1      -0.976  13.013  19.642  0.00  0.00    +0.000 C 
ATOM     17  O   UNL     1      -2.149  12.888  19.925  0.00  0.00    +0.000 OA
BRANCH  12  18
ATOM     18  O   UNL     1       2.336  17.262  18.260  0.00  0.00    +0.000 OA
ATOM     19  C   UNL     1       3.134  16.804  17.160  0.00  0.00    +0.000 C 
ENDBRANCH  12  18
BRANCH  13  20
ATOM     20  O   UNL     1       0.229  17.949  19.799  0.00  0.00    +0.000 OA
ATOM     21  C   UNL     1      -0.841  18.626  19.148  0.00  0.00    +0.000 C 
ENDBRANCH  13  20
ENDBRANCH   4   7
BRANCH   1  26
ATOM     22  N   UNL     1       2.986   3.457  19.027  0.00  0.00    +0.000 N 
ATOM     23  C   UNL     1       4.282   2.735  18.675  0.00  0.00    +0.000 C 
ATOM     24  C   UNL     1       2.382   4.171  17.789  0.00  0.00    +0.000 C 
ATOM     25  C   UNL     1       3.204   5.399  17.330  0.00  0.00    +0.000 C 
ATOM     26  N   UNL     1       3.491   6.342  18.424  0.00  0.00    +0.000 N 
ATOM     27  C   UNL     1       4.083   5.732  19.630  0.00  0.00    +0.000 C 
ATOM     28  C   UNL     1       3.239   4.530  20.132  0.00  0.00    +0.000 C 
BRANCH  22  29
ATOM     29  C   UNL     1       1.977   2.437  19.594  0.00  0.00    +0.000 C 
BRANCH  29  31
ATOM     30  C   UNL     1       1.283   2.398  22.014  0.00  0.00    +0.000 C 
ATOM     31  C   UNL     1       1.185   2.907  20.779  0.00  0.00    +0.000 C 
ENDBRANCH  29  31
ENDBRANCH  22  29
ENDBRANCH   1  26
TORSDOF 6
ENDMDL
MODEL 9
REMARK VINA RESULT:      -7.0      3.808      5.034
REMARK  Name = 
REMARK  9 active torsions:
REMARK  status: ('A' for Active; 'I' for Inactive)
REMARK    1  A    between atoms: C_2  and  C_3
REMARK    2  A    between atoms: C_3  and  N_4
REMARK    3  A    between atoms: N_4  and  C_5
REMARK    4  A    between atoms: N_8  and  C_9
REMARK    5  A    between atoms: C_12  and  C_13
REMARK    6  A    between atoms: C_18  and  O_19
REMARK    7  A    between atoms: O_19  and  C_20
REMARK    8  A    between atoms: C_21  and  O_22
REMARK    9  A    between atoms: O_22  and  C_23
REMARK                            x       y       z     vdW  Elec       q    Type
REMARK                         _______ _______ _______ _____ _____    ______ ____
ROOT
ATOM      1  C   UNL     1       2.992   6.246  18.054  0.00  0.00    +0.000 A 
ATOM      2  C   UNL     1       2.391   5.427  19.024  0.00  0.00    +0.000 A 
ATOM      3  C   UNL     1       1.676   5.974  20.086  0.00  0.00    +0.000 A 
ATOM      4  C   UNL     1       1.484   7.354  20.220  0.00  0.00    +0.000 A 
ATOM      5  C   UNL     1       1.973   8.180  19.201  0.00  0.00    +0.000 A 
ATOM      6  C   UNL     1       2.728   7.625  18.147  0.00  0.00    +0.000 A 
ENDROOT
BRANCH   4   7
ATOM      7  C   UNL     1       0.991   7.854  21.527  0.00  0.00    +0.000 C 
ATOM      8  C   UNL     1       0.456   9.086  21.582  0.00  0.00    +0.000 C 
ATOM      9  C   UNL     1       0.014   9.859  20.380  0.00  0.00    +0.000 C 
ATOM     10  C   UNL     1      -0.836  10.932  20.945  0.00  0.00    +0.000 A 
ATOM     11  C   UNL     1      -1.753  11.672  20.243  0.00  0.00    +0.000 A 
ATOM     12  C   UNL     1      -2.385  12.721  20.897  0.00  0.00    +0.000 A 
ATOM     13  C   UNL     1      -1.943  13.122  22.183  0.00  0.00    +0.000 A 
ATOM     14  C   UNL     1      -1.078  12.288  22.920  0.00  0.00    +0.000 A 
ATOM     15  C   UNL     1      -0.596  11.147  22.294  0.00  0.00    +0.000 A 
ATOM     16  C   UNL     1       0.161   9.957  22.789  0.00  0.00    +0.000 C 
ATOM     17  O   UNL     1       0.482   9.735  23.938  0.00  0.00    +0.000 OA
BRANCH  12  18
ATOM     18  O   UNL     1      -3.390  13.415  20.266  0.00  0.00    +0.000 OA
ATOM     19  C   UNL     1      -4.529  12.598  19.966  0.00  0.00    +0.000 C 
ENDBRANCH  12  18
BRANCH  13  20
ATOM     20  O   UNL     1      -2.459  14.311  22.635  0.00  0.00    +0.000 OA
ATOM     21  C   UNL     1      -1.605  15.449  22.599  0.00  0.00    +0.000 C 
ENDBRANCH  13  20
ENDBRANCH   4   7
BRANCH   1  26
ATOM     22  N   UNL     1       6.670   4.875  17.079  0.00  0.00    +0.000 N 
ATOM     23  C   UNL     1       7.010   4.531  15.634  0.00  0.00    +0.000 C 
ATOM     24  C   UNL     1       5.517   3.986  17.616  0.00  0.00    +0.000 C 
ATOM     25  C   UNL     1       4.145   4.313  16.980  0.00  0.00    +0.000 C 
ATOM     26  N   UNL     1       3.809   5.746  17.039  0.00  0.00    +0.000 N 
ATOM     27  C   UNL     1       4.857   6.651  16.529  0.00  0.00    +0.000 C 
ATOM     28  C   UNL     1       6.228   6.368  17.198  0.00  0.00    +0.000 C 
BRANCH  22  29
ATOM     29  C   UNL     1       7.929   4.694  17.952  0.00  0.00    +0.000 C 
BRANCH  29  31
ATOM     30  C   UNL     1       8.002   5.526  20.327  0.00  0.00    +0.000 C 
ATOM     31  C   UNL     1       8.133   5.738  19.011  0.00  0.00    +0.000 C 
ENDBRANCH  29  31
ENDBRANCH  22  29
ENDBRANCH   1  26
TORSDOF 6
ENDMDL
