MODEL 1
REMARK VINA RESULT:      -8.0      0.000      0.000
REMARK  Name = 
REMARK  6 active torsions:
REMARK  status: ('A' for Active; 'I' for Inactive)
REMARK    1  A    between atoms: C_1  and  O_2
REMARK    2  A    between atoms: O_2  and  C_3
REMARK    3  A    between atoms: C_7  and  C_8
REMARK    4  A    between atoms: C_9  and  C_10
REMARK    5  A    between atoms: C_14  and  C_15
REMARK    6  A    between atoms: C_20  and  N_21
REMARK                            x       y       z     vdW  Elec       q    Type
REMARK                         _______ _______ _______ _____ _____    ______ ____
ROOT
ATOM      1  C   UNL     1       1.375  10.405  18.190  0.00  0.00    +0.000 C 
ATOM      2  O   UNL     1       2.250  11.255  18.392  0.00  0.00    +0.000 OA
ATOM      3  N   UNL     1       0.056  10.724  18.517  0.00  0.00    +0.000 N 
ATOM      4  C   UNL     1      -0.131  11.969  19.303  0.00  0.00    +0.000 C 
ATOM      5  C   UNL     1      -1.441  11.760  20.063  0.00  0.00    +0.000 C 
ATOM      6  C   UNL     1      -2.213  11.136  18.906  0.00  0.00    +0.000 A 
ATOM      7  C   UNL     1      -1.278  10.434  18.071  0.00  0.00    +0.000 A 
ATOM      8  C   UNL     1      -1.731   9.881  16.891  0.00  0.00    +0.000 A 
ATOM      9  C   UNL     1      -3.069  10.185  16.473  0.00  0.00    +0.000 A 
ATOM     10  C   UNL     1      -3.899  11.112  17.197  0.00  0.00    +0.000 A 
ATOM     11  C   UNL     1      -5.016  11.794  16.643  0.00  0.00    +0.000 A 
ATOM     12  C   UNL     1      -5.820  12.660  17.394  0.00  0.00    +0.000 A 
ATOM     13  C   UNL     1      -5.611  12.760  18.747  0.00  0.00    +0.000 A 
ATOM     14  C   UNL     1      -4.511  12.110  19.314  0.00  0.00    +0.000 A 
ATOM     15  C   UNL     1      -3.549  11.425  18.519  0.00  0.00    +0.000 A 
ENDROOT
BRANCH   9  16
ATOM     16  N   UNL     1      -3.505   9.730  15.199  0.00  0.00    +0.000 N 
ATOM     17  H   UNL     1      -2.837   9.916  14.465  0.00  0.00    +0.000 HD
ATOM     18  H   UNL     1      -3.744   8.735  15.225  0.00  0.00    +0.000 HD
ENDBRANCH   9  16
BRANCH   1  20
ATOM     19  C   UNL     1       2.129   8.112  18.784  0.00  0.00    +0.000 C 
ATOM     20  C   UNL     1       1.872   9.025  17.793  0.00  0.00    +0.000 C 
BRANCH  19  25
ATOM     21  C   UNL     1       2.854   4.444  19.816  0.00  0.00    +0.000 A 
ATOM     22  C   UNL     1       3.538   3.985  18.700  0.00  0.00    +0.000 A 
ATOM     23  C   UNL     1       3.781   4.850  17.651  0.00  0.00    +0.000 A 
ATOM     24  C   UNL     1       3.332   6.187  17.705  0.00  0.00    +0.000 A 
ATOM     25  C   UNL     1       2.612   6.687  18.818  0.00  0.00    +0.000 A 
ATOM     26  C   UNL     1       2.389   5.796  19.875  0.00  0.00    +0.000 A 
BRANCH  21  28
ATOM     27  C   UNL     1       1.369   3.114  21.124  0.00  0.00    +0.000 C 
ATOM     28  O   UNL     1       2.694   3.487  20.780  0.00  0.00    +0.000 OA
ENDBRANCH  21  28
ENDBRANCH  19  25
ENDBRANCH   1  20
BRANCH   5  29
ATOM     29  C   UNL     1      -1.962  13.036  20.716  0.00  0.00    +0.000 C 
ATOM     30 CL   UNL     1      -2.612  12.763  22.351  0.00  0.00    +0.000 Cl
ENDBRANCH   5  29
TORSDOF 5
ENDMDL
MODEL 2
REMARK VINA RESULT:      -8.0      1.372      1.823
REMARK  Name = 
REMARK  6 active torsions:
REMARK  status: ('A' for Active; 'I' for Inactive)
REMARK    1  A    between atoms: C_1  and  O_2
REMARK    2  A    between atoms: O_2  and  C_3
REMARK    3  A    between atoms: C_7  and  C_8
REMARK    4  A    between atoms: C_9  and  C_10
REMARK    5  A    between atoms: C_14  and  C_15
REMARK    6  A    between atoms: C_20  and  N_21
REMARK                            x       y       z     vdW  Elec       q    Type
REMARK                         _______ _______ _______ _____ _____    ______ ____
ROOT
ATOM      1  C   UNL     1       1.257   9.922  18.059  0.00  0.00    +0.000 C 
ATOM      2  O   UNL     1       2.202  10.683  18.298  0.00  0.00    +0.000 OA
ATOM      3  N   UNL     1      -0.029  10.331  18.420  0.00  0.00    +0.000 N 
ATOM      4  C   UNL     1      -0.104  11.541  19.275  0.00  0.00    +0.000 C 
ATOM      5  C   UNL     1      -1.422  11.399  20.038  0.00  0.00    +0.000 C 
ATOM      6  C   UNL     1      -2.252  10.908  18.858  0.00  0.00    +0.000 A 
ATOM      7  C   UNL     1      -1.386  10.180  17.974  0.00  0.00    +0.000 A 
ATOM      8  C   UNL     1      -1.892   9.733  16.770  0.00  0.00    +0.000 A 
ATOM      9  C   UNL     1      -3.202  10.171  16.386  0.00  0.00    +0.000 A 
ATOM     10  C   UNL     1      -3.946  11.122  17.171  0.00  0.00    +0.000 A 
ATOM     11  C   UNL     1      -5.006  11.925  16.669  0.00  0.00    +0.000 A 
ATOM     12  C   UNL     1      -5.728  12.811  17.476  0.00  0.00    +0.000 A 
ATOM     13  C   UNL     1      -5.502  12.818  18.830  0.00  0.00    +0.000 A 
ATOM     14  C   UNL     1      -4.457  12.046  19.347  0.00  0.00    +0.000 A 
ATOM     15  C   UNL     1      -3.562  11.329  18.504  0.00  0.00    +0.000 A 
ENDROOT
BRANCH   9  16
ATOM     16  N   UNL     1      -3.684   9.826  15.095  0.00  0.00    +0.000 N 
ATOM     17  H   UNL     1      -4.066   8.892  15.053  0.00  0.00    +0.000 HD
ATOM     18  H   UNL     1      -4.369  10.510  14.762  0.00  0.00    +0.000 HD
ENDBRANCH   9  16
BRANCH   1  20
ATOM     19  C   UNL     1       2.450   7.764  18.373  0.00  0.00    +0.000 C 
ATOM     20  C   UNL     1       1.633   8.529  17.580  0.00  0.00    +0.000 C 
BRANCH  19  25
ATOM     21  C   UNL     1       4.848   4.716  18.442  0.00  0.00    +0.000 A 
ATOM     22  C   UNL     1       3.979   3.688  18.107  0.00  0.00    +0.000 A 
ATOM     23  C   UNL     1       2.656   3.978  17.841  0.00  0.00    +0.000 A 
ATOM     24  C   UNL     1       2.184   5.306  17.915  0.00  0.00    +0.000 A 
ATOM     25  C   UNL     1       3.035   6.381  18.273  0.00  0.00    +0.000 A 
ATOM     26  C   UNL     1       4.376   6.064  18.526  0.00  0.00    +0.000 A 
BRANCH  21  28
ATOM     27  C   UNL     1       7.140   4.742  17.784  0.00  0.00    +0.000 C 
ATOM     28  O   UNL     1       6.127   4.288  18.668  0.00  0.00    +0.000 OA
ENDBRANCH  21  28
ENDBRANCH  19  25
ENDBRANCH   1  20
BRANCH   5  29
ATOM     29  C   UNL     1      -1.828  12.676  20.767  0.00  0.00    +0.000 C 
ATOM     30 CL   UNL     1      -1.239  14.152  19.963  0.00  0.00    +0.000 Cl
ENDBRANCH   5  29
TORSDOF 5
ENDMDL
MODEL 3
REMARK VINA RESULT:      -8.0      3.088      4.743
REMARK  Name = 
REMARK  6 active torsions:
REMARK  status: ('A' for Active; 'I' for Inactive)
REMARK    1  A    between atoms: C_1  and  O_2
REMARK    2  A    between atoms: O_2  and  C_3
REMARK    3  A    between atoms: C_7  and  C_8
REMARK    4  A    between atoms: C_9  and  C_10
REMARK    5  A    between atoms: C_14  and  C_15
REMARK    6  A    between atoms: C_20  and  N_21
REMARK                            x       y       z     vdW  Elec       q    Type
REMARK                         _______ _______ _______ _____ _____    ______ ____
ROOT
ATOM      1  C   UNL     1       1.521   8.935  19.427  0.00  0.00    +0.000 C 
ATOM      2  O   UNL     1       1.385   8.260  20.455  0.00  0.00    +0.000 OA
ATOM      3  N   UNL     1       0.943  10.205  19.390  0.00  0.00    +0.000 N 
ATOM      4  C   UNL     1       0.015  10.524  20.502  0.00  0.00    +0.000 C 
ATOM      5  C   UNL     1      -0.932  11.581  19.932  0.00  0.00    +0.000 C 
ATOM      6  C   UNL     1       0.134  12.392  19.204  0.00  0.00    +0.000 A 
ATOM      7  C   UNL     1       1.183  11.495  18.805  0.00  0.00    +0.000 A 
ATOM      8  C   UNL     1       2.319  12.022  18.225  0.00  0.00    +0.000 A 
ATOM      9  C   UNL     1       2.470  13.448  18.212  0.00  0.00    +0.000 A 
ATOM     10  C   UNL     1       1.524  14.318  18.862  0.00  0.00    +0.000 A 
ATOM     11  C   UNL     1       1.808  15.647  19.276  0.00  0.00    +0.000 A 
ATOM     12  C   UNL     1       0.847  16.473  19.871  0.00  0.00    +0.000 A 
ATOM     13  C   UNL     1      -0.454  16.041  19.942  0.00  0.00    +0.000 A 
ATOM     14  C   UNL     1      -0.757  14.733  19.553  0.00  0.00    +0.000 A 
ATOM     15  C   UNL     1       0.256  13.807  19.174  0.00  0.00    +0.000 A 
ENDROOT
BRANCH   9  16
ATOM     16  N   UNL     1       3.690  13.999  17.737  0.00  0.00    +0.000 N 
ATOM     17  H   UNL     1       3.912  14.889  18.161  0.00  0.00    +0.000 HD
ATOM     18  H   UNL     1       4.464  13.341  17.857  0.00  0.00    +0.000 HD
ENDBRANCH   9  16
BRANCH   1  20
ATOM     19  C   UNL     1       2.926   7.118  18.475  0.00  0.00    +0.000 C 
ATOM     20  C   UNL     1       2.135   8.214  18.238  0.00  0.00    +0.000 C 
BRANCH  19  25
ATOM     21  C   UNL     1       5.456   5.524  16.006  0.00  0.00    +0.000 A 
ATOM     22  C   UNL     1       5.092   4.188  16.078  0.00  0.00    +0.000 A 
ATOM     23  C   UNL     1       4.036   3.816  16.887  0.00  0.00    +0.000 A 
ATOM     24  C   UNL     1       3.336   4.782  17.642  0.00  0.00    +0.000 A 
ATOM     25  C   UNL     1       3.691   6.154  17.610  0.00  0.00    +0.000 A 
ATOM     26  C   UNL     1       4.757   6.508  16.773  0.00  0.00    +0.000 A 
BRANCH  21  28
ATOM     27  C   UNL     1       6.825   4.738  14.218  0.00  0.00    +0.000 C 
ATOM     28  O   UNL     1       6.508   5.750  15.161  0.00  0.00    +0.000 OA
ENDBRANCH  21  28
ENDBRANCH  19  25
ENDBRANCH   1  20
BRANCH   5  29
ATOM     29  C   UNL     1      -1.791  12.251  21.000  0.00  0.00    +0.000 C 
ATOM     30 CL   UNL     1      -0.904  12.549  22.516  0.00  0.00    +0.000 Cl
ENDBRANCH   5  29
TORSDOF 5
ENDMDL
MODEL 4
REMARK VINA RESULT:      -8.0      1.569      2.151
REMARK  Name = 
REMARK  6 active torsions:
REMARK  status: ('A' for Active; 'I' for Inactive)
REMARK    1  A    between atoms: C_1  and  O_2
REMARK    2  A    between atoms: O_2  and  C_3
REMARK    3  A    between atoms: C_7  and  C_8
REMARK    4  A    between atoms: C_9  and  C_10
REMARK    5  A    between atoms: C_14  and  C_15
REMARK    6  A    between atoms: C_20  and  N_21
REMARK                            x       y       z     vdW  Elec       q    Type
REMARK                         _______ _______ _______ _____ _____    ______ ____
ROOT
ATOM      1  C   UNL     1       0.924  10.269  18.142  0.00  0.00    +0.000 C 
ATOM      2  O   UNL     1       1.857  11.039  18.400  0.00  0.00    +0.000 OA
ATOM      3  N   UNL     1      -0.369  10.653  18.505  0.00  0.00    +0.000 N 
ATOM      4  C   UNL     1      -0.464  11.845  19.383  0.00  0.00    +0.000 C 
ATOM      5  C   UNL     1      -1.783  11.671  20.138  0.00  0.00    +0.000 C 
ATOM      6  C   UNL     1      -2.602  11.192  18.945  0.00  0.00    +0.000 A 
ATOM      7  C   UNL     1      -1.722  10.492  18.050  0.00  0.00    +0.000 A 
ATOM      8  C   UNL     1      -2.217  10.062  16.836  0.00  0.00    +0.000 A 
ATOM      9  C   UNL     1      -3.532  10.490  16.455  0.00  0.00    +0.000 A 
ATOM     10  C   UNL     1      -4.291  11.415  17.255  0.00  0.00    +0.000 A 
ATOM     11  C   UNL     1      -5.360  12.213  16.764  0.00  0.00    +0.000 A 
ATOM     12  C   UNL     1      -6.098  13.073  17.585  0.00  0.00    +0.000 A 
ATOM     13  C   UNL     1      -5.877  13.057  18.940  0.00  0.00    +0.000 A 
ATOM     14  C   UNL     1      -4.824  12.290  19.446  0.00  0.00    +0.000 A 
ATOM     15  C   UNL     1      -3.916  11.602  18.593  0.00  0.00    +0.000 A 
ENDROOT
BRANCH   9  16
ATOM     16  N   UNL     1      -4.004  10.163  15.155  0.00  0.00    +0.000 N 
ATOM     17  H   UNL     1      -3.414   9.496  14.678  0.00  0.00    +0.000 HD
ATOM     18  H   UNL     1      -4.971   9.831  15.187  0.00  0.00    +0.000 HD
ENDBRANCH   9  16
BRANCH   1  20
ATOM     19  C   UNL     1       2.536   8.381  18.019  0.00  0.00    +0.000 C 
ATOM     20  C   UNL     1       1.321   8.891  17.638  0.00  0.00    +0.000 C 
BRANCH  19  25
ATOM     21  C   UNL     1       5.225   5.768  17.028  0.00  0.00    +0.000 A 
ATOM     22  C   UNL     1       4.588   4.586  17.378  0.00  0.00    +0.000 A 
ATOM     23  C   UNL     1       3.310   4.634  17.898  0.00  0.00    +0.000 A 
ATOM     24  C   UNL     1       2.656   5.871  18.081  0.00  0.00    +0.000 A 
ATOM     25  C   UNL     1       3.281   7.101  17.755  0.00  0.00    +0.000 A 
ATOM     26  C   UNL     1       4.572   7.026  17.218  0.00  0.00    +0.000 A 
BRANCH  21  28
ATOM     27  C   UNL     1       7.275   4.551  17.097  0.00  0.00    +0.000 C 
ATOM     28  O   UNL     1       6.479   5.573  16.517  0.00  0.00    +0.000 OA
ENDBRANCH  21  28
ENDBRANCH  19  25
ENDBRANCH   1  20
BRANCH   5  29
ATOM     29  C   UNL     1      -2.210  12.929  20.889  0.00  0.00    +0.000 C 
ATOM     30 CL   UNL     1      -2.858  12.580  22.511  0.00  0.00    +0.000 Cl
ENDBRANCH   5  29
TORSDOF 5
ENDMDL
MODEL 5
REMARK VINA RESULT:      -7.9      0.975      1.117
REMARK  Name = 
REMARK  6 active torsions:
REMARK  status: ('A' for Active; 'I' for Inactive)
REMARK    1  A    between atoms: C_1  and  O_2
REMARK    2  A    between atoms: O_2  and  C_3
REMARK    3  A    between atoms: C_7  and  C_8
REMARK    4  A    between atoms: C_9  and  C_10
REMARK    5  A    between atoms: C_14  and  C_15
REMARK    6  A    between atoms: C_20  and  N_21
REMARK                            x       y       z     vdW  Elec       q    Type
REMARK                         _______ _______ _______ _____ _____    ______ ____
ROOT
ATOM      1  C   UNL     1       1.057  10.208  18.112  0.00  0.00    +0.000 C 
ATOM      2  O   UNL     1       1.981  10.980  18.396  0.00  0.00    +0.000 OA
ATOM      3  N   UNL     1      -0.243  10.574  18.468  0.00  0.00    +0.000 N 
ATOM      4  C   UNL     1      -0.359  11.747  19.368  0.00  0.00    +0.000 C 
ATOM      5  C   UNL     1      -1.685  11.547  20.103  0.00  0.00    +0.000 C 
ATOM      6  C   UNL     1      -2.486  11.085  18.892  0.00  0.00    +0.000 A 
ATOM      7  C   UNL     1      -1.589  10.411  17.994  0.00  0.00    +0.000 A 
ATOM      8  C   UNL     1      -2.067  10.001  16.766  0.00  0.00    +0.000 A 
ATOM      9  C   UNL     1      -3.380  10.425  16.378  0.00  0.00    +0.000 A 
ATOM     10  C   UNL     1      -4.157  11.327  17.186  0.00  0.00    +0.000 A 
ATOM     11  C   UNL     1      -5.227  12.126  16.699  0.00  0.00    +0.000 A 
ATOM     12  C   UNL     1      -5.982  12.963  17.528  0.00  0.00    +0.000 A 
ATOM     13  C   UNL     1      -5.777  12.922  18.885  0.00  0.00    +0.000 A 
ATOM     14  C   UNL     1      -4.723  12.154  19.389  0.00  0.00    +0.000 A 
ATOM     15  C   UNL     1      -3.799  11.490  18.533  0.00  0.00    +0.000 A 
ENDROOT
BRANCH   9  16
ATOM     16  N   UNL     1      -3.834  10.121  15.066  0.00  0.00    +0.000 N 
ATOM     17  H   UNL     1      -4.765  10.468  14.881  0.00  0.00    +0.000 HD
ATOM     18  H   UNL     1      -3.176  10.461  14.360  0.00  0.00    +0.000 HD
ENDBRANCH   9  16
BRANCH   1  20
ATOM     19  C   UNL     1       2.591   8.252  18.114  0.00  0.00    +0.000 C 
ATOM     20  C   UNL     1       1.472   8.844  17.586  0.00  0.00    +0.000 C 
BRANCH  19  25
ATOM     21  C   UNL     1       3.613   4.511  18.063  0.00  0.00    +0.000 A 
ATOM     22  C   UNL     1       4.771   4.563  17.301  0.00  0.00    +0.000 A 
ATOM     23  C   UNL     1       5.223   5.782  16.837  0.00  0.00    +0.000 A 
ATOM     24  C   UNL     1       4.513   6.967  17.125  0.00  0.00    +0.000 A 
ATOM     25  C   UNL     1       3.315   6.953  17.883  0.00  0.00    +0.000 A 
ATOM     26  C   UNL     1       2.884   5.707  18.353  0.00  0.00    +0.000 A 
BRANCH  21  28
ATOM     27  C   UNL     1       3.873   2.763  19.664  0.00  0.00    +0.000 C 
ATOM     28  O   UNL     1       3.289   3.244  18.464  0.00  0.00    +0.000 OA
ENDBRANCH  21  28
ENDBRANCH  19  25
ENDBRANCH   1  20
BRANCH   5  29
ATOM     29  C   UNL     1      -2.132  12.785  20.875  0.00  0.00    +0.000 C 
ATOM     30 CL   UNL     1      -2.794  12.398  22.483  0.00  0.00    +0.000 Cl
ENDBRANCH   5  29
TORSDOF 5
ENDMDL
MODEL 6
REMARK VINA RESULT:      -7.9      6.801      9.572
REMARK  Name = 
REMARK  6 active torsions:
REMARK  status: ('A' for Active; 'I' for Inactive)
REMARK    1  A    between atoms: C_1  and  O_2
REMARK    2  A    between atoms: O_2  and  C_3
REMARK    3  A    between atoms: C_7  and  C_8
REMARK    4  A    between atoms: C_9  and  C_10
REMARK    5  A    between atoms: C_14  and  C_15
REMARK    6  A    between atoms: C_20  and  N_21
REMARK                            x       y       z     vdW  Elec       q    Type
REMARK                         _______ _______ _______ _____ _____    ______ ____
ROOT
ATOM      1  C   UNL     1       6.900   6.382  17.695  0.00  0.00    +0.000 C 
ATOM      2  O   UNL     1       7.935   5.705  17.707  0.00  0.00    +0.000 OA
ATOM      3  N   UNL     1       5.674   5.714  17.675  0.00  0.00    +0.000 N 
ATOM      4  C   UNL     1       5.740   4.253  17.426  0.00  0.00    +0.000 C 
ATOM      5  C   UNL     1       4.384   3.898  16.815  0.00  0.00    +0.000 C 
ATOM      6  C   UNL     1       3.542   4.755  17.752  0.00  0.00    +0.000 A 
ATOM      7  C   UNL     1       4.330   5.889  18.150  0.00  0.00    +0.000 A 
ATOM      8  C   UNL     1       3.816   6.753  19.095  0.00  0.00    +0.000 A 
ATOM      9  C   UNL     1       2.601   6.380  19.760  0.00  0.00    +0.000 A 
ATOM     10  C   UNL     1       1.972   5.105  19.534  0.00  0.00    +0.000 A 
ATOM     11  C   UNL     1       1.064   4.485  20.434  0.00  0.00    +0.000 A 
ATOM     12  C   UNL     1       0.445   3.261  20.158  0.00  0.00    +0.000 A 
ATOM     13  C   UNL     1       0.611   2.692  18.919  0.00  0.00    +0.000 A 
ATOM     14  C   UNL     1       1.509   3.275  18.020  0.00  0.00    +0.000 A 
ATOM     15  C   UNL     1       2.325   4.384  18.383  0.00  0.00    +0.000 A 
ENDROOT
BRANCH   9  16
ATOM     16  N   UNL     1       2.130   7.195  20.825  0.00  0.00    +0.000 N 
ATOM     17  H   UNL     1       2.845   7.798  21.206  0.00  0.00    +0.000 HD
ATOM     18  H   UNL     1       1.313   7.740  20.538  0.00  0.00    +0.000 HD
ENDBRANCH   9  16
BRANCH   1  20
ATOM     19  C   UNL     1       8.090   8.508  18.189  0.00  0.00    +0.000 C 
ATOM     20  C   UNL     1       7.088   7.877  17.496  0.00  0.00    +0.000 C 
BRANCH  19  25
ATOM     21  C   UNL     1      10.090  11.704  19.097  0.00  0.00    +0.000 A 
ATOM     22  C   UNL     1       9.491  12.638  18.263  0.00  0.00    +0.000 A 
ATOM     23  C   UNL     1       8.449  12.246  17.447  0.00  0.00    +0.000 A 
ATOM     24  C   UNL     1       7.998  10.909  17.450  0.00  0.00    +0.000 A 
ATOM     25  C   UNL     1       8.597   9.922  18.272  0.00  0.00    +0.000 A 
ATOM     26  C   UNL     1       9.644  10.345  19.100  0.00  0.00    +0.000 A 
BRANCH  21  28
ATOM     27  C   UNL     1      12.185  12.841  19.177  0.00  0.00    +0.000 C 
ATOM     28  O   UNL     1      11.099  12.230  19.856  0.00  0.00    +0.000 OA
ENDBRANCH  21  28
ENDBRANCH  19  25
ENDBRANCH   1  20
BRANCH   5  29
ATOM     29  C   UNL     1       4.138   2.394  16.742  0.00  0.00    +0.000 C 
ATOM     30 CL   UNL     1       4.138   1.614  18.343  0.00  0.00    +0.000 Cl
ENDBRANCH   5  29
TORSDOF 5
ENDMDL
MODEL 7
REMARK VINA RESULT:      -7.9      3.476      4.184
REMARK  Name = 
REMARK  6 active torsions:
REMARK  status: ('A' for Active; 'I' for Inactive)
REMARK    1  A    between atoms: C_1  and  O_2
REMARK    2  A    between atoms: O_2  and  C_3
REMARK    3  A    between atoms: C_7  and  C_8
REMARK    4  A    between atoms: C_9  and  C_10
REMARK    5  A    between atoms: C_14  and  C_15
REMARK    6  A    between atoms: C_20  and  N_21
REMARK                            x       y       z     vdW  Elec       q    Type
REMARK                         _______ _______ _______ _____ _____    ______ ____
ROOT
ATOM      1  C   UNL     1       0.103   9.895  22.256  0.00  0.00    +0.000 C 
ATOM      2  O   UNL     1       0.142   9.878  23.492  0.00  0.00    +0.000 OA
ATOM      3  N   UNL     1      -0.200  11.102  21.622  0.00  0.00    +0.000 N 
ATOM      4  C   UNL     1      -0.683  12.192  22.505  0.00  0.00    +0.000 C 
ATOM      5  C   UNL     1      -1.528  13.086  21.598  0.00  0.00    +0.000 C 
ATOM      6  C   UNL     1      -0.583  13.060  20.402  0.00  0.00    +0.000 A 
ATOM      7  C   UNL     1       0.107  11.801  20.405  0.00  0.00    +0.000 A 
ATOM      8  C   UNL     1       1.106  11.591  19.475  0.00  0.00    +0.000 A 
ATOM      9  C   UNL     1       1.523  12.703  18.672  0.00  0.00    +0.000 A 
ATOM     10  C   UNL     1       0.997  14.027  18.876  0.00  0.00    +0.000 A 
ATOM     11  C   UNL     1       1.644  15.222  18.460  0.00  0.00    +0.000 A 
ATOM     12  C   UNL     1       1.080  16.490  18.645  0.00  0.00    +0.000 A 
ATOM     13  C   UNL     1      -0.202  16.587  19.126  0.00  0.00    +0.000 A 
ATOM     14  C   UNL     1      -0.856  15.427  19.554  0.00  0.00    +0.000 A 
ATOM     15  C   UNL     1      -0.199  14.165  19.595  0.00  0.00    +0.000 A 
ENDROOT
BRANCH   9  16
ATOM     16  N   UNL     1       2.635  12.536  17.804  0.00  0.00    +0.000 N 
ATOM     17  H   UNL     1       2.772  11.576  17.519  0.00  0.00    +0.000 HD
ATOM     18  H   UNL     1       2.560  13.147  16.987  0.00  0.00    +0.000 HD
ENDBRANCH   9  16
BRANCH   1  20
ATOM     19  C   UNL     1       1.365   8.195  20.954  0.00  0.00    +0.000 C 
ATOM     20  C   UNL     1       0.190   8.541  21.572  0.00  0.00    +0.000 C 
BRANCH  19  25
ATOM     21  C   UNL     1       2.190   4.574  19.838  0.00  0.00    +0.000 A 
ATOM     22  C   UNL     1       2.766   4.803  18.597  0.00  0.00    +0.000 A 
ATOM     23  C   UNL     1       2.906   6.100  18.145  0.00  0.00    +0.000 A 
ATOM     24  C   UNL     1       2.462   7.186  18.931  0.00  0.00    +0.000 A 
ATOM     25  C   UNL     1       1.851   6.991  20.194  0.00  0.00    +0.000 A 
ATOM     26  C   UNL     1       1.731   5.668  20.637  0.00  0.00    +0.000 A 
BRANCH  21  28
ATOM     27  C   UNL     1       1.944   2.911  21.531  0.00  0.00    +0.000 C 
ATOM     28  O   UNL     1       2.123   3.247  20.163  0.00  0.00    +0.000 OA
ENDBRANCH  21  28
ENDBRANCH  19  25
ENDBRANCH   1  20
BRANCH   5  29
ATOM     29  C   UNL     1      -1.889  14.420  22.245  0.00  0.00    +0.000 C 
ATOM     30 CL   UNL     1      -0.980  14.733  23.744  0.00  0.00    +0.000 Cl
ENDBRANCH   5  29
TORSDOF 5
ENDMDL
MODEL 8
REMARK VINA RESULT:      -7.9      6.750      9.514
REMARK  Name = 
REMARK  6 active torsions:
REMARK  status: ('A' for Active; 'I' for Inactive)
REMARK    1  A    between atoms: C_1  and  O_2
REMARK    2  A    between atoms: O_2  and  C_3
REMARK    3  A    between atoms: C_7  and  C_8
REMARK    4  A    between atoms: C_9  and  C_10
REMARK    5  A    between atoms: C_14  and  C_15
REMARK    6  A    between atoms: C_20  and  N_21
REMARK                            x       y       z     vdW  Elec       q    Type
REMARK                         _______ _______ _______ _____ _____    ______ ____
ROOT
ATOM      1  C   UNL     1       6.916   6.272  17.670  0.00  0.00    +0.000 C 
ATOM      2  O   UNL     1       7.941   5.580  17.694  0.00  0.00    +0.000 OA
ATOM      3  N   UNL     1       5.680   5.621  17.657  0.00  0.00    +0.000 N 
ATOM      4  C   UNL     1       5.726   4.156  17.430  0.00  0.00    +0.000 C 
ATOM      5  C   UNL     1       4.366   3.812  16.821  0.00  0.00    +0.000 C 
ATOM      6  C   UNL     1       3.535   4.694  17.744  0.00  0.00    +0.000 A 
ATOM      7  C   UNL     1       4.338   5.822  18.127  0.00  0.00    +0.000 A 
ATOM      8  C   UNL     1       3.835   6.708  19.058  0.00  0.00    +0.000 A 
ATOM      9  C   UNL     1       2.614   6.362  19.726  0.00  0.00    +0.000 A 
ATOM     10  C   UNL     1       1.967   5.093  19.517  0.00  0.00    +0.000 A 
ATOM     11  C   UNL     1       1.048   4.499  20.425  0.00  0.00    +0.000 A 
ATOM     12  C   UNL     1       0.411   3.280  20.165  0.00  0.00    +0.000 A 
ATOM     13  C   UNL     1       0.572   2.691  18.935  0.00  0.00    +0.000 A 
ATOM     14  C   UNL     1       1.480   3.248  18.029  0.00  0.00    +0.000 A 
ATOM     15  C   UNL     1       2.311   4.350  18.378  0.00  0.00    +0.000 A 
ENDROOT
BRANCH   9  16
ATOM     16  N   UNL     1       2.152   7.198  20.778  0.00  0.00    +0.000 N 
ATOM     17  H   UNL     1       2.887   7.473  21.414  0.00  0.00    +0.000 HD
ATOM     18  H   UNL     1       1.669   8.022  20.409  0.00  0.00    +0.000 HD
ENDBRANCH   9  16
BRANCH   1  20
ATOM     19  C   UNL     1       8.071   8.407  18.207  0.00  0.00    +0.000 C 
ATOM     20  C   UNL     1       7.127   7.761  17.450  0.00  0.00    +0.000 C 
BRANCH  19  25
ATOM     21  C   UNL     1       8.535  12.233  17.778  0.00  0.00    +0.000 A 
ATOM     22  C   UNL     1       9.609  12.467  18.624  0.00  0.00    +0.000 A 
ATOM     23  C   UNL     1      10.184  11.407  19.298  0.00  0.00    +0.000 A 
ATOM     24  C   UNL     1       9.683  10.097  19.135  0.00  0.00    +0.000 A 
ATOM     25  C   UNL     1       8.575   9.822  18.296  0.00  0.00    +0.000 A 
ATOM     26  C   UNL     1       8.017  10.910  17.614  0.00  0.00    +0.000 A 
BRANCH  21  28
ATOM     27  C   UNL     1       7.845  14.507  17.986  0.00  0.00    +0.000 C 
ATOM     28  O   UNL     1       8.073  13.368  17.170  0.00  0.00    +0.000 OA
ENDBRANCH  21  28
ENDBRANCH  19  25
ENDBRANCH   1  20
BRANCH   5  29
ATOM     29  C   UNL     1       4.099   2.311  16.770  0.00  0.00    +0.000 C 
ATOM     30 CL   UNL     1       4.163   1.540  18.374  0.00  0.00    +0.000 Cl
ENDBRANCH   5  29
TORSDOF 5
ENDMDL
MODEL 9
REMARK VINA RESULT:      -7.8      0.922      1.749
REMARK  Name = 
REMARK  6 active torsions:
REMARK  status: ('A' for Active; 'I' for Inactive)
REMARK    1  A    between atoms: C_1  and  O_2
REMARK    2  A    between atoms: O_2  and  C_3
REMARK    3  A    between atoms: C_7  and  C_8
REMARK    4  A    between atoms: C_9  and  C_10
REMARK    5  A    between atoms: C_14  and  C_15
REMARK    6  A    between atoms: C_20  and  N_21
REMARK                            x       y       z     vdW  Elec       q    Type
REMARK                         _______ _______ _______ _____ _____    ______ ____
ROOT
ATOM      1  C   UNL     1       1.462  10.500  18.226  0.00  0.00    +0.000 C 
ATOM      2  O   UNL     1       2.315  11.372  18.428  0.00  0.00    +0.000 OA
ATOM      3  N   UNL     1       0.135  10.783  18.558  0.00  0.00    +0.000 N 
ATOM      4  C   UNL     1      -0.082  12.021  19.346  0.00  0.00    +0.000 C 
ATOM      5  C   UNL     1      -1.384  11.776  20.109  0.00  0.00    +0.000 C 
ATOM      6  C   UNL     1      -2.143  11.134  18.954  0.00  0.00    +0.000 A 
ATOM      7  C   UNL     1      -1.192  10.459  18.114  0.00  0.00    +0.000 A 
ATOM      8  C   UNL     1      -1.633   9.895  16.935  0.00  0.00    +0.000 A 
ATOM      9  C   UNL     1      -2.979  10.165  16.521  0.00  0.00    +0.000 A 
ATOM     10  C   UNL     1      -3.831  11.068  17.249  0.00  0.00    +0.000 A 
ATOM     11  C   UNL     1      -4.968  11.722  16.699  0.00  0.00    +0.000 A 
ATOM     12  C   UNL     1      -5.792  12.564  17.454  0.00  0.00    +0.000 A 
ATOM     13  C   UNL     1      -5.583  12.668  18.806  0.00  0.00    +0.000 A 
ATOM     14  C   UNL     1      -4.465  12.046  19.370  0.00  0.00    +0.000 A 
ATOM     15  C   UNL     1      -3.487  11.388  18.571  0.00  0.00    +0.000 A 
ENDROOT
BRANCH   9  16
ATOM     16  N   UNL     1      -3.407   9.700  15.248  0.00  0.00    +0.000 N 
ATOM     17  H   UNL     1      -4.167  10.244  14.865  0.00  0.00    +0.000 HD
ATOM     18  H   UNL     1      -2.625   9.660  14.589  0.00  0.00    +0.000 HD
ENDBRANCH   9  16
BRANCH   1  20
ATOM     19  C   UNL     1       2.156   8.183  18.802  0.00  0.00    +0.000 C 
ATOM     20  C   UNL     1       1.994   9.134  17.826  0.00  0.00    +0.000 C 
BRANCH  19  25
ATOM     21  C   UNL     1       3.927   4.829  17.989  0.00  0.00    +0.000 A 
ATOM     22  C   UNL     1       3.507   4.044  19.052  0.00  0.00    +0.000 A 
ATOM     23  C   UNL     1       2.652   4.579  19.995  0.00  0.00    +0.000 A 
ATOM     24  C   UNL     1       2.212   5.916  19.887  0.00  0.00    +0.000 A 
ATOM     25  C   UNL     1       2.634   6.756  18.827  0.00  0.00    +0.000 A 
ATOM     26  C   UNL     1       3.491   6.187  17.876  0.00  0.00    +0.000 A 
BRANCH  21  28
ATOM     27  C   UNL     1       5.213   4.872  15.981  0.00  0.00    +0.000 C 
ATOM     28  O   UNL     1       4.760   4.170  17.128  0.00  0.00    +0.000 OA
ENDBRANCH  21  28
ENDBRANCH  19  25
ENDBRANCH   1  20
BRANCH   5  29
ATOM     29  C   UNL     1      -1.937  13.038  20.766  0.00  0.00    +0.000 C 
ATOM     30 CL   UNL     1      -2.638  12.732  22.374  0.00  0.00    +0.000 Cl
ENDBRANCH   5  29
TORSDOF 5
ENDMDL
