MODEL 1
REMARK VINA RESULT:     -10.0      0.000      0.000
REMARK  Name = 
REMARK  9 active torsions:
REMARK  status: ('A' for Active; 'I' for Inactive)
REMARK    1  A    between atoms: N_3  and  C_4
REMARK    2  A    between atoms: C_4  and  C_5
REMARK    3  A    between atoms: C_5  and  C_6
REMARK    4  A    between atoms: C_6  and  C_7
REMARK    5  A    between atoms: C_7  and  C_8
REMARK    6  A    between atoms: C_8  and  C_9
REMARK    7  A    between atoms: C_9  and  N_10
REMARK    8  A    between atoms: N_13  and  C_14
REMARK    9  A    between atoms: N_23  and  C_24
REMARK                            x       y       z     vdW  Elec       q    Type
REMARK                         _______ _______ _______ _____ _____    ______ ____
ROOT
ATOM      1  C   UNL     1       6.850   5.883  17.264  0.00  0.00    +0.000 C 
ENDROOT
BRANCH   1   2
ATOM      2  C   UNL     1       7.440   4.586  16.734  0.00  0.00    +0.000 C 
BRANCH   2   3
ATOM      3  C   UNL     1       6.430   3.904  15.825  0.00  0.00    +0.000 C 
BRANCH   3   6
ATOM      4  O   UNL     1       3.692   4.651  16.021  0.00  0.00    +0.000 OA
ATOM      5  C   UNL     1       4.051   3.632  16.689  0.00  0.00    +0.000 C 
ATOM      6  N   UNL     1       5.449   3.177  16.642  0.00  0.00    +0.000 N 
ATOM      7  N   UNL     1       3.069   2.906  17.509  0.00  0.00    +0.000 N 
ATOM      8  H   UNL     1       5.727   2.387  17.159  0.00  0.00    +0.000 HD
ATOM      9  H   UNL     1       2.134   3.211  17.541  0.00  0.00    +0.000 HD
BRANCH   7  10
ATOM     10  C   UNL     1       3.613   1.297  18.581  0.00  0.00    +0.000 C 
ATOM     11  O   UNL     1       3.450   1.716  18.284  0.00  0.00    +0.000 OA
ATOM     12  C   UNL     1       3.450   1.716  18.284  0.00  0.00    +0.000 C 
ATOM     13  C   UNL     1       3.450   1.716  18.284  0.00  0.00    +0.000 C 
ATOM     14  O   UNL     1       3.450   1.716  18.284  0.00  0.00    +0.000 OA
ATOM     15  C   UNL     1       3.450   1.716  18.284  0.00  0.00    +0.000 C 
ATOM     16  O   UNL     1       3.450   1.716  18.284  0.00  0.00    +0.000 OA
ATOM     17  C   UNL     1       3.450   1.716  18.284  0.00  0.00    +0.000 C 
ATOM     18  O   UNL     1       3.450   1.716  18.284  0.00  0.00    +0.000 OA
ENDBRANCH   7  10
ENDBRANCH   3   6
ENDBRANCH   2   3
ENDBRANCH   1   2
BRANCH   1  19
ATOM     19  C   UNL     1       7.010   5.931  18.775  0.00  0.00    +0.000 C 
BRANCH  19  20
ATOM     20  C   UNL     1       5.952   5.055  19.425  0.00  0.00    +0.000 C 
BRANCH  20  21
ATOM     21  C   UNL     1       4.641   5.820  19.505  0.00  0.00    +0.000 C 
BRANCH  21  22
ATOM     22  N   UNL     1       3.580   4.926  19.991  0.00  0.00    +0.000 N 
ATOM     23  C   UNL     1       2.212   5.057  19.469  0.00  0.00    +0.000 C 
ATOM     24  O   UNL     1       1.946   5.943  18.599  0.00  0.00    +0.000 OA
ATOM     25  N   UNL     1       1.152   4.162  19.952  0.00  0.00    +0.000 N 
ATOM     26  H   UNL     1       3.786   4.240  20.667  0.00  0.00    +0.000 HD
ATOM     27  H   UNL     1       0.237   4.247  19.603  0.00  0.00    +0.000 HD
BRANCH  25  28
ATOM     28  C   UNL     1       1.571   2.454  21.791  0.00  0.00    +0.000 C 
ATOM     29  O   UNL     1       1.305   3.149  21.010  0.00  0.00    +0.000 OA
ATOM     30  C   UNL     1       1.305   3.149  21.010  0.00  0.00    +0.000 C 
ATOM     31  C   UNL     1       1.305   3.149  21.010  0.00  0.00    +0.000 C 
ATOM     32  O   UNL     1       1.305   3.149  21.010  0.00  0.00    +0.000 OA
ATOM     33  C   UNL     1       1.305   3.149  21.010  0.00  0.00    +0.000 C 
ATOM     34  O   UNL     1       1.305   3.149  21.010  0.00  0.00    +0.000 OA
ATOM     35  C   UNL     1       1.305   3.149  21.010  0.00  0.00    +0.000 C 
ATOM     36  O   UNL     1       1.305   3.149  21.010  0.00  0.00    +0.000 OA
ENDBRANCH  25  28
ENDBRANCH  21  22
ENDBRANCH  20  21
ENDBRANCH  19  20
ENDBRANCH   1  19
TORSDOF 9
ENDMDL
MODEL 2
REMARK VINA RESULT:      -9.9      2.194      5.036
REMARK  Name = 
REMARK  9 active torsions:
REMARK  status: ('A' for Active; 'I' for Inactive)
REMARK    1  A    between atoms: N_3  and  C_4
REMARK    2  A    between atoms: C_4  and  C_5
REMARK    3  A    between atoms: C_5  and  C_6
REMARK    4  A    between atoms: C_6  and  C_7
REMARK    5  A    between atoms: C_7  and  C_8
REMARK    6  A    between atoms: C_8  and  C_9
REMARK    7  A    between atoms: C_9  and  N_10
REMARK    8  A    between atoms: N_13  and  C_14
REMARK    9  A    between atoms: N_23  and  C_24
REMARK                            x       y       z     vdW  Elec       q    Type
REMARK                         _______ _______ _______ _____ _____    ______ ____
ROOT
ATOM      1  C   UNL     1       0.833   3.557  19.274  0.00  0.00    +0.000 C 
ENDROOT
BRANCH   1   2
ATOM      2  C   UNL     1       1.265   4.228  17.980  0.00  0.00    +0.000 C 
BRANCH   2   3
ATOM      3  C   UNL     1       2.110   5.451  18.301  0.00  0.00    +0.000 C 
BRANCH   3   6
ATOM      4  O   UNL     1       3.460   7.867  17.644  0.00  0.00    +0.000 OA
ATOM      5  C   UNL     1       3.890   6.808  17.089  0.00  0.00    +0.000 C 
ATOM      6  N   UNL     1       3.249   5.516  17.375  0.00  0.00    +0.000 N 
ATOM      7  N   UNL     1       5.029   6.874  16.161  0.00  0.00    +0.000 N 
ATOM      8  H   UNL     1       3.583   4.695  16.946  0.00  0.00    +0.000 HD
ATOM      9  H   UNL     1       5.457   7.739  15.969  0.00  0.00    +0.000 HD
BRANCH   7  10
ATOM     10  C   UNL     1       5.722   5.216  15.264  0.00  0.00    +0.000 C 
ATOM     11  O   UNL     1       5.556   5.664  15.514  0.00  0.00    +0.000 OA
ATOM     12  C   UNL     1       5.556   5.664  15.514  0.00  0.00    +0.000 C 
ATOM     13  C   UNL     1       5.556   5.664  15.514  0.00  0.00    +0.000 C 
ATOM     14  O   UNL     1       5.556   5.664  15.514  0.00  0.00    +0.000 OA
ATOM     15  C   UNL     1       5.556   5.664  15.514  0.00  0.00    +0.000 C 
ATOM     16  O   UNL     1       5.556   5.664  15.514  0.00  0.00    +0.000 OA
ATOM     17  C   UNL     1       5.556   5.664  15.514  0.00  0.00    +0.000 C 
ATOM     18  O   UNL     1       5.556   5.664  15.514  0.00  0.00    +0.000 OA
ENDBRANCH   7  10
ENDBRANCH   3   6
ENDBRANCH   2   3
ENDBRANCH   1   2
BRANCH   1  19
ATOM     19  C   UNL     1       1.519   4.233  20.449  0.00  0.00    +0.000 C 
BRANCH  19  20
ATOM     20  C   UNL     1       1.647   3.246  21.599  0.00  0.00    +0.000 C 
BRANCH  20  21
ATOM     21  C   UNL     1       2.864   2.365  21.376  0.00  0.00    +0.000 C 
BRANCH  21  22
ATOM     22  N   UNL     1       3.863   3.099  20.586  0.00  0.00    +0.000 N 
ATOM     23  C   UNL     1       4.332   2.553  19.304  0.00  0.00    +0.000 C 
ATOM     24  O   UNL     1       3.875   1.446  18.880  0.00  0.00    +0.000 OA
ATOM     25  N   UNL     1       5.329   3.287  18.512  0.00  0.00    +0.000 N 
ATOM     26  H   UNL     1       4.218   3.956  20.916  0.00  0.00    +0.000 HD
ATOM     27  H   UNL     1       5.642   2.924  17.654  0.00  0.00    +0.000 HD
BRANCH  25  28
ATOM     28  C   UNL     1       6.393   5.438  19.356  0.00  0.00    +0.000 C 
ATOM     29  O   UNL     1       5.882   4.532  19.069  0.00  0.00    +0.000 OA
ATOM     30  C   UNL     1       5.882   4.532  19.069  0.00  0.00    +0.000 C 
ATOM     31  C   UNL     1       5.882   4.532  19.069  0.00  0.00    +0.000 C 
ATOM     32  O   UNL     1       5.882   4.532  19.069  0.00  0.00    +0.000 OA
ATOM     33  C   UNL     1       5.882   4.532  19.069  0.00  0.00    +0.000 C 
ATOM     34  O   UNL     1       5.882   4.532  19.069  0.00  0.00    +0.000 OA
ATOM     35  C   UNL     1       5.882   4.532  19.069  0.00  0.00    +0.000 C 
ATOM     36  O   UNL     1       5.882   4.532  19.069  0.00  0.00    +0.000 OA
ENDBRANCH  25  28
ENDBRANCH  21  22
ENDBRANCH  20  21
ENDBRANCH  19  20
ENDBRANCH   1  19
TORSDOF 9
ENDMDL
MODEL 3
REMARK VINA RESULT:      -9.8      1.771      2.112
REMARK  Name = 
REMARK  9 active torsions:
REMARK  status: ('A' for Active; 'I' for Inactive)
REMARK    1  A    between atoms: N_3  and  C_4
REMARK    2  A    between atoms: C_4  and  C_5
REMARK    3  A    between atoms: C_5  and  C_6
REMARK    4  A    between atoms: C_6  and  C_7
REMARK    5  A    between atoms: C_7  and  C_8
REMARK    6  A    between atoms: C_8  and  C_9
REMARK    7  A    between atoms: C_9  and  N_10
REMARK    8  A    between atoms: N_13  and  C_14
REMARK    9  A    between atoms: N_23  and  C_24
REMARK                            x       y       z     vdW  Elec       q    Type
REMARK                         _______ _______ _______ _____ _____    ______ ____
ROOT
ATOM      1  C   UNL     1       5.071   6.071  16.350  0.00  0.00    +0.000 C 
ENDROOT
BRANCH   1   2
ATOM      2  C   UNL     1       6.528   6.318  16.704  0.00  0.00    +0.000 C 
BRANCH   2   3
ATOM      3  C   UNL     1       7.204   4.993  17.023  0.00  0.00    +0.000 C 
BRANCH   3   6
ATOM      4  O   UNL     1       7.058   5.422  19.832  0.00  0.00    +0.000 OA
ATOM      5  C   UNL     1       6.328   4.494  19.361  0.00  0.00    +0.000 C 
ATOM      6  N   UNL     1       6.343   4.208  17.919  0.00  0.00    +0.000 N 
ATOM      7  N   UNL     1       5.468   3.708  20.258  0.00  0.00    +0.000 N 
ATOM      8  H   UNL     1       5.776   3.490  17.554  0.00  0.00    +0.000 HD
ATOM      9  H   UNL     1       5.459   3.899  21.223  0.00  0.00    +0.000 HD
BRANCH   7  10
ATOM     10  C   UNL     1       4.313   2.230  19.541  0.00  0.00    +0.000 C 
ATOM     11  O   UNL     1       4.641   2.612  19.732  0.00  0.00    +0.000 OA
ATOM     12  C   UNL     1       4.641   2.612  19.732  0.00  0.00    +0.000 C 
ATOM     13  C   UNL     1       4.641   2.612  19.732  0.00  0.00    +0.000 C 
ATOM     14  O   UNL     1       4.641   2.612  19.732  0.00  0.00    +0.000 OA
ATOM     15  C   UNL     1       4.641   2.612  19.732  0.00  0.00    +0.000 C 
ATOM     16  O   UNL     1       4.641   2.612  19.732  0.00  0.00    +0.000 OA
ATOM     17  C   UNL     1       4.641   2.612  19.732  0.00  0.00    +0.000 C 
ATOM     18  O   UNL     1       4.641   2.612  19.732  0.00  0.00    +0.000 OA
ENDBRANCH   7  10
ENDBRANCH   3   6
ENDBRANCH   2   3
ENDBRANCH   1   2
BRANCH   1  19
ATOM     19  C   UNL     1       4.189   7.014  17.152  0.00  0.00    +0.000 C 
BRANCH  19  20
ATOM     20  C   UNL     1       3.895   6.400  18.512  0.00  0.00    +0.000 C 
BRANCH  20  21
ATOM     21  C   UNL     1       2.391   6.338  18.725  0.00  0.00    +0.000 C 
BRANCH  21  22
ATOM     22  N   UNL     1       2.059   5.159  19.537  0.00  0.00    +0.000 N 
ATOM     23  C   UNL     1       1.307   4.045  18.941  0.00  0.00    +0.000 C 
ATOM     24  O   UNL     1       0.943   4.102  17.725  0.00  0.00    +0.000 OA
ATOM     25  N   UNL     1       0.976   2.865  19.751  0.00  0.00    +0.000 N 
ATOM     26  H   UNL     1       2.340   5.116  20.479  0.00  0.00    +0.000 HD
ATOM     27  H   UNL     1       0.475   2.118  19.354  0.00  0.00    +0.000 HD
BRANCH  25  28
ATOM     28  C   UNL     1       1.548   2.733  22.226  0.00  0.00    +0.000 C 
ATOM     29  O   UNL     1       1.216   2.795  21.201  0.00  0.00    +0.000 OA
ATOM     30  C   UNL     1       1.216   2.795  21.201  0.00  0.00    +0.000 C 
ATOM     31  C   UNL     1       1.216   2.795  21.201  0.00  0.00    +0.000 C 
ATOM     32  O   UNL     1       1.216   2.795  21.201  0.00  0.00    +0.000 OA
ATOM     33  C   UNL     1       1.216   2.795  21.201  0.00  0.00    +0.000 C 
ATOM     34  O   UNL     1       1.216   2.795  21.201  0.00  0.00    +0.000 OA
ATOM     35  C   UNL     1       1.216   2.795  21.201  0.00  0.00    +0.000 C 
ATOM     36  O   UNL     1       1.216   2.795  21.201  0.00  0.00    +0.000 OA
ENDBRANCH  25  28
ENDBRANCH  21  22
ENDBRANCH  20  21
ENDBRANCH  19  20
ENDBRANCH   1  19
TORSDOF 9
ENDMDL
MODEL 4
REMARK VINA RESULT:      -9.6      1.677      3.745
REMARK  Name = 
REMARK  9 active torsions:
REMARK  status: ('A' for Active; 'I' for Inactive)
REMARK    1  A    between atoms: N_3  and  C_4
REMARK    2  A    between atoms: C_4  and  C_5
REMARK    3  A    between atoms: C_5  and  C_6
REMARK    4  A    between atoms: C_6  and  C_7
REMARK    5  A    between atoms: C_7  and  C_8
REMARK    6  A    between atoms: C_8  and  C_9
REMARK    7  A    between atoms: C_9  and  N_10
REMARK    8  A    between atoms: N_13  and  C_14
REMARK    9  A    between atoms: N_23  and  C_24
REMARK                            x       y       z     vdW  Elec       q    Type
REMARK                         _______ _______ _______ _____ _____    ______ ____
ROOT
ATOM      1  C   UNL     1       4.898   3.374  15.889  0.00  0.00    +0.000 C 
ENDROOT
BRANCH   1   2
ATOM      2  C   UNL     1       4.609   3.118  17.359  0.00  0.00    +0.000 C 
BRANCH   2   3
ATOM      3  C   UNL     1       3.344   2.283  17.489  0.00  0.00    +0.000 C 
BRANCH   3   6
ATOM      4  O   UNL     1       0.560   2.649  17.945  0.00  0.00    +0.000 OA
ATOM      5  C   UNL     1       1.310   2.663  18.971  0.00  0.00    +0.000 C 
ATOM      6  N   UNL     1       2.762   2.480  18.823  0.00  0.00    +0.000 N 
ATOM      7  N   UNL     1       0.727   2.863  20.306  0.00  0.00    +0.000 N 
ATOM      8  H   UNL     1       3.343   2.490  19.618  0.00  0.00    +0.000 HD
ATOM      9  H   UNL     1      -0.245   2.987  20.405  0.00  0.00    +0.000 HD
BRANCH   7  10
ATOM     10  C   UNL     1       1.891   2.900  21.942  0.00  0.00    +0.000 C 
ATOM     11  O   UNL     1       1.568   2.871  21.511  0.00  0.00    +0.000 OA
ATOM     12  C   UNL     1       1.568   2.871  21.511  0.00  0.00    +0.000 C 
ATOM     13  C   UNL     1       1.568   2.871  21.511  0.00  0.00    +0.000 C 
ATOM     14  O   UNL     1       1.568   2.871  21.511  0.00  0.00    +0.000 OA
ATOM     15  C   UNL     1       1.568   2.871  21.511  0.00  0.00    +0.000 C 
ATOM     16  O   UNL     1       1.568   2.871  21.511  0.00  0.00    +0.000 OA
ATOM     17  C   UNL     1       1.568   2.871  21.511  0.00  0.00    +0.000 C 
ATOM     18  O   UNL     1       1.568   2.871  21.511  0.00  0.00    +0.000 OA
ENDBRANCH   7  10
ENDBRANCH   3   6
ENDBRANCH   2   3
ENDBRANCH   1   2
BRANCH   1  19
ATOM     19  C   UNL     1       5.053   4.867  15.656  0.00  0.00    +0.000 C 
BRANCH  19  20
ATOM     20  C   UNL     1       6.516   5.255  15.799  0.00  0.00    +0.000 C 
BRANCH  20  21
ATOM     21  C   UNL     1       6.664   6.264  16.926  0.00  0.00    +0.000 C 
BRANCH  21  22
ATOM     22  N   UNL     1       5.532   6.131  17.854  0.00  0.00    +0.000 N 
ATOM     23  C   UNL     1       5.709   5.425  19.132  0.00  0.00    +0.000 C 
ATOM     24  O   UNL     1       6.839   4.930  19.433  0.00  0.00    +0.000 OA
ATOM     25  N   UNL     1       4.579   5.294  20.062  0.00  0.00    +0.000 N 
ATOM     26  H   UNL     1       4.657   6.514  17.620  0.00  0.00    +0.000 HD
ATOM     27  H   UNL     1       4.696   4.824  20.917  0.00  0.00    +0.000 HD
BRANCH  25  28
ATOM     28  C   UNL     1       2.252   6.138  19.474  0.00  0.00    +0.000 C 
ATOM     29  O   UNL     1       3.220   5.703  19.674  0.00  0.00    +0.000 OA
ATOM     30  C   UNL     1       3.220   5.703  19.674  0.00  0.00    +0.000 C 
ATOM     31  C   UNL     1       3.220   5.703  19.674  0.00  0.00    +0.000 C 
ATOM     32  O   UNL     1       3.220   5.703  19.674  0.00  0.00    +0.000 OA
ATOM     33  C   UNL     1       3.220   5.703  19.674  0.00  0.00    +0.000 C 
ATOM     34  O   UNL     1       3.220   5.703  19.674  0.00  0.00    +0.000 OA
ATOM     35  C   UNL     1       3.220   5.703  19.674  0.00  0.00    +0.000 C 
ATOM     36  O   UNL     1       3.220   5.703  19.674  0.00  0.00    +0.000 OA
ENDBRANCH  25  28
ENDBRANCH  21  22
ENDBRANCH  20  21
ENDBRANCH  19  20
ENDBRANCH   1  19
TORSDOF 9
ENDMDL
MODEL 5
REMARK VINA RESULT:      -9.5      2.842      6.036
REMARK  Name = 
REMARK  9 active torsions:
REMARK  status: ('A' for Active; 'I' for Inactive)
REMARK    1  A    between atoms: N_3  and  C_4
REMARK    2  A    between atoms: C_4  and  C_5
REMARK    3  A    between atoms: C_5  and  C_6
REMARK    4  A    between atoms: C_6  and  C_7
REMARK    5  A    between atoms: C_7  and  C_8
REMARK    6  A    between atoms: C_8  and  C_9
REMARK    7  A    between atoms: C_9  and  N_10
REMARK    8  A    between atoms: N_13  and  C_14
REMARK    9  A    between atoms: N_23  and  C_24
REMARK                            x       y       z     vdW  Elec       q    Type
REMARK                         _______ _______ _______ _____ _____    ______ ____
ROOT
ATOM      1  C   UNL     1       1.927   4.916  20.673  0.00  0.00    +0.000 C 
ENDROOT
BRANCH   1   2
ATOM      2  C   UNL     1       1.486   3.461  20.668  0.00  0.00    +0.000 C 
BRANCH   2   3
ATOM      3  C   UNL     1       2.494   2.629  19.889  0.00  0.00    +0.000 C 
BRANCH   3   6
ATOM      4  O   UNL     1       4.170   2.409  17.601  0.00  0.00    +0.000 OA
ATOM      5  C   UNL     1       4.544   3.223  18.503  0.00  0.00    +0.000 C 
ATOM      6  N   UNL     1       3.734   3.397  19.718  0.00  0.00    +0.000 N 
ATOM      7  N   UNL     1       5.787   3.990  18.331  0.00  0.00    +0.000 N 
ATOM      8  H   UNL     1       4.024   4.029  20.416  0.00  0.00    +0.000 HD
ATOM      9  H   UNL     1       6.329   3.872  17.518  0.00  0.00    +0.000 HD
BRANCH   7  10
ATOM     10  C   UNL     1       6.406   5.275  19.745  0.00  0.00    +0.000 C 
ATOM     11  O   UNL     1       6.257   4.938  19.352  0.00  0.00    +0.000 OA
ATOM     12  C   UNL     1       6.257   4.938  19.352  0.00  0.00    +0.000 C 
ATOM     13  C   UNL     1       6.257   4.938  19.352  0.00  0.00    +0.000 C 
ATOM     14  O   UNL     1       6.257   4.938  19.352  0.00  0.00    +0.000 OA
ATOM     15  C   UNL     1       6.257   4.938  19.352  0.00  0.00    +0.000 C 
ATOM     16  O   UNL     1       6.257   4.938  19.352  0.00  0.00    +0.000 OA
ATOM     17  C   UNL     1       6.257   4.938  19.352  0.00  0.00    +0.000 C 
ATOM     18  O   UNL     1       6.257   4.938  19.352  0.00  0.00    +0.000 OA
ENDBRANCH   7  10
ENDBRANCH   3   6
ENDBRANCH   2   3
ENDBRANCH   1   2
BRANCH   1  19
ATOM     19  C   UNL     1       1.861   5.471  19.261  0.00  0.00    +0.000 C 
BRANCH  19  20
ATOM     20  C   UNL     1       2.824   6.640  19.129  0.00  0.00    +0.000 C 
BRANCH  20  21
ATOM     21  C   UNL     1       3.139   6.873  17.661  0.00  0.00    +0.000 C 
BRANCH  21  22
ATOM     22  N   UNL     1       4.563   7.210  17.512  0.00  0.00    +0.000 N 
ATOM     23  C   UNL     1       5.356   6.590  16.441  0.00  0.00    +0.000 C 
ATOM     24  O   UNL     1       4.813   5.763  15.645  0.00  0.00    +0.000 OA
ATOM     25  N   UNL     1       6.778   6.927  16.290  0.00  0.00    +0.000 N 
ATOM     26  H   UNL     1       4.983   7.849  18.131  0.00  0.00    +0.000 HD
ATOM     27  H   UNL     1       7.310   6.515  15.574  0.00  0.00    +0.000 HD
BRANCH  25  28
ATOM     28  C   UNL     1       7.973   8.467  17.926  0.00  0.00    +0.000 C 
ATOM     29  O   UNL     1       7.509   7.743  17.274  0.00  0.00    +0.000 OA
ATOM     30  C   UNL     1       7.509   7.743  17.274  0.00  0.00    +0.000 C 
ATOM     31  C   UNL     1       7.509   7.743  17.274  0.00  0.00    +0.000 C 
ATOM     32  O   UNL     1       7.509   7.743  17.274  0.00  0.00    +0.000 OA
ATOM     33  C   UNL     1       7.509   7.743  17.274  0.00  0.00    +0.000 C 
ATOM     34  O   UNL     1       7.509   7.743  17.274  0.00  0.00    +0.000 OA
ATOM     35  C   UNL     1       7.509   7.743  17.274  0.00  0.00    +0.000 C 
ATOM     36  O   UNL     1       7.509   7.743  17.274  0.00  0.00    +0.000 OA
ENDBRANCH  25  28
ENDBRANCH  21  22
ENDBRANCH  20  21
ENDBRANCH  19  20
ENDBRANCH   1  19
TORSDOF 9
ENDMDL
MODEL 6
REMARK VINA RESULT:      -9.2      2.087      5.473
REMARK  Name = 
REMARK  9 active torsions:
REMARK  status: ('A' for Active; 'I' for Inactive)
REMARK    1  A    between atoms: N_3  and  C_4
REMARK    2  A    between atoms: C_4  and  C_5
REMARK    3  A    between atoms: C_5  and  C_6
REMARK    4  A    between atoms: C_6  and  C_7
REMARK    5  A    between atoms: C_7  and  C_8
REMARK    6  A    between atoms: C_8  and  C_9
REMARK    7  A    between atoms: C_9  and  N_10
REMARK    8  A    between atoms: N_13  and  C_14
REMARK    9  A    between atoms: N_23  and  C_24
REMARK                            x       y       z     vdW  Elec       q    Type
REMARK                         _______ _______ _______ _____ _____    ______ ____
ROOT
ATOM      1  C   UNL     1       1.122   3.847  20.331  0.00  0.00    +0.000 C 
ENDROOT
BRANCH   1   2
ATOM      2  C   UNL     1       1.832   5.065  20.901  0.00  0.00    +0.000 C 
BRANCH   2   3
ATOM      3  C   UNL     1       2.284   5.966  19.763  0.00  0.00    +0.000 C 
BRANCH   3   6
ATOM      4  O   UNL     1       3.698   7.080  17.560  0.00  0.00    +0.000 OA
ATOM      5  C   UNL     1       4.391   6.448  18.418  0.00  0.00    +0.000 C 
ATOM      6  N   UNL     1       3.737   5.843  19.588  0.00  0.00    +0.000 N 
ATOM      7  N   UNL     1       5.845   6.323  18.242  0.00  0.00    +0.000 N 
ATOM      8  H   UNL     1       4.274   5.354  20.254  0.00  0.00    +0.000 HD
ATOM      9  H   UNL     1       6.282   6.727  17.458  0.00  0.00    +0.000 HD
BRANCH   7  10
ATOM     10  C   UNL     1       6.961   5.322  19.579  0.00  0.00    +0.000 C 
ATOM     11  O   UNL     1       6.674   5.582  19.203  0.00  0.00    +0.000 OA
ATOM     12  C   UNL     1       6.674   5.582  19.203  0.00  0.00    +0.000 C 
ATOM     13  C   UNL     1       6.674   5.582  19.203  0.00  0.00    +0.000 C 
ATOM     14  O   UNL     1       6.674   5.582  19.203  0.00  0.00    +0.000 OA
ATOM     15  C   UNL     1       6.674   5.582  19.203  0.00  0.00    +0.000 C 
ATOM     16  O   UNL     1       6.674   5.582  19.203  0.00  0.00    +0.000 OA
ATOM     17  C   UNL     1       6.674   5.582  19.203  0.00  0.00    +0.000 C 
ATOM     18  O   UNL     1       6.674   5.582  19.203  0.00  0.00    +0.000 OA
ENDBRANCH   7  10
ENDBRANCH   3   6
ENDBRANCH   2   3
ENDBRANCH   1   2
BRANCH   1  19
ATOM     19  C   UNL     1       1.711   2.586  20.940  0.00  0.00    +0.000 C 
BRANCH  19  20
ATOM     20  C   UNL     1       3.078   2.317  20.330  0.00  0.00    +0.000 C 
BRANCH  20  21
ATOM     21  C   UNL     1       2.903   1.723  18.942  0.00  0.00    +0.000 C 
BRANCH  21  22
ATOM     22  N   UNL     1       3.756   2.447  17.988  0.00  0.00    +0.000 N 
ATOM     23  C   UNL     1       3.155   3.386  17.030  0.00  0.00    +0.000 C 
ATOM     24  O   UNL     1       1.898   3.571  17.025  0.00  0.00    +0.000 OA
ATOM     25  N   UNL     1       4.006   4.112  16.078  0.00  0.00    +0.000 N 
ATOM     26  H   UNL     1       4.730   2.303  17.991  0.00  0.00    +0.000 HD
ATOM     27  H   UNL     1       3.606   4.741  15.437  0.00  0.00    +0.000 HD
BRANCH  25  28
ATOM     28  C   UNL     1       6.512   3.696  15.931  0.00  0.00    +0.000 C 
ATOM     29  O   UNL     1       5.466   3.921  16.071  0.00  0.00    +0.000 OA
ATOM     30  C   UNL     1       5.466   3.921  16.071  0.00  0.00    +0.000 C 
ATOM     31  C   UNL     1       5.466   3.921  16.071  0.00  0.00    +0.000 C 
ATOM     32  O   UNL     1       5.466   3.921  16.071  0.00  0.00    +0.000 OA
ATOM     33  C   UNL     1       5.466   3.921  16.071  0.00  0.00    +0.000 C 
ATOM     34  O   UNL     1       5.466   3.921  16.071  0.00  0.00    +0.000 OA
ATOM     35  C   UNL     1       5.466   3.921  16.071  0.00  0.00    +0.000 C 
ATOM     36  O   UNL     1       5.466   3.921  16.071  0.00  0.00    +0.000 OA
ENDBRANCH  25  28
ENDBRANCH  21  22
ENDBRANCH  20  21
ENDBRANCH  19  20
ENDBRANCH   1  19
TORSDOF 9
ENDMDL
MODEL 7
REMARK VINA RESULT:      -9.2      2.530      4.878
REMARK  Name = 
REMARK  9 active torsions:
REMARK  status: ('A' for Active; 'I' for Inactive)
REMARK    1  A    between atoms: N_3  and  C_4
REMARK    2  A    between atoms: C_4  and  C_5
REMARK    3  A    between atoms: C_5  and  C_6
REMARK    4  A    between atoms: C_6  and  C_7
REMARK    5  A    between atoms: C_7  and  C_8
REMARK    6  A    between atoms: C_8  and  C_9
REMARK    7  A    between atoms: C_9  and  N_10
REMARK    8  A    between atoms: N_13  and  C_14
REMARK    9  A    between atoms: N_23  and  C_24
REMARK                            x       y       z     vdW  Elec       q    Type
REMARK                         _______ _______ _______ _____ _____    ______ ____
ROOT
ATOM      1  C   UNL     1       2.090   7.945  18.562  0.00  0.00    +0.000 C 
ENDROOT
BRANCH   1   2
ATOM      2  C   UNL     1       2.922   6.955  17.765  0.00  0.00    +0.000 C 
BRANCH   2   3
ATOM      3  C   UNL     1       4.166   7.649  17.234  0.00  0.00    +0.000 C 
BRANCH   3   6
ATOM      4  O   UNL     1       6.968   8.061  16.960  0.00  0.00    +0.000 OA
ATOM      5  C   UNL     1       6.517   6.943  16.559  0.00  0.00    +0.000 C 
ATOM      6  N   UNL     1       5.080   6.648  16.666  0.00  0.00    +0.000 N 
ATOM      7  N   UNL     1       7.431   5.943  15.988  0.00  0.00    +0.000 N 
ATOM      8  H   UNL     1       4.731   5.781  16.356  0.00  0.00    +0.000 HD
ATOM      9  H   UNL     1       8.393   6.140  15.916  0.00  0.00    +0.000 HD
BRANCH   7  10
ATOM     10  C   UNL     1       6.743   4.172  15.339  0.00  0.00    +0.000 C 
ATOM     11  O   UNL     1       6.914   4.657  15.497  0.00  0.00    +0.000 OA
ATOM     12  C   UNL     1       6.914   4.657  15.497  0.00  0.00    +0.000 C 
ATOM     13  C   UNL     1       6.914   4.657  15.497  0.00  0.00    +0.000 C 
ATOM     14  O   UNL     1       6.914   4.657  15.497  0.00  0.00    +0.000 OA
ATOM     15  C   UNL     1       6.914   4.657  15.497  0.00  0.00    +0.000 C 
ATOM     16  O   UNL     1       6.914   4.657  15.497  0.00  0.00    +0.000 OA
ATOM     17  C   UNL     1       6.914   4.657  15.497  0.00  0.00    +0.000 C 
ATOM     18  O   UNL     1       6.914   4.657  15.497  0.00  0.00    +0.000 OA
ENDBRANCH   7  10
ENDBRANCH   3   6
ENDBRANCH   2   3
ENDBRANCH   1   2
BRANCH   1  19
ATOM     19  C   UNL     1       2.071   7.530  20.024  0.00  0.00    +0.000 C 
BRANCH  19  20
ATOM     20  C   UNL     1       1.183   6.307  20.192  0.00  0.00    +0.000 C 
BRANCH  20  21
ATOM     21  C   UNL     1       1.947   5.226  20.938  0.00  0.00    +0.000 C 
BRANCH  21  22
ATOM     22  N   UNL     1       3.260   5.031  20.308  0.00  0.00    +0.000 N 
ATOM     23  C   UNL     1       3.431   4.007  19.267  0.00  0.00    +0.000 C 
ATOM     24  O   UNL     1       2.444   3.291  18.912  0.00  0.00    +0.000 OA
ATOM     25  N   UNL     1       4.743   3.813  18.635  0.00  0.00    +0.000 N 
ATOM     26  H   UNL     1       4.025   5.585  20.585  0.00  0.00    +0.000 HD
ATOM     27  H   UNL     1       4.859   3.131  17.937  0.00  0.00    +0.000 HD
BRANCH  25  28
ATOM     28  C   UNL     1       6.799   5.110  19.384  0.00  0.00    +0.000 C 
ATOM     29  O   UNL     1       5.969   4.483  19.099  0.00  0.00    +0.000 OA
ATOM     30  C   UNL     1       5.969   4.483  19.099  0.00  0.00    +0.000 C 
ATOM     31  C   UNL     1       5.969   4.483  19.099  0.00  0.00    +0.000 C 
ATOM     32  O   UNL     1       5.969   4.483  19.099  0.00  0.00    +0.000 OA
ATOM     33  C   UNL     1       5.969   4.483  19.099  0.00  0.00    +0.000 C 
ATOM     34  O   UNL     1       5.969   4.483  19.099  0.00  0.00    +0.000 OA
ATOM     35  C   UNL     1       5.969   4.483  19.099  0.00  0.00    +0.000 C 
ATOM     36  O   UNL     1       5.969   4.483  19.099  0.00  0.00    +0.000 OA
ENDBRANCH  25  28
ENDBRANCH  21  22
ENDBRANCH  20  21
ENDBRANCH  19  20
ENDBRANCH   1  19
TORSDOF 9
ENDMDL
MODEL 8
REMARK VINA RESULT:      -9.1      2.680      6.068
REMARK  Name = 
REMARK  9 active torsions:
REMARK  status: ('A' for Active; 'I' for Inactive)
REMARK    1  A    between atoms: N_3  and  C_4
REMARK    2  A    between atoms: C_4  and  C_5
REMARK    3  A    between atoms: C_5  and  C_6
REMARK    4  A    between atoms: C_6  and  C_7
REMARK    5  A    between atoms: C_7  and  C_8
REMARK    6  A    between atoms: C_8  and  C_9
REMARK    7  A    between atoms: C_9  and  N_10
REMARK    8  A    between atoms: N_13  and  C_14
REMARK    9  A    between atoms: N_23  and  C_24
REMARK                            x       y       z     vdW  Elec       q    Type
REMARK                         _______ _______ _______ _____ _____    ______ ____
ROOT
ATOM      1  C   UNL     1       2.805   6.256  20.023  0.00  0.00    +0.000 C 
ENDROOT
BRANCH   1   2
ATOM      2  C   UNL     1       2.492   7.442  19.126  0.00  0.00    +0.000 C 
BRANCH   2   3
ATOM      3  C   UNL     1       2.990   7.158  17.717  0.00  0.00    +0.000 C 
BRANCH   3   6
ATOM      4  O   UNL     1       4.593   7.394  15.379  0.00  0.00    +0.000 OA
ATOM      5  C   UNL     1       5.209   7.190  16.472  0.00  0.00    +0.000 C 
ATOM      6  N   UNL     1       4.455   7.057  17.727  0.00  0.00    +0.000 N 
ATOM      7  N   UNL     1       6.676   7.088  16.481  0.00  0.00    +0.000 N 
ATOM      8  H   UNL     1       4.933   6.900  18.574  0.00  0.00    +0.000 HD
ATOM      9  H   UNL     1       7.181   7.176  15.640  0.00  0.00    +0.000 HD
BRANCH   7  10
ATOM     10  C   UNL     1       7.673   6.756  18.192  0.00  0.00    +0.000 C 
ATOM     11  O   UNL     1       7.401   6.822  17.732  0.00  0.00    +0.000 OA
ATOM     12  C   UNL     1       7.401   6.822  17.732  0.00  0.00    +0.000 C 
ATOM     13  C   UNL     1       7.401   6.822  17.732  0.00  0.00    +0.000 C 
ATOM     14  O   UNL     1       7.401   6.822  17.732  0.00  0.00    +0.000 OA
ATOM     15  C   UNL     1       7.401   6.822  17.732  0.00  0.00    +0.000 C 
ATOM     16  O   UNL     1       7.401   6.822  17.732  0.00  0.00    +0.000 OA
ATOM     17  C   UNL     1       7.401   6.822  17.732  0.00  0.00    +0.000 C 
ATOM     18  O   UNL     1       7.401   6.822  17.732  0.00  0.00    +0.000 OA
ENDBRANCH   7  10
ENDBRANCH   3   6
ENDBRANCH   2   3
ENDBRANCH   1   2
BRANCH   1  19
ATOM     19  C   UNL     1       1.771   5.165  19.801  0.00  0.00    +0.000 C 
BRANCH  19  20
ATOM     20  C   UNL     1       1.859   4.668  18.366  0.00  0.00    +0.000 C 
BRANCH  20  21
ATOM     21  C   UNL     1       2.637   3.363  18.330  0.00  0.00    +0.000 C 
BRANCH  21  22
ATOM     22  N   UNL     1       3.795   3.507  17.436  0.00  0.00    +0.000 N 
ATOM     23  C   UNL     1       5.144   3.653  18.000  0.00  0.00    +0.000 C 
ATOM     24  O   UNL     1       5.310   3.656  19.260  0.00  0.00    +0.000 OA
ATOM     25  N   UNL     1       6.303   3.795  17.108  0.00  0.00    +0.000 N 
ATOM     26  H   UNL     1       3.666   3.506  16.461  0.00  0.00    +0.000 HD
ATOM     27  H   UNL     1       7.206   3.891  17.483  0.00  0.00    +0.000 HD
BRANCH  25  28
ATOM     28  C   UNL     1       6.041   3.937  14.581  0.00  0.00    +0.000 C 
ATOM     29  O   UNL     1       6.244   3.875  15.640  0.00  0.00    +0.000 OA
ATOM     30  C   UNL     1       6.244   3.875  15.640  0.00  0.00    +0.000 C 
ATOM     31  C   UNL     1       6.244   3.875  15.640  0.00  0.00    +0.000 C 
ATOM     32  O   UNL     1       6.244   3.875  15.640  0.00  0.00    +0.000 OA
ATOM     33  C   UNL     1       6.244   3.875  15.640  0.00  0.00    +0.000 C 
ATOM     34  O   UNL     1       6.244   3.875  15.640  0.00  0.00    +0.000 OA
ATOM     35  C   UNL     1       6.244   3.875  15.640  0.00  0.00    +0.000 C 
ATOM     36  O   UNL     1       6.244   3.875  15.640  0.00  0.00    +0.000 OA
ENDBRANCH  25  28
ENDBRANCH  21  22
ENDBRANCH  20  21
ENDBRANCH  19  20
ENDBRANCH   1  19
TORSDOF 9
ENDMDL
MODEL 9
REMARK VINA RESULT:      -9.1      1.868      3.774
REMARK  Name = 
REMARK  9 active torsions:
REMARK  status: ('A' for Active; 'I' for Inactive)
REMARK    1  A    between atoms: N_3  and  C_4
REMARK    2  A    between atoms: C_4  and  C_5
REMARK    3  A    between atoms: C_5  and  C_6
REMARK    4  A    between atoms: C_6  and  C_7
REMARK    5  A    between atoms: C_7  and  C_8
REMARK    6  A    between atoms: C_8  and  C_9
REMARK    7  A    between atoms: C_9  and  N_10
REMARK    8  A    between atoms: N_13  and  C_14
REMARK    9  A    between atoms: N_23  and  C_24
REMARK                            x       y       z     vdW  Elec       q    Type
REMARK                         _______ _______ _______ _____ _____    ______ ____
ROOT
ATOM      1  C   UNL     1       4.475   6.980  16.406  0.00  0.00    +0.000 C 
ENDROOT
BRANCH   1   2
ATOM      2  C   UNL     1       3.224   7.026  17.267  0.00  0.00    +0.000 C 
BRANCH   2   3
ATOM      3  C   UNL     1       3.544   6.497  18.656  0.00  0.00    +0.000 C 
BRANCH   3   6
ATOM      4  O   UNL     1       1.890   6.489  20.971  0.00  0.00    +0.000 OA
ATOM      5  C   UNL     1       1.801   5.478  20.207  0.00  0.00    +0.000 C 
ATOM      6  N   UNL     1       2.621   5.403  18.988  0.00  0.00    +0.000 N 
ATOM      7  N   UNL     1       0.878   4.383  20.540  0.00  0.00    +0.000 N 
ATOM      8  H   UNL     1       2.551   4.619  18.396  0.00  0.00    +0.000 HD
ATOM      9  H   UNL     1       0.330   4.433  21.357  0.00  0.00    +0.000 HD
BRANCH   7  10
ATOM     10  C   UNL     1       0.726   2.769  19.355  0.00  0.00    +0.000 C 
ATOM     11  O   UNL     1       0.779   3.189  19.688  0.00  0.00    +0.000 OA
ATOM     12  C   UNL     1       0.779   3.189  19.688  0.00  0.00    +0.000 C 
ATOM     13  C   UNL     1       0.779   3.189  19.688  0.00  0.00    +0.000 C 
ATOM     14  O   UNL     1       0.779   3.189  19.688  0.00  0.00    +0.000 OA
ATOM     15  C   UNL     1       0.779   3.189  19.688  0.00  0.00    +0.000 C 
ATOM     16  O   UNL     1       0.779   3.189  19.688  0.00  0.00    +0.000 OA
ATOM     17  C   UNL     1       0.779   3.189  19.688  0.00  0.00    +0.000 C 
ATOM     18  O   UNL     1       0.779   3.189  19.688  0.00  0.00    +0.000 OA
ENDBRANCH   7  10
ENDBRANCH   3   6
ENDBRANCH   2   3
ENDBRANCH   1   2
BRANCH   1  19
ATOM     19  C   UNL     1       5.144   5.624  16.557  0.00  0.00    +0.000 C 
BRANCH  19  20
ATOM     20  C   UNL     1       6.643   5.772  16.348  0.00  0.00    +0.000 C 
BRANCH  20  21
ATOM     21  C   UNL     1       7.375   4.732  17.181  0.00  0.00    +0.000 C 
BRANCH  21  22
ATOM     22  N   UNL     1       6.402   3.967  17.975  0.00  0.00    +0.000 N 
ATOM     23  C   UNL     1       6.140   4.339  19.372  0.00  0.00    +0.000 C 
ATOM     24  O   UNL     1       6.753   5.322  19.895  0.00  0.00    +0.000 OA
ATOM     25  N   UNL     1       5.167   3.578  20.166  0.00  0.00    +0.000 N 
ATOM     26  H   UNL     1       5.928   3.205  17.570  0.00  0.00    +0.000 HD
ATOM     27  H   UNL     1       4.988   3.826  21.100  0.00  0.00    +0.000 HD
BRANCH  25  28
ATOM     28  C   UNL     1       3.999   1.516  19.239  0.00  0.00    +0.000 C 
ATOM     29  O   UNL     1       4.427   2.394  19.697  0.00  0.00    +0.000 OA
ATOM     30  C   UNL     1       4.427   2.394  19.697  0.00  0.00    +0.000 C 
ATOM     31  C   UNL     1       4.427   2.394  19.697  0.00  0.00    +0.000 C 
ATOM     32  O   UNL     1       4.427   2.394  19.697  0.00  0.00    +0.000 OA
ATOM     33  C   UNL     1       4.427   2.394  19.697  0.00  0.00    +0.000 C 
ATOM     34  O   UNL     1       4.427   2.394  19.697  0.00  0.00    +0.000 OA
ATOM     35  C   UNL     1       4.427   2.394  19.697  0.00  0.00    +0.000 C 
ATOM     36  O   UNL     1       4.427   2.394  19.697  0.00  0.00    +0.000 OA
ENDBRANCH  25  28
ENDBRANCH  21  22
ENDBRANCH  20  21
ENDBRANCH  19  20
ENDBRANCH   1  19
TORSDOF 9
ENDMDL
