MODEL 1
REMARK VINA RESULT:      -7.0      0.000      0.000
REMARK  Name = 
REMARK  5 active torsions:
REMARK  status: ('A' for Active; 'I' for Inactive)
REMARK    1  A    between atoms: C_1  and  C_2
REMARK    2  A    between atoms: C_4  and  C_5
REMARK    3  A    between atoms: C_7  and  C_9
REMARK    4  A    between atoms: C_9  and  S_10
REMARK    5  A    between atoms: S_10  and  C_11
REMARK                            x       y       z     vdW  Elec       q    Type
REMARK                         _______ _______ _______ _____ _____    ______ ____
ROOT
ATOM      1  C   UNL     1       5.280   2.380  11.556  0.00  0.00    +0.000 C 
ATOM      2  C   UNL     1       6.083   3.379  12.305  0.00  0.00    +0.000 A 
ATOM      3  C   UNL     1       7.099   4.198  11.780  0.00  0.00    +0.000 A 
ATOM      4  C   UNL     1       7.544   4.951  12.839  0.00  0.00    +0.000 A 
ATOM      5  C   UNL     1       8.607   5.989  12.879  0.00  0.00    +0.000 C 
ATOM      6  N   UNL     1       6.796   4.564  13.947  0.00  0.00    +0.000 N 
ATOM      7  C   UNL     1       6.893   5.060  15.265  0.00  0.00    +0.000 C 
ATOM      8  O   UNL     1       7.719   5.935  15.500  0.00  0.00    +0.000 OA
ATOM      9  N   UNL     1       5.893   3.593  13.615  0.00  0.00    +0.000 NA
ENDROOT
BRANCH   7  10
ATOM     10  C   UNL     1       5.934   4.437  16.267  0.00  0.00    +0.000 C 
BRANCH  10  11
ATOM     11  S   UNL     1       4.711   5.736  16.750  0.00  0.00    +0.000 S 
BRANCH  11  12
ATOM     12  C   UNL     1       3.690   5.031  18.022  0.00  0.00    +0.000 A 
ATOM     13  C   UNL     1       3.854   5.211  19.396  0.00  0.00    +0.000 A 
ATOM     14  C   UNL     1       2.972   4.598  20.298  0.00  0.00    +0.000 A 
ATOM     15  C   UNL     1       1.924   3.804  19.827  0.00  0.00    +0.000 A 
ATOM     16 CL   UNL     1       0.847   3.056  20.941  0.00  0.00    +0.000 Cl
ATOM     17  C   UNL     1       1.747   3.616  18.463  0.00  0.00    +0.000 A 
ATOM     18  C   UNL     1       2.627   4.229  17.569  0.00  0.00    +0.000 A 
ENDBRANCH  11  12
ENDBRANCH  10  11
ENDBRANCH   7  10
TORSDOF 3
ENDMDL
MODEL 2
REMARK VINA RESULT:      -6.9      1.059      1.155
REMARK  Name = 
REMARK  5 active torsions:
REMARK  status: ('A' for Active; 'I' for Inactive)
REMARK    1  A    between atoms: C_1  and  C_2
REMARK    2  A    between atoms: C_4  and  C_5
REMARK    3  A    between atoms: C_7  and  C_9
REMARK    4  A    between atoms: C_9  and  S_10
REMARK    5  A    between atoms: S_10  and  C_11
REMARK                            x       y       z     vdW  Elec       q    Type
REMARK                         _______ _______ _______ _____ _____    ______ ____
ROOT
ATOM      1  C   UNL     1       5.032   2.723  11.499  0.00  0.00    +0.000 C 
ATOM      2  C   UNL     1       5.904   3.581  12.341  0.00  0.00    +0.000 A 
ATOM      3  C   UNL     1       7.064   4.257  11.923  0.00  0.00    +0.000 A 
ATOM      4  C   UNL     1       7.524   4.915  13.038  0.00  0.00    +0.000 A 
ATOM      5  C   UNL     1       8.715   5.790  13.195  0.00  0.00    +0.000 C 
ATOM      6  N   UNL     1       6.641   4.615  14.072  0.00  0.00    +0.000 N 
ATOM      7  C   UNL     1       6.700   5.062  15.409  0.00  0.00    +0.000 C 
ATOM      8  O   UNL     1       7.619   5.805  15.736  0.00  0.00    +0.000 OA
ATOM      9  N   UNL     1       5.641   3.790  13.638  0.00  0.00    +0.000 NA
ENDROOT
BRANCH   7  10
ATOM     10  C   UNL     1       5.585   4.561  16.313  0.00  0.00    +0.000 C 
BRANCH  10  11
ATOM     11  S   UNL     1       5.845   5.307  17.984  0.00  0.00    +0.000 S 
BRANCH  11  12
ATOM     12  C   UNL     1       4.549   4.684  19.030  0.00  0.00    +0.000 A 
ATOM     13  C   UNL     1       3.486   5.426  19.544  0.00  0.00    +0.000 A 
ATOM     14  C   UNL     1       2.525   4.810  20.359  0.00  0.00    +0.000 A 
ATOM     15  C   UNL     1       2.626   3.451  20.661  0.00  0.00    +0.000 A 
ATOM     16 CL   UNL     1       1.443   2.702  21.662  0.00  0.00    +0.000 Cl
ATOM     17  C   UNL     1       3.679   2.698  20.157  0.00  0.00    +0.000 A 
ATOM     18  C   UNL     1       4.632   3.316  19.346  0.00  0.00    +0.000 A 
ENDBRANCH  11  12
ENDBRANCH  10  11
ENDBRANCH   7  10
TORSDOF 3
ENDMDL
MODEL 3
REMARK VINA RESULT:      -6.8      2.735      3.716
REMARK  Name = 
REMARK  5 active torsions:
REMARK  status: ('A' for Active; 'I' for Inactive)
REMARK    1  A    between atoms: C_1  and  C_2
REMARK    2  A    between atoms: C_4  and  C_5
REMARK    3  A    between atoms: C_7  and  C_9
REMARK    4  A    between atoms: C_9  and  S_10
REMARK    5  A    between atoms: S_10  and  C_11
REMARK                            x       y       z     vdW  Elec       q    Type
REMARK                         _______ _______ _______ _____ _____    ______ ____
ROOT
ATOM      1  C   UNL     1       6.433   4.159  13.848  0.00  0.00    +0.000 C 
ATOM      2  C   UNL     1       6.414   4.423  15.309  0.00  0.00    +0.000 A 
ATOM      3  C   UNL     1       7.246   5.318  16.007  0.00  0.00    +0.000 A 
ATOM      4  C   UNL     1       6.861   5.223  17.322  0.00  0.00    +0.000 A 
ATOM      5  C   UNL     1       7.387   5.936  18.515  0.00  0.00    +0.000 C 
ATOM      6  N   UNL     1       5.830   4.289  17.371  0.00  0.00    +0.000 N 
ATOM      7  C   UNL     1       5.114   3.858  18.508  0.00  0.00    +0.000 C 
ATOM      8  O   UNL     1       5.403   4.340  19.597  0.00  0.00    +0.000 OA
ATOM      9  N   UNL     1       5.555   3.796  16.126  0.00  0.00    +0.000 NA
ENDROOT
BRANCH   7  10
ATOM     10  C   UNL     1       4.036   2.819  18.244  0.00  0.00    +0.000 C 
BRANCH  10  11
ATOM     11  S   UNL     1       2.567   3.703  17.553  0.00  0.00    +0.000 S 
BRANCH  11  12
ATOM     12  C   UNL     1       2.308   5.138  18.571  0.00  0.00    +0.000 A 
ATOM     13  C   UNL     1       2.529   6.462  18.190  0.00  0.00    +0.000 A 
ATOM     14  C   UNL     1       2.281   7.506  19.092  0.00  0.00    +0.000 A 
ATOM     15  C   UNL     1       1.810   7.229  20.376  0.00  0.00    +0.000 A 
ATOM     16 CL   UNL     1       1.508   8.517  21.477  0.00  0.00    +0.000 Cl
ATOM     17  C   UNL     1       1.584   5.917  20.771  0.00  0.00    +0.000 A 
ATOM     18  C   UNL     1       1.832   4.881  19.869  0.00  0.00    +0.000 A 
ENDBRANCH  11  12
ENDBRANCH  10  11
ENDBRANCH   7  10
TORSDOF 3
ENDMDL
MODEL 4
REMARK VINA RESULT:      -6.7      2.559      3.305
REMARK  Name = 
REMARK  5 active torsions:
REMARK  status: ('A' for Active; 'I' for Inactive)
REMARK    1  A    between atoms: C_1  and  C_2
REMARK    2  A    between atoms: C_4  and  C_5
REMARK    3  A    between atoms: C_7  and  C_9
REMARK    4  A    between atoms: C_9  and  S_10
REMARK    5  A    between atoms: S_10  and  C_11
REMARK                            x       y       z     vdW  Elec       q    Type
REMARK                         _______ _______ _______ _____ _____    ______ ____
ROOT
ATOM      1  C   UNL     1       6.259   3.659  13.282  0.00  0.00    +0.000 C 
ATOM      2  C   UNL     1       6.317   4.188  14.668  0.00  0.00    +0.000 A 
ATOM      3  C   UNL     1       7.146   5.225  15.132  0.00  0.00    +0.000 A 
ATOM      4  C   UNL     1       6.847   5.361  16.466  0.00  0.00    +0.000 A 
ATOM      5  C   UNL     1       7.411   6.301  17.470  0.00  0.00    +0.000 C 
ATOM      6  N   UNL     1       5.867   4.416  16.754  0.00  0.00    +0.000 N 
ATOM      7  C   UNL     1       5.243   4.177  17.997  0.00  0.00    +0.000 C 
ATOM      8  O   UNL     1       5.574   4.862  18.959  0.00  0.00    +0.000 OA
ATOM      9  N   UNL     1       5.540   3.692  15.642  0.00  0.00    +0.000 NA
ENDROOT
BRANCH   7  10
ATOM     10  C   UNL     1       4.201   3.069  18.001  0.00  0.00    +0.000 C 
BRANCH  10  11
ATOM     11  S   UNL     1       2.585   3.823  17.514  0.00  0.00    +0.000 S 
BRANCH  11  12
ATOM     12  C   UNL     1       2.243   5.110  18.691  0.00  0.00    +0.000 A 
ATOM     13  C   UNL     1       1.783   4.924  19.995  0.00  0.00    +0.000 A 
ATOM     14  C   UNL     1       1.555   6.030  20.827  0.00  0.00    +0.000 A 
ATOM     15  C   UNL     1       1.787   7.324  20.356  0.00  0.00    +0.000 A 
ATOM     16 CL   UNL     1       1.505   8.675  21.383  0.00  0.00    +0.000 Cl
ATOM     17  C   UNL     1       2.246   7.525  19.060  0.00  0.00    +0.000 A 
ATOM     18  C   UNL     1       2.473   6.421  18.237  0.00  0.00    +0.000 A 
ENDBRANCH  11  12
ENDBRANCH  10  11
ENDBRANCH   7  10
TORSDOF 3
ENDMDL
MODEL 5
REMARK VINA RESULT:      -6.6      3.689      4.550
REMARK  Name = 
REMARK  5 active torsions:
REMARK  status: ('A' for Active; 'I' for Inactive)
REMARK    1  A    between atoms: C_1  and  C_2
REMARK    2  A    between atoms: C_4  and  C_5
REMARK    3  A    between atoms: C_7  and  C_9
REMARK    4  A    between atoms: C_9  and  S_10
REMARK    5  A    between atoms: S_10  and  C_11
REMARK                            x       y       z     vdW  Elec       q    Type
REMARK                         _______ _______ _______ _____ _____    ______ ____
ROOT
ATOM      1  C   UNL     1       5.756   4.021  14.053  0.00  0.00    +0.000 C 
ATOM      2  C   UNL     1       5.995   4.368  15.477  0.00  0.00    +0.000 A 
ATOM      3  C   UNL     1       7.232   4.698  16.060  0.00  0.00    +0.000 A 
ATOM      4  C   UNL     1       6.957   4.942  17.384  0.00  0.00    +0.000 A 
ATOM      5  C   UNL     1       7.877   5.333  18.483  0.00  0.00    +0.000 C 
ATOM      6  N   UNL     1       5.589   4.751  17.550  0.00  0.00    +0.000 N 
ATOM      7  C   UNL     1       4.840   4.887  18.738  0.00  0.00    +0.000 C 
ATOM      8  O   UNL     1       5.427   5.212  19.764  0.00  0.00    +0.000 OA
ATOM      9  N   UNL     1       4.996   4.397  16.370  0.00  0.00    +0.000 NA
ENDROOT
BRANCH   7  10
ATOM     10  C   UNL     1       3.351   4.610  18.606  0.00  0.00    +0.000 C 
BRANCH  10  11
ATOM     11  S   UNL     1       2.531   5.223  20.145  0.00  0.00    +0.000 S 
BRANCH  11  12
ATOM     12  C   UNL     1       2.033   6.900  19.827  0.00  0.00    +0.000 A 
ATOM     13  C   UNL     1       1.419   7.757  20.740  0.00  0.00    +0.000 A 
ATOM     14  C   UNL     1       1.078   9.064  20.361  0.00  0.00    +0.000 A 
ATOM     15  C   UNL     1       1.352   9.515  19.069  0.00  0.00    +0.000 A 
ATOM     16 CL   UNL     1       0.930  11.120  18.613  0.00  0.00    +0.000 Cl
ATOM     17  C   UNL     1       1.963   8.674  18.149  0.00  0.00    +0.000 A 
ATOM     18  C   UNL     1       2.301   7.375  18.531  0.00  0.00    +0.000 A 
ENDBRANCH  11  12
ENDBRANCH  10  11
ENDBRANCH   7  10
TORSDOF 3
ENDMDL
MODEL 6
REMARK VINA RESULT:      -6.5      3.696      4.588
REMARK  Name = 
REMARK  5 active torsions:
REMARK  status: ('A' for Active; 'I' for Inactive)
REMARK    1  A    between atoms: C_1  and  C_2
REMARK    2  A    between atoms: C_4  and  C_5
REMARK    3  A    between atoms: C_7  and  C_9
REMARK    4  A    between atoms: C_9  and  S_10
REMARK    5  A    between atoms: S_10  and  C_11
REMARK                            x       y       z     vdW  Elec       q    Type
REMARK                         _______ _______ _______ _____ _____    ______ ____
ROOT
ATOM      1  C   UNL     1       5.541   3.791  13.976  0.00  0.00    +0.000 C 
ATOM      2  C   UNL     1       5.851   4.205  15.368  0.00  0.00    +0.000 A 
ATOM      3  C   UNL     1       7.115   4.565  15.870  0.00  0.00    +0.000 A 
ATOM      4  C   UNL     1       6.907   4.868  17.194  0.00  0.00    +0.000 A 
ATOM      5  C   UNL     1       7.880   5.313  18.225  0.00  0.00    +0.000 C 
ATOM      6  N   UNL     1       5.550   4.681  17.439  0.00  0.00    +0.000 N 
ATOM      7  C   UNL     1       4.863   4.870  18.657  0.00  0.00    +0.000 C 
ATOM      8  O   UNL     1       5.500   5.244  19.635  0.00  0.00    +0.000 OA
ATOM      9  N   UNL     1       4.899   4.272  16.309  0.00  0.00    +0.000 NA
ENDROOT
BRANCH   7  10
ATOM     10  C   UNL     1       3.370   4.584  18.614  0.00  0.00    +0.000 C 
BRANCH  10  11
ATOM     11  S   UNL     1       2.606   5.385  20.094  0.00  0.00    +0.000 S 
BRANCH  11  12
ATOM     12  C   UNL     1       2.121   7.022  19.598  0.00  0.00    +0.000 A 
ATOM     13  C   UNL     1       2.317   7.585  18.337  0.00  0.00    +0.000 A 
ATOM     14  C   UNL     1       1.882   8.892  18.073  0.00  0.00    +0.000 A 
ATOM     15  C   UNL     1       1.251   9.638  19.070  0.00  0.00    +0.000 A 
ATOM     16 CL   UNL     1       0.720  11.241  18.739  0.00  0.00    +0.000 Cl
ATOM     17  C   UNL     1       1.049   9.091  20.331  0.00  0.00    +0.000 A 
ATOM     18  C   UNL     1       1.482   7.790  20.588  0.00  0.00    +0.000 A 
ENDBRANCH  11  12
ENDBRANCH  10  11
ENDBRANCH   7  10
TORSDOF 3
ENDMDL
MODEL 7
REMARK VINA RESULT:      -6.3      4.934      6.520
REMARK  Name = 
REMARK  5 active torsions:
REMARK  status: ('A' for Active; 'I' for Inactive)
REMARK    1  A    between atoms: C_1  and  C_2
REMARK    2  A    between atoms: C_4  and  C_5
REMARK    3  A    between atoms: C_7  and  C_9
REMARK    4  A    between atoms: C_9  and  S_10
REMARK    5  A    between atoms: S_10  and  C_11
REMARK                            x       y       z     vdW  Elec       q    Type
REMARK                         _______ _______ _______ _____ _____    ______ ____
ROOT
ATOM      1  C   UNL     1       0.681   2.267  18.893  0.00  0.00    +0.000 C 
ATOM      2  C   UNL     1       1.743   3.172  18.384  0.00  0.00    +0.000 A 
ATOM      3  C   UNL     1       2.715   2.857  17.418  0.00  0.00    +0.000 A 
ATOM      4  C   UNL     1       3.468   3.997  17.273  0.00  0.00    +0.000 A 
ATOM      5  C   UNL     1       4.634   4.254  16.389  0.00  0.00    +0.000 C 
ATOM      6  N   UNL     1       2.933   4.942  18.144  0.00  0.00    +0.000 N 
ATOM      7  C   UNL     1       3.371   6.268  18.349  0.00  0.00    +0.000 C 
ATOM      8  O   UNL     1       4.330   6.673  17.700  0.00  0.00    +0.000 OA
ATOM      9  N   UNL     1       1.867   4.430  18.830  0.00  0.00    +0.000 NA
ENDROOT
BRANCH   7  10
ATOM     10  C   UNL     1       2.581   7.065  19.374  0.00  0.00    +0.000 C 
BRANCH  10  11
ATOM     11  S   UNL     1       1.887   8.547  18.514  0.00  0.00    +0.000 S 
BRANCH  11  12
ATOM     12  C   UNL     1       0.940   9.443  19.722  0.00  0.00    +0.000 A 
ATOM     13  C   UNL     1       0.304  10.668  19.518  0.00  0.00    +0.000 A 
ATOM     14  C   UNL     1      -0.417  11.271  20.559  0.00  0.00    +0.000 A 
ATOM     15  C   UNL     1      -0.505  10.649  21.805  0.00  0.00    +0.000 A 
ATOM     16 CL   UNL     1      -1.393  11.395  23.077  0.00  0.00    +0.000 Cl
ATOM     17  C   UNL     1       0.122   9.429  22.025  0.00  0.00    +0.000 A 
ATOM     18  C   UNL     1       0.837   8.833  20.985  0.00  0.00    +0.000 A 
ENDBRANCH  11  12
ENDBRANCH  10  11
ENDBRANCH   7  10
TORSDOF 3
ENDMDL
MODEL 8
REMARK VINA RESULT:      -6.3      3.744      7.143
REMARK  Name = 
REMARK  5 active torsions:
REMARK  status: ('A' for Active; 'I' for Inactive)
REMARK    1  A    between atoms: C_1  and  C_2
REMARK    2  A    between atoms: C_4  and  C_5
REMARK    3  A    between atoms: C_7  and  C_9
REMARK    4  A    between atoms: C_9  and  S_10
REMARK    5  A    between atoms: S_10  and  C_11
REMARK                            x       y       z     vdW  Elec       q    Type
REMARK                         _______ _______ _______ _____ _____    ______ ____
ROOT
ATOM      1  C   UNL     1       1.814   2.814  21.641  0.00  0.00    +0.000 C 
ATOM      2  C   UNL     1       2.285   3.987  20.861  0.00  0.00    +0.000 A 
ATOM      3  C   UNL     1       1.589   5.193  20.664  0.00  0.00    +0.000 A 
ATOM      4  C   UNL     1       2.416   5.968  19.887  0.00  0.00    +0.000 A 
ATOM      5  C   UNL     1       2.207   7.343  19.366  0.00  0.00    +0.000 C 
ATOM      6  N   UNL     1       3.560   5.213  19.645  0.00  0.00    +0.000 N 
ATOM      7  C   UNL     1       4.694   5.588  18.894  0.00  0.00    +0.000 C 
ATOM      8  O   UNL     1       4.713   6.702  18.381  0.00  0.00    +0.000 OA
ATOM      9  N   UNL     1       3.477   3.989  20.248  0.00  0.00    +0.000 NA
ENDROOT
BRANCH   7  10
ATOM     10  C   UNL     1       5.794   4.542  18.807  0.00  0.00    +0.000 C 
BRANCH  10  11
ATOM     11  S   UNL     1       7.130   5.227  17.730  0.00  0.00    +0.000 S 
BRANCH  11  12
ATOM     12  C   UNL     1       6.742   4.745  16.063  0.00  0.00    +0.000 A 
ATOM     13  C   UNL     1       7.502   5.037  14.930  0.00  0.00    +0.000 A 
ATOM     14  C   UNL     1       7.083   4.593  13.667  0.00  0.00    +0.000 A 
ATOM     15  C   UNL     1       5.905   3.856  13.535  0.00  0.00    +0.000 A 
ATOM     16 CL   UNL     1       5.399   3.315  11.982  0.00  0.00    +0.000 Cl
ATOM     17  C   UNL     1       5.138   3.557  14.654  0.00  0.00    +0.000 A 
ATOM     18  C   UNL     1       5.559   4.000  15.908  0.00  0.00    +0.000 A 
ENDBRANCH  11  12
ENDBRANCH  10  11
ENDBRANCH   7  10
TORSDOF 3
ENDMDL
MODEL 9
REMARK VINA RESULT:      -6.2      3.678      4.970
REMARK  Name = 
REMARK  5 active torsions:
REMARK  status: ('A' for Active; 'I' for Inactive)
REMARK    1  A    between atoms: C_1  and  C_2
REMARK    2  A    between atoms: C_4  and  C_5
REMARK    3  A    between atoms: C_7  and  C_9
REMARK    4  A    between atoms: C_9  and  S_10
REMARK    5  A    between atoms: S_10  and  C_11
REMARK                            x       y       z     vdW  Elec       q    Type
REMARK                         _______ _______ _______ _____ _____    ______ ____
ROOT
ATOM      1  C   UNL     1       7.983   6.004  19.449  0.00  0.00    +0.000 C 
ATOM      2  C   UNL     1       7.027   5.234  18.613  0.00  0.00    +0.000 A 
ATOM      3  C   UNL     1       7.030   5.146  17.209  0.00  0.00    +0.000 A 
ATOM      4  C   UNL     1       5.971   4.329  16.894  0.00  0.00    +0.000 A 
ATOM      5  C   UNL     1       5.488   3.879  15.563  0.00  0.00    +0.000 C 
ATOM      6  N   UNL     1       5.376   3.963  18.098  0.00  0.00    +0.000 N 
ATOM      7  C   UNL     1       4.252   3.130  18.284  0.00  0.00    +0.000 C 
ATOM      8  O   UNL     1       3.710   2.652  17.293  0.00  0.00    +0.000 OA
ATOM      9  N   UNL     1       6.031   4.523  19.159  0.00  0.00    +0.000 NA
ENDROOT
BRANCH   7  10
ATOM     10  C   UNL     1       3.833   2.913  19.729  0.00  0.00    +0.000 C 
BRANCH  10  11
ATOM     11  S   UNL     1       2.083   3.485  19.894  0.00  0.00    +0.000 S 
BRANCH  11  12
ATOM     12  C   UNL     1       2.084   5.234  19.574  0.00  0.00    +0.000 A 
ATOM     13  C   UNL     1       1.869   6.238  20.518  0.00  0.00    +0.000 A 
ATOM     14  C   UNL     1       1.898   7.586  20.134  0.00  0.00    +0.000 A 
ATOM     15  C   UNL     1       2.143   7.932  18.804  0.00  0.00    +0.000 A 
ATOM     16 CL   UNL     1       2.178   9.589  18.340  0.00  0.00    +0.000 Cl
ATOM     17  C   UNL     1       2.359   6.945  17.851  0.00  0.00    +0.000 A 
ATOM     18  C   UNL     1       2.330   5.604  18.240  0.00  0.00    +0.000 A 
ENDBRANCH  11  12
ENDBRANCH  10  11
ENDBRANCH   7  10
TORSDOF 3
ENDMDL
