MODEL 1
REMARK VINA RESULT:      -7.3      0.000      0.000
REMARK  Name = 
REMARK  4 active torsions:
REMARK  status: ('A' for Active; 'I' for Inactive)
REMARK    1  A    between atoms: C_1  and  N_2
REMARK    2  A    between atoms: N_2  and  C_3
REMARK    3  A    between atoms: C_3  and  C_4
REMARK    4  A    between atoms: C_9  and  C_11
REMARK                            x       y       z     vdW  Elec       q    Type
REMARK                         _______ _______ _______ _____ _____    ______ ____
ROOT
ATOM      1  C   UNL     1       7.774   6.981  18.120  0.00  0.00    +0.000 C 
ATOM      2  N   UNL     1       6.491   6.318  17.951  0.00  0.00    +0.000 N 
ATOM      3  C   UNL     1       6.104   5.408  18.955  0.00  0.00    +0.000 C 
ATOM      4  O   UNL     1       6.890   5.188  19.889  0.00  0.00    +0.000 OA
ENDROOT
BRANCH   3   5
ATOM      5  C   UNL     1       4.796   4.734  18.877  0.00  0.00    +0.000 A 
ATOM      6  N   UNL     1       4.528   3.642  18.163  0.00  0.00    +0.000 NA
ATOM      7  C   UNL     1       3.234   3.299  18.379  0.00  0.00    +0.000 A 
ATOM      8  C   UNL     1       2.510   4.117  19.191  0.00  0.00    +0.000 A 
ATOM      9  S   UNL     1       3.430   5.391  19.758  0.00  0.00    +0.000 S 
ATOM     10  C   UNL     1       1.114   3.679  19.378  0.00  0.00    +0.000 C 
ATOM     11  C   UNL     1       1.189   2.222  18.799  0.00  0.00    +0.000 C 
ATOM     12  C   UNL     1       2.445   2.161  17.871  0.00  0.00    +0.000 C 
ENDBRANCH   3   5
BRANCH   2  13
ATOM     13  C   UNL     1       5.756   6.622  16.721  0.00  0.00    +0.000 C 
BRANCH  13  14
ATOM     14  C   UNL     1       6.121   5.665  15.632  0.00  0.00    +0.000 A 
ATOM     15  N   UNL     1       7.252   5.608  14.954  0.00  0.00    +0.000 NA
ATOM     16  C   UNL     1       7.126   4.534  14.108  0.00  0.00    +0.000 A 
ATOM     17  C   UNL     1       5.906   3.925  14.270  0.00  0.00    +0.000 A 
ATOM     18  N   UNL     1       5.277   4.655  15.237  0.00  0.00    +0.000 N 
ATOM     19  H   UNL     1       4.347   4.511  15.613  0.00  0.00    +0.000 HD
ENDBRANCH  13  14
ENDBRANCH   2  13
TORSDOF 3
ENDMDL
MODEL 2
REMARK VINA RESULT:      -6.9      1.037      1.656
REMARK  Name = 
REMARK  4 active torsions:
REMARK  status: ('A' for Active; 'I' for Inactive)
REMARK    1  A    between atoms: C_1  and  N_2
REMARK    2  A    between atoms: N_2  and  C_3
REMARK    3  A    between atoms: C_3  and  C_4
REMARK    4  A    between atoms: C_9  and  C_11
REMARK                            x       y       z     vdW  Elec       q    Type
REMARK                         _______ _______ _______ _____ _____    ______ ____
ROOT
ATOM      1  C   UNL     1       7.517   6.968  17.825  0.00  0.00    +0.000 C 
ATOM      2  N   UNL     1       6.262   6.239  17.915  0.00  0.00    +0.000 N 
ATOM      3  C   UNL     1       6.042   5.485  19.085  0.00  0.00    +0.000 C 
ATOM      4  O   UNL     1       6.939   5.444  19.940  0.00  0.00    +0.000 OA
ENDROOT
BRANCH   3   5
ATOM      5  C   UNL     1       4.773   4.758  19.268  0.00  0.00    +0.000 A 
ATOM      6  N   UNL     1       3.696   5.226  19.897  0.00  0.00    +0.000 NA
ATOM      7  C   UNL     1       2.718   4.288  19.820  0.00  0.00    +0.000 A 
ATOM      8  C   UNL     1       3.035   3.121  19.196  0.00  0.00    +0.000 A 
ATOM      9  S   UNL     1       4.612   3.127  18.644  0.00  0.00    +0.000 S 
ATOM     10  C   UNL     1       1.922   2.154  19.152  0.00  0.00    +0.000 C 
ATOM     11  C   UNL     1       0.722   3.076  19.567  0.00  0.00    +0.000 C 
ATOM     12  C   UNL     1       1.327   4.310  20.310  0.00  0.00    +0.000 C 
ENDBRANCH   3   5
BRANCH   2  13
ATOM     13  C   UNL     1       5.377   6.318  16.751  0.00  0.00    +0.000 C 
BRANCH  13  14
ATOM     14  C   UNL     1       5.859   5.425  15.653  0.00  0.00    +0.000 A 
ATOM     15  N   UNL     1       5.240   4.384  15.129  0.00  0.00    +0.000 NA
ATOM     16  C   UNL     1       6.057   3.931  14.123  0.00  0.00    +0.000 A 
ATOM     17  C   UNL     1       7.190   4.703  14.028  0.00  0.00    +0.000 A 
ATOM     18  N   UNL     1       7.053   5.644  15.007  0.00  0.00    +0.000 N 
ATOM     19  H   UNL     1       7.703   6.383  15.249  0.00  0.00    +0.000 HD
ENDBRANCH  13  14
ENDBRANCH   2  13
TORSDOF 3
ENDMDL
MODEL 3
REMARK VINA RESULT:      -6.5      2.085      5.465
REMARK  Name = 
REMARK  4 active torsions:
REMARK  status: ('A' for Active; 'I' for Inactive)
REMARK    1  A    between atoms: C_1  and  N_2
REMARK    2  A    between atoms: N_2  and  C_3
REMARK    3  A    between atoms: C_3  and  C_4
REMARK    4  A    between atoms: C_9  and  C_11
REMARK                            x       y       z     vdW  Elec       q    Type
REMARK                         _______ _______ _______ _____ _____    ______ ____
ROOT
ATOM      1  C   UNL     1       6.780   5.536  19.544  0.00  0.00    +0.000 C 
ATOM      2  N   UNL     1       6.480   5.478  18.122  0.00  0.00    +0.000 N 
ATOM      3  C   UNL     1       7.346   4.712  17.316  0.00  0.00    +0.000 C 
ATOM      4  O   UNL     1       8.331   4.177  17.847  0.00  0.00    +0.000 OA
ENDROOT
BRANCH   3   5
ATOM      5  C   UNL     1       7.077   4.568  15.874  0.00  0.00    +0.000 A 
ATOM      6  N   UNL     1       7.710   5.218  14.899  0.00  0.00    +0.000 NA
ATOM      7  C   UNL     1       7.216   4.789  13.711  0.00  0.00    +0.000 A 
ATOM      8  C   UNL     1       6.208   3.875  13.760  0.00  0.00    +0.000 A 
ATOM      9  S   UNL     1       5.814   3.478  15.334  0.00  0.00    +0.000 S 
ATOM     10  C   UNL     1       5.726   3.457  12.430  0.00  0.00    +0.000 C 
ATOM     11  C   UNL     1       6.867   4.027  11.516  0.00  0.00    +0.000 C 
ATOM     12  C   UNL     1       7.589   5.149  12.329  0.00  0.00    +0.000 C 
ENDBRANCH   3   5
BRANCH   2  13
ATOM     13  C   UNL     1       5.337   6.271  17.664  0.00  0.00    +0.000 C 
BRANCH  13  14
ATOM     14  C   UNL     1       4.056   5.728  18.211  0.00  0.00    +0.000 A 
ATOM     15  N   UNL     1       3.560   4.516  18.050  0.00  0.00    +0.000 NA
ATOM     16  C   UNL     1       2.401   4.487  18.785  0.00  0.00    +0.000 A 
ATOM     17  C   UNL     1       2.185   5.693  19.406  0.00  0.00    +0.000 A 
ATOM     18  N   UNL     1       3.240   6.472  19.030  0.00  0.00    +0.000 N 
ATOM     19  H   UNL     1       3.417   7.438  19.283  0.00  0.00    +0.000 HD
ENDBRANCH  13  14
ENDBRANCH   2  13
TORSDOF 3
ENDMDL
MODEL 4
REMARK VINA RESULT:      -6.3      0.944      1.187
REMARK  Name = 
REMARK  4 active torsions:
REMARK  status: ('A' for Active; 'I' for Inactive)
REMARK    1  A    between atoms: C_1  and  N_2
REMARK    2  A    between atoms: N_2  and  C_3
REMARK    3  A    between atoms: C_3  and  C_4
REMARK    4  A    between atoms: C_9  and  C_11
REMARK                            x       y       z     vdW  Elec       q    Type
REMARK                         _______ _______ _______ _____ _____    ______ ____
ROOT
ATOM      1  C   UNL     1       7.666   7.080  18.057  0.00  0.00    +0.000 C 
ATOM      2  N   UNL     1       6.415   6.342  17.983  0.00  0.00    +0.000 N 
ATOM      3  C   UNL     1       6.124   5.468  19.050  0.00  0.00    +0.000 C 
ATOM      4  O   UNL     1       6.961   5.340  19.955  0.00  0.00    +0.000 OA
ENDROOT
BRANCH   3   5
ATOM      5  C   UNL     1       4.852   4.724  19.067  0.00  0.00    +0.000 A 
ATOM      6  N   UNL     1       3.651   5.234  18.800  0.00  0.00    +0.000 NA
ATOM      7  C   UNL     1       2.738   4.234  18.875  0.00  0.00    +0.000 A 
ATOM      8  C   UNL     1       3.201   3.005  19.231  0.00  0.00    +0.000 A 
ATOM      9  S   UNL     1       4.852   3.021  19.489  0.00  0.00    +0.000 S 
ATOM     10  C   UNL     1       2.150   1.971  19.289  0.00  0.00    +0.000 C 
ATOM     11  C   UNL     1       0.976   2.712  18.559  0.00  0.00    +0.000 C 
ATOM     12  C   UNL     1       1.282   4.243  18.633  0.00  0.00    +0.000 C 
ENDBRANCH   3   5
BRANCH   2  13
ATOM     13  C   UNL     1       5.611   6.541  16.775  0.00  0.00    +0.000 C 
BRANCH  13  14
ATOM     14  C   UNL     1       6.029   5.595  15.695  0.00  0.00    +0.000 A 
ATOM     15  N   UNL     1       7.137   5.629  14.978  0.00  0.00    +0.000 NA
ATOM     16  C   UNL     1       7.086   4.526  14.161  0.00  0.00    +0.000 A 
ATOM     17  C   UNL     1       5.935   3.808  14.381  0.00  0.00    +0.000 A 
ATOM     18  N   UNL     1       5.272   4.500  15.353  0.00  0.00    +0.000 N 
ATOM     19  H   UNL     1       4.374   4.278  15.765  0.00  0.00    +0.000 HD
ENDBRANCH  13  14
ENDBRANCH   2  13
TORSDOF 3
ENDMDL
MODEL 5
REMARK VINA RESULT:      -6.3      1.998      5.615
REMARK  Name = 
REMARK  4 active torsions:
REMARK  status: ('A' for Active; 'I' for Inactive)
REMARK    1  A    between atoms: C_1  and  N_2
REMARK    2  A    between atoms: N_2  and  C_3
REMARK    3  A    between atoms: C_3  and  C_4
REMARK    4  A    between atoms: C_9  and  C_11
REMARK                            x       y       z     vdW  Elec       q    Type
REMARK                         _______ _______ _______ _____ _____    ______ ____
ROOT
ATOM      1  C   UNL     1       5.352   5.057  19.572  0.00  0.00    +0.000 C 
ATOM      2  N   UNL     1       5.344   5.011  18.119  0.00  0.00    +0.000 N 
ATOM      3  C   UNL     1       6.563   4.703  17.482  0.00  0.00    +0.000 C 
ATOM      4  O   UNL     1       7.573   4.539  18.183  0.00  0.00    +0.000 OA
ENDROOT
BRANCH   3   5
ATOM      5  C   UNL     1       6.621   4.591  16.013  0.00  0.00    +0.000 A 
ATOM      6  N   UNL     1       7.393   5.322  15.210  0.00  0.00    +0.000 NA
ATOM      7  C   UNL     1       7.200   4.900  13.935  0.00  0.00    +0.000 A 
ATOM      8  C   UNL     1       6.282   3.912  13.748  0.00  0.00    +0.000 A 
ATOM      9  S   UNL     1       5.593   3.431  15.192  0.00  0.00    +0.000 S 
ATOM     10  C   UNL     1       6.129   3.507  12.338  0.00  0.00    +0.000 C 
ATOM     11  C   UNL     1       7.389   4.194  11.703  0.00  0.00    +0.000 C 
ATOM     12  C   UNL     1       7.829   5.336  12.674  0.00  0.00    +0.000 C 
ENDBRANCH   3   5
BRANCH   2  13
ATOM     13  C   UNL     1       4.079   5.347  17.462  0.00  0.00    +0.000 C 
BRANCH  13  14
ATOM     14  C   UNL     1       2.996   4.404  17.876  0.00  0.00    +0.000 A 
ATOM     15  N   UNL     1       2.875   3.127  17.564  0.00  0.00    +0.000 NA
ATOM     16  C   UNL     1       1.755   2.686  18.223  0.00  0.00    +0.000 A 
ATOM     17  C   UNL     1       1.183   3.703  18.950  0.00  0.00    +0.000 A 
ATOM     18  N   UNL     1       1.978   4.787  18.717  0.00  0.00    +0.000 N 
ATOM     19  H   UNL     1       1.861   5.727  19.077  0.00  0.00    +0.000 HD
ENDBRANCH  13  14
ENDBRANCH   2  13
TORSDOF 3
ENDMDL
MODEL 6
REMARK VINA RESULT:      -6.2      1.940      3.319
REMARK  Name = 
REMARK  4 active torsions:
REMARK  status: ('A' for Active; 'I' for Inactive)
REMARK    1  A    between atoms: C_1  and  N_2
REMARK    2  A    between atoms: N_2  and  C_3
REMARK    3  A    between atoms: C_3  and  C_4
REMARK    4  A    between atoms: C_9  and  C_11
REMARK                            x       y       z     vdW  Elec       q    Type
REMARK                         _______ _______ _______ _____ _____    ______ ____
ROOT
ATOM      1  C   UNL     1       7.318   4.742  15.639  0.00  0.00    +0.000 C 
ATOM      2  N   UNL     1       6.400   4.709  16.766  0.00  0.00    +0.000 N 
ATOM      3  C   UNL     1       5.069   4.332  16.496  0.00  0.00    +0.000 C 
ATOM      4  O   UNL     1       4.745   4.102  15.321  0.00  0.00    +0.000 OA
ENDROOT
BRANCH   3   5
ATOM      5  C   UNL     1       4.093   4.230  17.595  0.00  0.00    +0.000 A 
ATOM      6  N   UNL     1       3.606   3.096  18.096  0.00  0.00    +0.000 NA
ATOM      7  C   UNL     1       2.773   3.406  19.121  0.00  0.00    +0.000 A 
ATOM      8  C   UNL     1       2.584   4.730  19.378  0.00  0.00    +0.000 A 
ATOM      9  S   UNL     1       3.466   5.691  18.335  0.00  0.00    +0.000 S 
ATOM     10  C   UNL     1       1.667   4.987  20.505  0.00  0.00    +0.000 C 
ATOM     11  C   UNL     1       1.582   3.555  21.140  0.00  0.00    +0.000 C 
ATOM     12  C   UNL     1       2.010   2.536  20.036  0.00  0.00    +0.000 C 
ENDBRANCH   3   5
BRANCH   2  13
ATOM     13  C   UNL     1       6.941   5.127  18.060  0.00  0.00    +0.000 C 
BRANCH  13  14
ATOM     14  C   UNL     1       7.407   6.547  18.010  0.00  0.00    +0.000 A 
ATOM     15  N   UNL     1       6.972   7.511  17.221  0.00  0.00    +0.000 NA
ATOM     16  C   UNL     1       7.667   8.636  17.589  0.00  0.00    +0.000 A 
ATOM     17  C   UNL     1       8.537   8.360  18.616  0.00  0.00    +0.000 A 
ATOM     18  N   UNL     1       8.364   7.030  18.870  0.00  0.00    +0.000 N 
ATOM     19  H   UNL     1       8.849   6.465  19.558  0.00  0.00    +0.000 HD
ENDBRANCH  13  14
ENDBRANCH   2  13
TORSDOF 3
ENDMDL
MODEL 7
REMARK VINA RESULT:      -6.2      2.086      3.481
REMARK  Name = 
REMARK  4 active torsions:
REMARK  status: ('A' for Active; 'I' for Inactive)
REMARK    1  A    between atoms: C_1  and  N_2
REMARK    2  A    between atoms: N_2  and  C_3
REMARK    3  A    between atoms: C_3  and  C_4
REMARK    4  A    between atoms: C_9  and  C_11
REMARK                            x       y       z     vdW  Elec       q    Type
REMARK                         _______ _______ _______ _____ _____    ______ ____
ROOT
ATOM      1  C   UNL     1       7.250   4.660  15.335  0.00  0.00    +0.000 C 
ATOM      2  N   UNL     1       6.401   4.568  16.511  0.00  0.00    +0.000 N 
ATOM      3  C   UNL     1       5.044   4.252  16.298  0.00  0.00    +0.000 C 
ATOM      4  O   UNL     1       4.643   4.121  15.132  0.00  0.00    +0.000 OA
ENDROOT
BRANCH   3   5
ATOM      5  C   UNL     1       4.134   4.094  17.446  0.00  0.00    +0.000 A 
ATOM      6  N   UNL     1       3.620   5.087  18.170  0.00  0.00    +0.000 NA
ATOM      7  C   UNL     1       2.798   4.550  19.106  0.00  0.00    +0.000 A 
ATOM      8  C   UNL     1       2.710   3.192  19.139  0.00  0.00    +0.000 A 
ATOM      9  S   UNL     1       3.665   2.485  17.964  0.00  0.00    +0.000 S 
ATOM     10  C   UNL     1       1.797   2.684  20.181  0.00  0.00    +0.000 C 
ATOM     11  C   UNL     1       1.051   4.006  20.579  0.00  0.00    +0.000 C 
ATOM     12  C   UNL     1       1.956   5.198  20.130  0.00  0.00    +0.000 C 
ENDBRANCH   3   5
BRANCH   2  13
ATOM     13  C   UNL     1       7.032   4.870  17.797  0.00  0.00    +0.000 C 
BRANCH  13  14
ATOM     14  C   UNL     1       7.458   6.302  17.859  0.00  0.00    +0.000 A 
ATOM     15  N   UNL     1       7.103   7.285  17.052  0.00  0.00    +0.000 NA
ATOM     16  C   UNL     1       7.708   8.412  17.549  0.00  0.00    +0.000 A 
ATOM     17  C   UNL     1       8.439   8.120  18.674  0.00  0.00    +0.000 A 
ATOM     18  N   UNL     1       8.275   6.777  18.857  0.00  0.00    +0.000 N 
ATOM     19  H   UNL     1       8.679   6.199  19.585  0.00  0.00    +0.000 HD
ENDBRANCH  13  14
ENDBRANCH   2  13
TORSDOF 3
ENDMDL
MODEL 8
REMARK VINA RESULT:      -6.0      1.970      5.624
REMARK  Name = 
REMARK  4 active torsions:
REMARK  status: ('A' for Active; 'I' for Inactive)
REMARK    1  A    between atoms: C_1  and  N_2
REMARK    2  A    between atoms: N_2  and  C_3
REMARK    3  A    between atoms: C_3  and  C_4
REMARK    4  A    between atoms: C_9  and  C_11
REMARK                            x       y       z     vdW  Elec       q    Type
REMARK                         _______ _______ _______ _____ _____    ______ ____
ROOT
ATOM      1  C   UNL     1       5.760   5.165  19.485  0.00  0.00    +0.000 C 
ATOM      2  N   UNL     1       5.642   5.011  18.044  0.00  0.00    +0.000 N 
ATOM      3  C   UNL     1       6.841   4.955  17.305  0.00  0.00    +0.000 C 
ATOM      4  O   UNL     1       7.916   5.088  17.910  0.00  0.00    +0.000 OA
ENDROOT
BRANCH   3   5
ATOM      5  C   UNL     1       6.801   4.752  15.846  0.00  0.00    +0.000 A 
ATOM      6  N   UNL     1       7.492   5.449  14.947  0.00  0.00    +0.000 NA
ATOM      7  C   UNL     1       7.225   4.942  13.718  0.00  0.00    +0.000 A 
ATOM      8  C   UNL     1       6.327   3.921  13.657  0.00  0.00    +0.000 A 
ATOM      9  S   UNL     1       5.755   3.515  15.173  0.00  0.00    +0.000 S 
ATOM     10  C   UNL     1       6.089   3.423  12.289  0.00  0.00    +0.000 C 
ATOM     11  C   UNL     1       7.281   4.101  11.525  0.00  0.00    +0.000 C 
ATOM     12  C   UNL     1       7.751   5.314  12.390  0.00  0.00    +0.000 C 
ENDBRANCH   3   5
BRANCH   2  13
ATOM     13  C   UNL     1       4.283   4.988  17.500  0.00  0.00    +0.000 C 
BRANCH  13  14
ATOM     14  C   UNL     1       3.501   3.845  18.065  0.00  0.00    +0.000 A 
ATOM     15  N   UNL     1       2.309   3.885  18.631  0.00  0.00    +0.000 NA
ATOM     16  C   UNL     1       1.997   2.583  18.935  0.00  0.00    +0.000 A 
ATOM     17  C   UNL     1       3.008   1.736  18.551  0.00  0.00    +0.000 A 
ATOM     18  N   UNL     1       3.957   2.550  18.004  0.00  0.00    +0.000 N 
ATOM     19  H   UNL     1       4.855   2.280  17.620  0.00  0.00    +0.000 HD
ENDBRANCH  13  14
ENDBRANCH   2  13
TORSDOF 3
ENDMDL
MODEL 9
REMARK VINA RESULT:      -6.0      3.648      5.713
REMARK  Name = 
REMARK  4 active torsions:
REMARK  status: ('A' for Active; 'I' for Inactive)
REMARK    1  A    between atoms: C_1  and  N_2
REMARK    2  A    between atoms: N_2  and  C_3
REMARK    3  A    between atoms: C_3  and  C_4
REMARK    4  A    between atoms: C_9  and  C_11
REMARK                            x       y       z     vdW  Elec       q    Type
REMARK                         _______ _______ _______ _____ _____    ______ ____
ROOT
ATOM      1  C   UNL     1       4.321   4.038  16.796  0.00  0.00    +0.000 C 
ATOM      2  N   UNL     1       3.372   4.864  17.525  0.00  0.00    +0.000 N 
ATOM      3  C   UNL     1       3.817   6.136  17.940  0.00  0.00    +0.000 C 
ATOM      4  O   UNL     1       4.993   6.456  17.708  0.00  0.00    +0.000 OA
ENDROOT
BRANCH   3   5
ATOM      5  C   UNL     1       2.896   7.047  18.642  0.00  0.00    +0.000 A 
ATOM      6  N   UNL     1       2.500   6.926  19.908  0.00  0.00    +0.000 NA
ATOM      7  C   UNL     1       1.693   7.975  20.204  0.00  0.00    +0.000 A 
ATOM      8  C   UNL     1       1.435   8.854  19.196  0.00  0.00    +0.000 A 
ATOM      9  S   UNL     1       2.213   8.416  17.785  0.00  0.00    +0.000 S 
ATOM     10  C   UNL     1       0.552   9.966  19.595  0.00  0.00    +0.000 C 
ATOM     11  C   UNL     1       0.580   9.811  21.156  0.00  0.00    +0.000 C 
ATOM     12  C   UNL     1       1.022   8.345  21.465  0.00  0.00    +0.000 C 
ENDBRANCH   3   5
BRANCH   2  13
ATOM     13  C   UNL     1       2.065   4.266  17.805  0.00  0.00    +0.000 C 
BRANCH  13  14
ATOM     14  C   UNL     1       2.037   3.662  19.172  0.00  0.00    +0.000 A 
ATOM     15  N   UNL     1       2.929   2.854  19.716  0.00  0.00    +0.000 NA
ATOM     16  C   UNL     1       2.488   2.620  20.995  0.00  0.00    +0.000 A 
ATOM     17  C   UNL     1       1.315   3.291  21.239  0.00  0.00    +0.000 A 
ATOM     18  N   UNL     1       1.038   3.944  20.073  0.00  0.00    +0.000 N 
ATOM     19  H   UNL     1       0.240   4.535  19.870  0.00  0.00    +0.000 HD
ENDBRANCH  13  14
ENDBRANCH   2  13
TORSDOF 3
ENDMDL
