MODEL 1
REMARK VINA RESULT:      -8.1      0.000      0.000
REMARK  Name = 
REMARK  6 active torsions:
REMARK  status: ('A' for Active; 'I' for Inactive)
REMARK    1  A    between atoms: C_1  and  O_2
REMARK    2  A    between atoms: O_2  and  C_3
REMARK    3  A    between atoms: C_6  and  C_7
REMARK    4  A    between atoms: C_11  and  C_12
REMARK    5  A    between atoms: C_15  and  C_16
REMARK    6  A    between atoms: C_21  and  C_22
REMARK                            x       y       z     vdW  Elec       q    Type
REMARK                         _______ _______ _______ _____ _____    ______ ____
ROOT
ATOM      1  C   UNL     1      -1.158  12.666  22.682  0.00  0.00    +0.000 A 
ATOM      2  N   UNL     1      -1.182  11.366  23.162  0.00  0.00    +0.000 NA
ATOM      3  C   UNL     1      -0.470  10.723  22.281  0.00  0.00    +0.000 A 
ATOM      4  S   UNL     1       0.014   9.100  22.093  0.00  0.00    +0.000 S 
ATOM      5  C   UNL     1       0.854   9.634  20.609  0.00  0.00    +0.000 A 
ATOM      6  N   UNL     1       0.787  10.905  20.310  0.00  0.00    +0.000 NA
ATOM      7  N   UNL     1       0.027  11.490  21.279  0.00  0.00    +0.000 N 
ATOM      8  C   UNL     1      -0.363  12.786  21.538  0.00  0.00    +0.000 A 
ENDROOT
BRANCH   8   9
ATOM      9  C   UNL     1       0.055  13.902  20.755  0.00  0.00    +0.000 A 
ATOM     10  N   UNL     1      -0.762  14.751  20.171  0.00  0.00    +0.000 NA
ATOM     11  C   UNL     1       0.033  15.598  19.445  0.00  0.00    +0.000 A 
ATOM     12  C   UNL     1      -0.336  16.647  18.595  0.00  0.00    +0.000 A 
ATOM     13  C   UNL     1       0.677  17.328  17.916  0.00  0.00    +0.000 A 
ATOM     14 CL   UNL     1       0.252  18.588  16.820  0.00  0.00    +0.000 Cl
ATOM     15  C   UNL     1       2.024  16.999  18.097  0.00  0.00    +0.000 A 
ATOM     16  C   UNL     1       2.409  15.973  18.970  0.00  0.00    +0.000 A 
ATOM     17  C   UNL     1       1.378  15.289  19.616  0.00  0.00    +0.000 A 
ATOM     18  N   UNL     1       1.364  14.225  20.483  0.00  0.00    +0.000 N 
ATOM     19  H   UNL     1       2.175  13.740  20.839  0.00  0.00    +0.000 HD
ENDBRANCH   8   9
BRANCH   5  20
ATOM     20  C   UNL     1       1.520   8.611  19.771  0.00  0.00    +0.000 A 
ATOM     21  C   UNL     1       1.896   7.395  20.355  0.00  0.00    +0.000 A 
ATOM     22  C   UNL     1       2.632   6.461  19.619  0.00  0.00    +0.000 A 
ATOM     23  C   UNL     1       2.988   6.723  18.290  0.00  0.00    +0.000 A 
ATOM     24  C   UNL     1       3.831   5.762  17.503  0.00  0.00    +0.000 C 
ATOM     25  C   UNL     1       2.562   7.914  17.693  0.00  0.00    +0.000 A 
ATOM     26  C   UNL     1       1.831   8.851  18.427  0.00  0.00    +0.000 A 
ENDBRANCH   5  20
BRANCH   1  30
ATOM     27  C   UNL     1      -3.347  15.676  24.766  0.00  0.00    +0.000 A 
ATOM     28  C   UNL     1      -3.983  14.847  23.842  0.00  0.00    +0.000 A 
ATOM     29  C   UNL     1      -3.259  13.867  23.158  0.00  0.00    +0.000 A 
ATOM     30  C   UNL     1      -1.884  13.720  23.375  0.00  0.00    +0.000 A 
ATOM     31  C   UNL     1      -1.239  14.616  24.237  0.00  0.00    +0.000 A 
ATOM     32  C   UNL     1      -1.968  15.571  24.947  0.00  0.00    +0.000 A 
BRANCH  27  34
ATOM     33  C   UNL     1      -5.328  16.952  24.683  0.00  0.00    +0.000 C 
ATOM     34  O   UNL     1      -4.153  16.580  25.399  0.00  0.00    +0.000 OA
ENDBRANCH  27  34
ENDBRANCH   1  30
TORSDOF 4
ENDMDL
MODEL 2
REMARK VINA RESULT:      -7.8      4.364      7.606
REMARK  Name = 
REMARK  6 active torsions:
REMARK  status: ('A' for Active; 'I' for Inactive)
REMARK    1  A    between atoms: C_1  and  O_2
REMARK    2  A    between atoms: O_2  and  C_3
REMARK    3  A    between atoms: C_6  and  C_7
REMARK    4  A    between atoms: C_11  and  C_12
REMARK    5  A    between atoms: C_15  and  C_16
REMARK    6  A    between atoms: C_21  and  C_22
REMARK                            x       y       z     vdW  Elec       q    Type
REMARK                         _______ _______ _______ _____ _____    ______ ____
ROOT
ATOM      1  C   UNL     1      -0.367  13.342  18.896  0.00  0.00    +0.000 A 
ATOM      2  N   UNL     1      -0.155  14.701  18.726  0.00  0.00    +0.000 NA
ATOM      3  C   UNL     1       1.144  14.782  18.664  0.00  0.00    +0.000 A 
ATOM      4  S   UNL     1       2.251  16.062  18.463  0.00  0.00    +0.000 S 
ATOM      5  C   UNL     1       3.536  14.824  18.560  0.00  0.00    +0.000 A 
ATOM      6  N   UNL     1       3.157  13.581  18.706  0.00  0.00    +0.000 NA
ATOM      7  N   UNL     1       1.795  13.597  18.763  0.00  0.00    +0.000 N 
ATOM      8  C   UNL     1       0.829  12.619  18.866  0.00  0.00    +0.000 A 
ENDROOT
BRANCH   8   9
ATOM      9  C   UNL     1       1.126  11.225  18.888  0.00  0.00    +0.000 A 
ATOM     10  N   UNL     1       0.893  10.428  19.909  0.00  0.00    +0.000 NA
ATOM     11  C   UNL     1       1.412   9.210  19.562  0.00  0.00    +0.000 A 
ATOM     12  C   UNL     1       1.481   8.031  20.313  0.00  0.00    +0.000 A 
ATOM     13  C   UNL     1       2.122   6.928  19.744  0.00  0.00    +0.000 A 
ATOM     14 CL   UNL     1       2.273   5.479  20.663  0.00  0.00    +0.000 Cl
ATOM     15  C   UNL     1       2.656   6.982  18.453  0.00  0.00    +0.000 A 
ATOM     16  C   UNL     1       2.566   8.146  17.677  0.00  0.00    +0.000 A 
ATOM     17  C   UNL     1       1.945   9.243  18.277  0.00  0.00    +0.000 A 
ATOM     18  N   UNL     1       1.717  10.530  17.859  0.00  0.00    +0.000 N 
ATOM     19  H   UNL     1       1.970  10.914  16.959  0.00  0.00    +0.000 HD
ENDBRANCH   8   9
BRANCH   5  20
ATOM     20  C   UNL     1       4.947  15.272  18.534  0.00  0.00    +0.000 A 
ATOM     21  C   UNL     1       5.286  16.482  19.150  0.00  0.00    +0.000 A 
ATOM     22  C   UNL     1       6.586  16.988  19.038  0.00  0.00    +0.000 A 
ATOM     23  C   UNL     1       7.563  16.284  18.323  0.00  0.00    +0.000 A 
ATOM     24  C   UNL     1       8.946  16.838  18.138  0.00  0.00    +0.000 C 
ATOM     25  C   UNL     1       7.235  15.048  17.758  0.00  0.00    +0.000 A 
ATOM     26  C   UNL     1       5.937  14.543  17.864  0.00  0.00    +0.000 A 
ENDBRANCH   5  20
BRANCH   1  30
ATOM     27  C   UNL     1      -4.363  11.921  19.344  0.00  0.00    +0.000 A 
ATOM     28  C   UNL     1      -3.772  12.703  20.336  0.00  0.00    +0.000 A 
ATOM     29  C   UNL     1      -2.461  13.160  20.187  0.00  0.00    +0.000 A 
ATOM     30  C   UNL     1      -1.717  12.821  19.050  0.00  0.00    +0.000 A 
ATOM     31  C   UNL     1      -2.289  11.963  18.103  0.00  0.00    +0.000 A 
ATOM     32  C   UNL     1      -3.611  11.536  18.235  0.00  0.00    +0.000 A 
BRANCH  27  34
ATOM     33  C   UNL     1      -6.235  10.696  18.596  0.00  0.00    +0.000 C 
ATOM     34  O   UNL     1      -5.659  11.553  19.578  0.00  0.00    +0.000 OA
ENDBRANCH  27  34
ENDBRANCH   1  30
TORSDOF 4
ENDMDL
MODEL 3
REMARK VINA RESULT:      -7.5      4.540      7.781
REMARK  Name = 
REMARK  6 active torsions:
REMARK  status: ('A' for Active; 'I' for Inactive)
REMARK    1  A    between atoms: C_1  and  O_2
REMARK    2  A    between atoms: O_2  and  C_3
REMARK    3  A    between atoms: C_6  and  C_7
REMARK    4  A    between atoms: C_11  and  C_12
REMARK    5  A    between atoms: C_15  and  C_16
REMARK    6  A    between atoms: C_21  and  C_22
REMARK                            x       y       z     vdW  Elec       q    Type
REMARK                         _______ _______ _______ _____ _____    ______ ____
ROOT
ATOM      1  C   UNL     1      -0.579  12.849  18.671  0.00  0.00    +0.000 A 
ATOM      2  N   UNL     1      -0.439  14.228  18.626  0.00  0.00    +0.000 NA
ATOM      3  C   UNL     1       0.830  14.393  18.865  0.00  0.00    +0.000 A 
ATOM      4  S   UNL     1       1.853  15.751  18.989  0.00  0.00    +0.000 S 
ATOM      5  C   UNL     1       3.176  14.592  19.307  0.00  0.00    +0.000 A 
ATOM      6  N   UNL     1       2.870  13.321  19.298  0.00  0.00    +0.000 NA
ATOM      7  N   UNL     1       1.532  13.247  19.044  0.00  0.00    +0.000 N 
ATOM      8  C   UNL     1       0.646  12.206  18.874  0.00  0.00    +0.000 A 
ENDROOT
BRANCH   8   9
ATOM      9  C   UNL     1       1.035  10.835  18.888  0.00  0.00    +0.000 A 
ATOM     10  N   UNL     1       0.870  10.023  19.909  0.00  0.00    +0.000 NA
ATOM     11  C   UNL     1       1.465   8.843  19.551  0.00  0.00    +0.000 A 
ATOM     12  C   UNL     1       1.623   7.669  20.297  0.00  0.00    +0.000 A 
ATOM     13  C   UNL     1       2.330   6.613  19.717  0.00  0.00    +0.000 A 
ATOM     14 CL   UNL     1       2.589   5.175  20.629  0.00  0.00    +0.000 Cl
ATOM     15  C   UNL     1       2.842   6.706  18.419  0.00  0.00    +0.000 A 
ATOM     16  C   UNL     1       2.663   7.863  17.648  0.00  0.00    +0.000 A 
ATOM     17  C   UNL     1       1.977   8.914  18.260  0.00  0.00    +0.000 A 
ATOM     18  N   UNL     1       1.658  10.183  17.849  0.00  0.00    +0.000 N 
ATOM     19  H   UNL     1       1.872  10.586  16.947  0.00  0.00    +0.000 HD
ENDBRANCH   8   9
BRANCH   5  20
ATOM     20  C   UNL     1       4.518  15.127  19.626  0.00  0.00    +0.000 A 
ATOM     21  C   UNL     1       5.247  15.775  18.621  0.00  0.00    +0.000 A 
ATOM     22  C   UNL     1       6.563  16.184  18.861  0.00  0.00    +0.000 A 
ATOM     23  C   UNL     1       7.161  15.963  20.108  0.00  0.00    +0.000 A 
ATOM     24  C   UNL     1       8.592  16.338  20.365  0.00  0.00    +0.000 C 
ATOM     25  C   UNL     1       6.411  15.368  21.126  0.00  0.00    +0.000 A 
ATOM     26  C   UNL     1       5.098  14.954  20.889  0.00  0.00    +0.000 A 
ENDBRANCH   5  20
BRANCH   1  30
ATOM     27  C   UNL     1      -4.455  11.154  18.127  0.00  0.00    +0.000 A 
ATOM     28  C   UNL     1      -4.153  11.879  19.279  0.00  0.00    +0.000 A 
ATOM     29  C   UNL     1      -2.879  12.427  19.455  0.00  0.00    +0.000 A 
ATOM     30  C   UNL     1      -1.886  12.235  18.487  0.00  0.00    +0.000 A 
ATOM     31  C   UNL     1      -2.173  11.431  17.377  0.00  0.00    +0.000 A 
ATOM     32  C   UNL     1      -3.456  10.914  17.185  0.00  0.00    +0.000 A 
BRANCH  27  34
ATOM     33  C   UNL     1      -6.503  10.800  19.242  0.00  0.00    +0.000 C 
ATOM     34  O   UNL     1      -5.738  10.688  18.045  0.00  0.00    +0.000 OA
ENDBRANCH  27  34
ENDBRANCH   1  30
TORSDOF 4
ENDMDL
MODEL 4
REMARK VINA RESULT:      -7.5      0.446      1.265
REMARK  Name = 
REMARK  6 active torsions:
REMARK  status: ('A' for Active; 'I' for Inactive)
REMARK    1  A    between atoms: C_1  and  O_2
REMARK    2  A    between atoms: O_2  and  C_3
REMARK    3  A    between atoms: C_6  and  C_7
REMARK    4  A    between atoms: C_11  and  C_12
REMARK    5  A    between atoms: C_15  and  C_16
REMARK    6  A    between atoms: C_21  and  C_22
REMARK                            x       y       z     vdW  Elec       q    Type
REMARK                         _______ _______ _______ _____ _____    ______ ____
ROOT
ATOM      1  C   UNL     1      -1.033  12.614  22.815  0.00  0.00    +0.000 A 
ATOM      2  N   UNL     1      -1.121  11.316  23.294  0.00  0.00    +0.000 NA
ATOM      3  C   UNL     1      -0.381  10.651  22.454  0.00  0.00    +0.000 A 
ATOM      4  S   UNL     1       0.065   9.014  22.296  0.00  0.00    +0.000 S 
ATOM      5  C   UNL     1       1.002   9.519  20.860  0.00  0.00    +0.000 A 
ATOM      6  N   UNL     1       0.988  10.791  20.556  0.00  0.00    +0.000 NA
ATOM      7  N   UNL     1       0.193  11.400  21.481  0.00  0.00    +0.000 N 
ATOM      8  C   UNL     1      -0.173  12.708  21.717  0.00  0.00    +0.000 A 
ENDROOT
BRANCH   8   9
ATOM      9  C   UNL     1       0.320  13.809  20.957  0.00  0.00    +0.000 A 
ATOM     10  N   UNL     1      -0.405  14.525  20.125  0.00  0.00    +0.000 NA
ATOM     11  C   UNL     1       0.463  15.403  19.532  0.00  0.00    +0.000 A 
ATOM     12  C   UNL     1       0.217  16.349  18.529  0.00  0.00    +0.000 A 
ATOM     13  C   UNL     1       1.299  17.090  18.048  0.00  0.00    +0.000 A 
ATOM     14 CL   UNL     1       1.040  18.222  16.775  0.00  0.00    +0.000 Cl
ATOM     15  C   UNL     1       2.586  16.921  18.567  0.00  0.00    +0.000 A 
ATOM     16  C   UNL     1       2.840  16.002  19.594  0.00  0.00    +0.000 A 
ATOM     17  C   UNL     1       1.749  15.253  20.039  0.00  0.00    +0.000 A 
ATOM     18  N   UNL     1       1.621  14.254  20.971  0.00  0.00    +0.000 N 
ATOM     19  H   UNL     1       2.363  13.883  21.547  0.00  0.00    +0.000 HD
ENDBRANCH   8   9
BRANCH   5  20
ATOM     20  C   UNL     1       1.683   8.475  20.062  0.00  0.00    +0.000 A 
ATOM     21  C   UNL     1       2.122   8.787  18.770  0.00  0.00    +0.000 A 
ATOM     22  C   UNL     1       2.660   7.789  17.950  0.00  0.00    +0.000 A 
ATOM     23  C   UNL     1       2.777   6.473  18.415  0.00  0.00    +0.000 A 
ATOM     24  C   UNL     1       3.293   5.375  17.531  0.00  0.00    +0.000 C 
ATOM     25  C   UNL     1       2.390   6.178  19.726  0.00  0.00    +0.000 A 
ATOM     26  C   UNL     1       1.848   7.172  20.545  0.00  0.00    +0.000 A 
ENDBRANCH   5  20
BRANCH   1  30
ATOM     27  C   UNL     1      -3.115  15.844  24.666  0.00  0.00    +0.000 A 
ATOM     28  C   UNL     1      -1.758  15.639  24.914  0.00  0.00    +0.000 A 
ATOM     29  C   UNL     1      -1.083  14.575  24.310  0.00  0.00    +0.000 A 
ATOM     30  C   UNL     1      -1.766  13.691  23.466  0.00  0.00    +0.000 A 
ATOM     31  C   UNL     1      -3.145  13.853  23.294  0.00  0.00    +0.000 A 
ATOM     32  C   UNL     1      -3.812  14.936  23.870  0.00  0.00    +0.000 A 
BRANCH  27  34
ATOM     33  C   UNL     1      -4.944  17.328  24.788  0.00  0.00    +0.000 C 
ATOM     34  O   UNL     1      -3.669  16.930  25.285  0.00  0.00    +0.000 OA
ENDBRANCH  27  34
ENDBRANCH   1  30
TORSDOF 4
ENDMDL
MODEL 5
REMARK VINA RESULT:      -7.4      4.380      7.526
REMARK  Name = 
REMARK  6 active torsions:
REMARK  status: ('A' for Active; 'I' for Inactive)
REMARK    1  A    between atoms: C_1  and  O_2
REMARK    2  A    between atoms: O_2  and  C_3
REMARK    3  A    between atoms: C_6  and  C_7
REMARK    4  A    between atoms: C_11  and  C_12
REMARK    5  A    between atoms: C_15  and  C_16
REMARK    6  A    between atoms: C_21  and  C_22
REMARK                            x       y       z     vdW  Elec       q    Type
REMARK                         _______ _______ _______ _____ _____    ______ ____
ROOT
ATOM      1  C   UNL     1      -0.263  13.504  18.926  0.00  0.00    +0.000 A 
ATOM      2  N   UNL     1      -0.034  14.858  18.742  0.00  0.00    +0.000 NA
ATOM      3  C   UNL     1       1.261  14.916  18.626  0.00  0.00    +0.000 A 
ATOM      4  S   UNL     1       2.381  16.176  18.374  0.00  0.00    +0.000 S 
ATOM      5  C   UNL     1       3.648  14.916  18.423  0.00  0.00    +0.000 A 
ATOM      6  N   UNL     1       3.254  13.681  18.591  0.00  0.00    +0.000 NA
ATOM      7  N   UNL     1       1.895  13.720  18.703  0.00  0.00    +0.000 N 
ATOM      8  C   UNL     1       0.918  12.760  18.850  0.00  0.00    +0.000 A 
ENDROOT
BRANCH   8   9
ATOM      9  C   UNL     1       1.191  11.361  18.867  0.00  0.00    +0.000 A 
ATOM     10  N   UNL     1       0.919  10.559  19.873  0.00  0.00    +0.000 NA
ATOM     11  C   UNL     1       1.427   9.336  19.528  0.00  0.00    +0.000 A 
ATOM     12  C   UNL     1       1.456   8.148  20.269  0.00  0.00    +0.000 A 
ATOM     13  C   UNL     1       2.094   7.040  19.706  0.00  0.00    +0.000 A 
ATOM     14 CL   UNL     1       2.197   5.580  20.615  0.00  0.00    +0.000 Cl
ATOM     15  C   UNL     1       2.663   7.097  18.430  0.00  0.00    +0.000 A 
ATOM     16  C   UNL     1       2.611   8.270  17.664  0.00  0.00    +0.000 A 
ATOM     17  C   UNL     1       1.993   9.371  18.258  0.00  0.00    +0.000 A 
ATOM     18  N   UNL     1       1.797  10.665  17.846  0.00  0.00    +0.000 N 
ATOM     19  H   UNL     1       2.079  11.053  16.957  0.00  0.00    +0.000 HD
ENDBRANCH   8   9
BRANCH   5  20
ATOM     20  C   UNL     1       5.064  15.339  18.337  0.00  0.00    +0.000 A 
ATOM     21  C   UNL     1       6.005  14.453  17.799  0.00  0.00    +0.000 A 
ATOM     22  C   UNL     1       7.365  14.779  17.816  0.00  0.00    +0.000 A 
ATOM     23  C   UNL     1       7.799  15.996  18.357  0.00  0.00    +0.000 A 
ATOM     24  C   UNL     1       9.258  16.337  18.441  0.00  0.00    +0.000 C 
ATOM     25  C   UNL     1       6.851  16.902  18.841  0.00  0.00    +0.000 A 
ATOM     26  C   UNL     1       5.492  16.577  18.830  0.00  0.00    +0.000 A 
ENDBRANCH   5  20
BRANCH   1  30
ATOM     27  C   UNL     1      -4.183  11.943  19.550  0.00  0.00    +0.000 A 
ATOM     28  C   UNL     1      -3.477  11.644  18.385  0.00  0.00    +0.000 A 
ATOM     29  C   UNL     1      -2.196  12.163  18.184  0.00  0.00    +0.000 A 
ATOM     30  C   UNL     1      -1.615  13.007  19.138  0.00  0.00    +0.000 A 
ATOM     31  C   UNL     1      -2.367  13.372  20.261  0.00  0.00    +0.000 A 
ATOM     32  C   UNL     1      -3.633  12.825  20.479  0.00  0.00    +0.000 A 
BRANCH  27  34
ATOM     33  C   UNL     1      -5.973  10.888  18.434  0.00  0.00    +0.000 C 
ATOM     34  O   UNL     1      -5.415  11.359  19.658  0.00  0.00    +0.000 OA
ENDBRANCH  27  34
ENDBRANCH   1  30
TORSDOF 4
ENDMDL
MODEL 6
REMARK VINA RESULT:      -7.4      1.088      1.764
REMARK  Name = 
REMARK  6 active torsions:
REMARK  status: ('A' for Active; 'I' for Inactive)
REMARK    1  A    between atoms: C_1  and  O_2
REMARK    2  A    between atoms: O_2  and  C_3
REMARK    3  A    between atoms: C_6  and  C_7
REMARK    4  A    between atoms: C_11  and  C_12
REMARK    5  A    between atoms: C_15  and  C_16
REMARK    6  A    between atoms: C_21  and  C_22
REMARK                            x       y       z     vdW  Elec       q    Type
REMARK                         _______ _______ _______ _____ _____    ______ ____
ROOT
ATOM      1  C   UNL     1      -0.896  11.560  22.350  0.00  0.00    +0.000 A 
ATOM      2  N   UNL     1      -0.759  10.267  22.832  0.00  0.00    +0.000 NA
ATOM      3  C   UNL     1      -0.021   9.700  21.921  0.00  0.00    +0.000 A 
ATOM      4  S   UNL     1       0.627   8.137  21.714  0.00  0.00    +0.000 S 
ATOM      5  C   UNL     1       1.341   8.751  20.195  0.00  0.00    +0.000 A 
ATOM      6  N   UNL     1       1.124  10.005  19.898  0.00  0.00    +0.000 NA
ATOM      7  N   UNL     1       0.348  10.511  20.899  0.00  0.00    +0.000 N 
ATOM      8  C   UNL     1      -0.168  11.759  21.173  0.00  0.00    +0.000 A 
ENDROOT
BRANCH   8   9
ATOM      9  C   UNL     1       0.094  12.909  20.372  0.00  0.00    +0.000 A 
ATOM     10  N   UNL     1       1.258  13.191  19.830  0.00  0.00    +0.000 NA
ATOM     11  C   UNL     1       1.109  14.416  19.238  0.00  0.00    +0.000 A 
ATOM     12  C   UNL     1       2.061  15.199  18.572  0.00  0.00    +0.000 A 
ATOM     13  C   UNL     1       1.665  16.454  18.104  0.00  0.00    +0.000 A 
ATOM     14 CL   UNL     1       2.826  17.464  17.329  0.00  0.00    +0.000 Cl
ATOM     15  C   UNL     1       0.354  16.911  18.263  0.00  0.00    +0.000 A 
ATOM     16  C   UNL     1      -0.617  16.124  18.898  0.00  0.00    +0.000 A 
ATOM     17  C   UNL     1      -0.191  14.886  19.382  0.00  0.00    +0.000 A 
ATOM     18  N   UNL     1      -0.826  13.889  20.079  0.00  0.00    +0.000 N 
ATOM     19  H   UNL     1      -1.797  13.887  20.359  0.00  0.00    +0.000 HD
ENDBRANCH   8   9
BRANCH   5  20
ATOM     20  C   UNL     1       2.076   7.801  19.330  0.00  0.00    +0.000 A 
ATOM     21  C   UNL     1       2.309   6.501  19.794  0.00  0.00    +0.000 A 
ATOM     22  C   UNL     1       3.103   5.621  19.051  0.00  0.00    +0.000 A 
ATOM     23  C   UNL     1       3.661   6.024  17.831  0.00  0.00    +0.000 A 
ATOM     24  C   UNL     1       4.567   5.118  17.049  0.00  0.00    +0.000 C 
ATOM     25  C   UNL     1       3.380   7.305  17.344  0.00  0.00    +0.000 A 
ATOM     26  C   UNL     1       2.591   8.187  18.087  0.00  0.00    +0.000 A 
ENDBRANCH   5  20
BRANCH   1  30
ATOM     27  C   UNL     1      -3.238  14.487  24.385  0.00  0.00    +0.000 A 
ATOM     28  C   UNL     1      -1.877  14.696  24.162  0.00  0.00    +0.000 A 
ATOM     29  C   UNL     1      -1.114  13.731  23.500  0.00  0.00    +0.000 A 
ATOM     30  C   UNL     1      -1.701  12.534  23.073  0.00  0.00    +0.000 A 
ATOM     31  C   UNL     1      -3.046  12.296  23.381  0.00  0.00    +0.000 A 
ATOM     32  C   UNL     1      -3.817  13.275  24.011  0.00  0.00    +0.000 A 
BRANCH  27  34
ATOM     33  C   UNL     1      -3.491  16.819  24.630  0.00  0.00    +0.000 C 
ATOM     34  O   UNL     1      -3.895  15.508  25.014  0.00  0.00    +0.000 OA
ENDBRANCH  27  34
ENDBRANCH   1  30
TORSDOF 4
ENDMDL
MODEL 7
REMARK VINA RESULT:      -7.4      0.702      1.214
REMARK  Name = 
REMARK  6 active torsions:
REMARK  status: ('A' for Active; 'I' for Inactive)
REMARK    1  A    between atoms: C_1  and  O_2
REMARK    2  A    between atoms: O_2  and  C_3
REMARK    3  A    between atoms: C_6  and  C_7
REMARK    4  A    between atoms: C_11  and  C_12
REMARK    5  A    between atoms: C_15  and  C_16
REMARK    6  A    between atoms: C_21  and  C_22
REMARK                            x       y       z     vdW  Elec       q    Type
REMARK                         _______ _______ _______ _____ _____    ______ ____
ROOT
ATOM      1  C   UNL     1      -1.126  12.427  22.649  0.00  0.00    +0.000 A 
ATOM      2  N   UNL     1      -1.024  11.176  23.239  0.00  0.00    +0.000 NA
ATOM      3  C   UNL     1      -0.348  10.499  22.356  0.00  0.00    +0.000 A 
ATOM      4  S   UNL     1       0.225   8.896  22.267  0.00  0.00    +0.000 S 
ATOM      5  C   UNL     1       0.903   9.340  20.674  0.00  0.00    +0.000 A 
ATOM      6  N   UNL     1       0.727  10.573  20.274  0.00  0.00    +0.000 NA
ATOM      7  N   UNL     1       0.014  11.199  21.253  0.00  0.00    +0.000 N 
ATOM      8  C   UNL     1      -0.438  12.488  21.433  0.00  0.00    +0.000 A 
ENDROOT
BRANCH   8   9
ATOM      9  C   UNL     1      -0.160  13.550  20.523  0.00  0.00    +0.000 A 
ATOM     10  N   UNL     1       0.991  13.727  19.912  0.00  0.00    +0.000 NA
ATOM     11  C   UNL     1       0.871  14.902  19.220  0.00  0.00    +0.000 A 
ATOM     12  C   UNL     1       1.826  15.576  18.449  0.00  0.00    +0.000 A 
ATOM     13  C   UNL     1       1.468  16.804  17.888  0.00  0.00    +0.000 A 
ATOM     14 CL   UNL     1       2.638  17.686  16.981  0.00  0.00    +0.000 Cl
ATOM     15  C   UNL     1       0.186  17.337  18.060  0.00  0.00    +0.000 A 
ATOM     16  C   UNL     1      -0.790  16.657  18.800  0.00  0.00    +0.000 A 
ATOM     17  C   UNL     1      -0.399  15.446  19.374  0.00  0.00    +0.000 A 
ATOM     18  N   UNL     1      -1.047  14.545  20.182  0.00  0.00    +0.000 N 
ATOM     19  H   UNL     1      -2.003  14.615  20.501  0.00  0.00    +0.000 HD
ENDBRANCH   8   9
BRANCH   5  20
ATOM     20  C   UNL     1       1.562   8.286  19.871  0.00  0.00    +0.000 A 
ATOM     21  C   UNL     1       1.781   7.030  20.450  0.00  0.00    +0.000 A 
ATOM     22  C   UNL     1       2.508   6.055  19.758  0.00  0.00    +0.000 A 
ATOM     23  C   UNL     1       3.011   6.318  18.477  0.00  0.00    +0.000 A 
ATOM     24  C   UNL     1       3.846   5.309  17.744  0.00  0.00    +0.000 C 
ATOM     25  C   UNL     1       2.741   7.553  17.881  0.00  0.00    +0.000 A 
ATOM     26  C   UNL     1       2.020   8.530  18.571  0.00  0.00    +0.000 A 
ENDBRANCH   5  20
BRANCH   1  30
ATOM     27  C   UNL     1      -3.323  15.483  24.656  0.00  0.00    +0.000 A 
ATOM     28  C   UNL     1      -3.983  14.505  23.913  0.00  0.00    +0.000 A 
ATOM     29  C   UNL     1      -3.258  13.510  23.252  0.00  0.00    +0.000 A 
ATOM     30  C   UNL     1      -1.859  13.496  23.311  0.00  0.00    +0.000 A 
ATOM     31  C   UNL     1      -1.203  14.533  23.985  0.00  0.00    +0.000 A 
ATOM     32  C   UNL     1      -1.929  15.506  24.674  0.00  0.00    +0.000 A 
BRANCH  27  34
ATOM     33  C   UNL     1      -3.676  17.740  25.240  0.00  0.00    +0.000 C 
ATOM     34  O   UNL     1      -4.130  16.390  25.284  0.00  0.00    +0.000 OA
ENDBRANCH  27  34
ENDBRANCH   1  30
TORSDOF 4
ENDMDL
MODEL 8
REMARK VINA RESULT:      -7.4      0.844      1.741
REMARK  Name = 
REMARK  6 active torsions:
REMARK  status: ('A' for Active; 'I' for Inactive)
REMARK    1  A    between atoms: C_1  and  O_2
REMARK    2  A    between atoms: O_2  and  C_3
REMARK    3  A    between atoms: C_6  and  C_7
REMARK    4  A    between atoms: C_11  and  C_12
REMARK    5  A    between atoms: C_15  and  C_16
REMARK    6  A    between atoms: C_21  and  C_22
REMARK                            x       y       z     vdW  Elec       q    Type
REMARK                         _______ _______ _______ _____ _____    ______ ____
ROOT
ATOM      1  C   UNL     1      -1.159  12.018  22.659  0.00  0.00    +0.000 A 
ATOM      2  N   UNL     1      -1.048  10.758  23.227  0.00  0.00    +0.000 NA
ATOM      3  C   UNL     1      -0.308  10.121  22.366  0.00  0.00    +0.000 A 
ATOM      4  S   UNL     1       0.318   8.539  22.271  0.00  0.00    +0.000 S 
ATOM      5  C   UNL     1       1.060   9.039  20.725  0.00  0.00    +0.000 A 
ATOM      6  N   UNL     1       0.868  10.275  20.343  0.00  0.00    +0.000 NA
ATOM      7  N   UNL     1       0.087  10.857  21.297  0.00  0.00    +0.000 N 
ATOM      8  C   UNL     1      -0.413  12.128  21.482  0.00  0.00    +0.000 A 
ENDROOT
BRANCH   8   9
ATOM      9  C   UNL     1      -0.123  13.218  20.610  0.00  0.00    +0.000 A 
ATOM     10  N   UNL     1       0.995  13.353  19.930  0.00  0.00    +0.000 NA
ATOM     11  C   UNL     1       0.911  14.570  19.308  0.00  0.00    +0.000 A 
ATOM     12  C   UNL     1       1.858  15.222  18.509  0.00  0.00    +0.000 A 
ATOM     13  C   UNL     1       1.549  16.500  18.037  0.00  0.00    +0.000 A 
ATOM     14 CL   UNL     1       2.714  17.351  17.097  0.00  0.00    +0.000 Cl
ATOM     15  C   UNL     1       0.321  17.105  18.324  0.00  0.00    +0.000 A 
ATOM     16  C   UNL     1      -0.649  16.450  19.095  0.00  0.00    +0.000 A 
ATOM     17  C   UNL     1      -0.306  15.186  19.578  0.00  0.00    +0.000 A 
ATOM     18  N   UNL     1      -0.959  14.286  20.382  0.00  0.00    +0.000 N 
ATOM     19  H   UNL     1      -1.885  14.401  20.770  0.00  0.00    +0.000 HD
ENDBRANCH   8   9
BRANCH   5  20
ATOM     20  C   UNL     1       1.792   8.024  19.934  0.00  0.00    +0.000 A 
ATOM     21  C   UNL     1       2.143   8.317  18.611  0.00  0.00    +0.000 A 
ATOM     22  C   UNL     1       2.726   7.333  17.805  0.00  0.00    +0.000 A 
ATOM     23  C   UNL     1       2.978   6.053  18.314  0.00  0.00    +0.000 A 
ATOM     24  C   UNL     1       3.546   4.966  17.449  0.00  0.00    +0.000 C 
ATOM     25  C   UNL     1       2.678   5.782  19.653  0.00  0.00    +0.000 A 
ATOM     26  C   UNL     1       2.091   6.761  20.459  0.00  0.00    +0.000 A 
ENDBRANCH   5  20
BRANCH   1  30
ATOM     27  C   UNL     1      -3.461  15.115  24.477  0.00  0.00    +0.000 A 
ATOM     28  C   UNL     1      -2.068  15.176  24.472  0.00  0.00    +0.000 A 
ATOM     29  C   UNL     1      -1.319  14.155  23.880  0.00  0.00    +0.000 A 
ATOM     30  C   UNL     1      -1.957  13.050  23.306  0.00  0.00    +0.000 A 
ATOM     31  C   UNL     1      -3.351  12.955  23.396  0.00  0.00    +0.000 A 
ATOM     32  C   UNL     1      -4.101  13.992  23.955  0.00  0.00    +0.000 A 
BRANCH  27  34
ATOM     33  C   UNL     1      -5.199  16.701  24.322  0.00  0.00    +0.000 C 
ATOM     34  O   UNL     1      -4.094  16.179  25.056  0.00  0.00    +0.000 OA
ENDBRANCH  27  34
ENDBRANCH   1  30
TORSDOF 4
ENDMDL
MODEL 9
REMARK VINA RESULT:      -7.3      3.318      3.983
REMARK  Name = 
REMARK  6 active torsions:
REMARK  status: ('A' for Active; 'I' for Inactive)
REMARK    1  A    between atoms: C_1  and  O_2
REMARK    2  A    between atoms: O_2  and  C_3
REMARK    3  A    between atoms: C_6  and  C_7
REMARK    4  A    between atoms: C_11  and  C_12
REMARK    5  A    between atoms: C_15  and  C_16
REMARK    6  A    between atoms: C_21  and  C_22
REMARK                            x       y       z     vdW  Elec       q    Type
REMARK                         _______ _______ _______ _____ _____    ______ ____
ROOT
ATOM      1  C   UNL     1      -1.249  11.730  22.524  0.00  0.00    +0.000 A 
ATOM      2  N   UNL     1      -0.151  11.192  23.177  0.00  0.00    +0.000 NA
ATOM      3  C   UNL     1       0.292  10.319  22.318  0.00  0.00    +0.000 A 
ATOM      4  S   UNL     1       1.596   9.221  22.298  0.00  0.00    +0.000 S 
ATOM      5  C   UNL     1       1.029   8.743  20.672  0.00  0.00    +0.000 A 
ATOM      6  N   UNL     1      -0.018   9.365  20.199  0.00  0.00    +0.000 NA
ATOM      7  N   UNL     1      -0.409  10.251  21.159  0.00  0.00    +0.000 N 
ATOM      8  C   UNL     1      -1.402  11.202  21.238  0.00  0.00    +0.000 A 
ENDROOT
BRANCH   8   9
ATOM      9  C   UNL     1      -2.289  11.500  20.162  0.00  0.00    +0.000 A 
ATOM     10  N   UNL     1      -3.414  12.171  20.286  0.00  0.00    +0.000 NA
ATOM     11  C   UNL     1      -4.003  12.146  19.050  0.00  0.00    +0.000 A 
ATOM     12  C   UNL     1      -5.242  12.662  18.651  0.00  0.00    +0.000 A 
ATOM     13  C   UNL     1      -5.645  12.450  17.330  0.00  0.00    +0.000 A 
ATOM     14 CL   UNL     1      -7.187  13.024  16.821  0.00  0.00    +0.000 Cl
ATOM     15  C   UNL     1      -4.829  11.771  16.420  0.00  0.00    +0.000 A 
ATOM     16  C   UNL     1      -3.573  11.278  16.798  0.00  0.00    +0.000 A 
ATOM     17  C   UNL     1      -3.204  11.478  18.129  0.00  0.00    +0.000 A 
ATOM     18  N   UNL     1      -2.102  11.107  18.857  0.00  0.00    +0.000 N 
ATOM     19  H   UNL     1      -1.301  10.602  18.505  0.00  0.00    +0.000 HD
ENDBRANCH   8   9
BRANCH   5  20
ATOM     20  C   UNL     1       1.727   7.635  19.982  0.00  0.00    +0.000 A 
ATOM     21  C   UNL     1       2.298   7.870  18.726  0.00  0.00    +0.000 A 
ATOM     22  C   UNL     1       2.858   6.813  18.000  0.00  0.00    +0.000 A 
ATOM     23  C   UNL     1       2.866   5.514  18.525  0.00  0.00    +0.000 A 
ATOM     24  C   UNL     1       3.405   4.356  17.737  0.00  0.00    +0.000 C 
ATOM     25  C   UNL     1       2.346   5.295  19.804  0.00  0.00    +0.000 A 
ATOM     26  C   UNL     1       1.782   6.347  20.530  0.00  0.00    +0.000 A 
ENDBRANCH   5  20
BRANCH   1  30
ATOM     27  C   UNL     1      -3.656  14.753  24.328  0.00  0.00    +0.000 A 
ATOM     28  C   UNL     1      -2.387  15.056  23.837  0.00  0.00    +0.000 A 
ATOM     29  C   UNL     1      -1.600  14.060  23.253  0.00  0.00    +0.000 A 
ATOM     30  C   UNL     1      -2.069  12.743  23.173  0.00  0.00    +0.000 A 
ATOM     31  C   UNL     1      -3.306  12.432  23.748  0.00  0.00    +0.000 A 
ATOM     32  C   UNL     1      -4.107  13.434  24.300  0.00  0.00    +0.000 A 
BRANCH  27  34
ATOM     33  C   UNL     1      -3.590  16.995  25.058  0.00  0.00    +0.000 C 
ATOM     34  O   UNL     1      -4.351  15.808  24.852  0.00  0.00    +0.000 OA
ENDBRANCH  27  34
ENDBRANCH   1  30
TORSDOF 4
ENDMDL
