MODEL 1
REMARK VINA RESULT:      -7.2      0.000      0.000
REMARK  Name = 
REMARK  4 active torsions:
REMARK  status: ('A' for Active; 'I' for Inactive)
REMARK    1  A    between atoms: N_1  and  C_2
REMARK    2  A    between atoms: C_2  and  C_3
REMARK    3  A    between atoms: C_16  and  O_17
REMARK    4  A    between atoms: C_18  and  O_19
REMARK                            x       y       z     vdW  Elec       q    Type
REMARK                         _______ _______ _______ _____ _____    ______ ____
ROOT
ATOM      1  C   UNL     1       3.315   3.245  19.003  0.00  0.00    +0.000 C 
ATOM      2  O   UNL     1       4.016   3.128  17.742  0.00  0.00    +0.000 OA
ATOM      3  C   UNL     1       4.763   4.274  17.287  0.00  0.00    +0.000 C 
ATOM      4  C   UNL     1       5.991   4.512  18.191  0.00  0.00    +0.000 C 
ATOM      5  C   UNL     1       6.998   5.512  17.637  0.00  0.00    +0.000 C 
ATOM      6  C   UNL     1       7.432   5.160  16.222  0.00  0.00    +0.000 C 
ATOM      7  C   UNL     1       6.240   4.953  15.295  0.00  0.00    +0.000 C 
ATOM      8  C   UNL     1       5.260   3.925  15.861  0.00  0.00    +0.000 C 
ATOM      9  C   UNL     1       3.822   5.489  17.197  0.00  0.00    +0.000 C 
ATOM     10  C   UNL     1       3.093   5.730  18.485  0.00  0.00    +0.000 A 
ATOM     11  C   UNL     1       2.789   4.640  19.318  0.00  0.00    +0.000 A 
ATOM     12  C   UNL     1       2.000   4.863  20.465  0.00  0.00    +0.000 A 
ATOM     13  C   UNL     1       1.570   6.146  20.809  0.00  0.00    +0.000 A 
ATOM     14  C   UNL     1       1.915   7.216  19.996  0.00  0.00    +0.000 A 
ATOM     15  C   UNL     1       2.657   7.007  18.839  0.00  0.00    +0.000 A 
ENDROOT
BRANCH  14  16
ATOM     16  O   UNL     1       1.546   8.500  20.287  0.00  0.00    +0.000 OA
ATOM     17  H   UNL     1       1.560   9.013  19.457  0.00  0.00    +0.000 HD
ENDBRANCH  14  16
BRANCH  15  18
ATOM     18  O   UNL     1       2.970   8.082  18.050  0.00  0.00    +0.000 OA
ATOM     19  H   UNL     1       3.217   7.689  17.190  0.00  0.00    +0.000 HD
ENDBRANCH  15  18
BRANCH   1  20
ATOM     20  C   UNL     1       4.178   2.670  20.171  0.00  0.00    +0.000 C 
BRANCH  20  21
ATOM     21  N   UNL     1       5.007   1.519  19.791  0.00  0.00    +0.000 NA
ATOM     22  H   UNL     1       4.478   0.919  19.161  0.00  0.00    +0.000 HD
ATOM     23  H   UNL     1       5.185   0.970  20.634  0.00  0.00    +0.000 HD
ENDBRANCH  20  21
ENDBRANCH   1  20
TORSDOF 4
ENDMDL
MODEL 2
REMARK VINA RESULT:      -7.1      2.317      3.963
REMARK  Name = 
REMARK  4 active torsions:
REMARK  status: ('A' for Active; 'I' for Inactive)
REMARK    1  A    between atoms: N_1  and  C_2
REMARK    2  A    between atoms: C_2  and  C_3
REMARK    3  A    between atoms: C_16  and  O_17
REMARK    4  A    between atoms: C_18  and  O_19
REMARK                            x       y       z     vdW  Elec       q    Type
REMARK                         _______ _______ _______ _____ _____    ______ ____
ROOT
ATOM      1  C   UNL     1       3.407   6.007  19.660  0.00  0.00    +0.000 C 
ATOM      2  O   UNL     1       4.811   6.015  19.313  0.00  0.00    +0.000 OA
ATOM      3  C   UNL     1       5.240   5.134  18.255  0.00  0.00    +0.000 C 
ATOM      4  C   UNL     1       4.683   5.608  16.897  0.00  0.00    +0.000 C 
ATOM      5  C   UNL     1       5.304   4.922  15.686  0.00  0.00    +0.000 C 
ATOM      6  C   UNL     1       6.823   5.002  15.702  0.00  0.00    +0.000 C 
ATOM      7  C   UNL     1       7.407   4.507  17.020  0.00  0.00    +0.000 C 
ATOM      8  C   UNL     1       6.787   5.231  18.216  0.00  0.00    +0.000 C 
ATOM      9  C   UNL     1       4.847   3.689  18.610  0.00  0.00    +0.000 C 
ATOM     10  C   UNL     1       3.387   3.567  18.927  0.00  0.00    +0.000 A 
ATOM     11  C   UNL     1       2.712   4.661  19.497  0.00  0.00    +0.000 A 
ATOM     12  C   UNL     1       1.372   4.495  19.901  0.00  0.00    +0.000 A 
ATOM     13  C   UNL     1       0.697   3.291  19.692  0.00  0.00    +0.000 A 
ATOM     14  C   UNL     1       1.367   2.235  19.091  0.00  0.00    +0.000 A 
ATOM     15  C   UNL     1       2.702   2.369  18.725  0.00  0.00    +0.000 A 
ENDROOT
BRANCH  14  16
ATOM     16  O   UNL     1       0.759   1.037  18.837  0.00  0.00    +0.000 OA
ATOM     17  H   UNL     1       0.570   0.992  17.881  0.00  0.00    +0.000 HD
ENDBRANCH  14  16
BRANCH  15  18
ATOM     18  O   UNL     1       3.339   1.304  18.145  0.00  0.00    +0.000 OA
ATOM     19  H   UNL     1       3.310   1.495  17.187  0.00  0.00    +0.000 HD
ENDBRANCH  15  18
BRANCH   1  20
ATOM     20  C   UNL     1       2.646   7.150  18.915  0.00  0.00    +0.000 C 
BRANCH  20  21
ATOM     21  N   UNL     1       1.897   8.048  19.803  0.00  0.00    +0.000 NA
ATOM     22  H   UNL     1       1.742   8.936  19.327  0.00  0.00    +0.000 HD
ATOM     23  H   UNL     1       2.487   8.251  20.612  0.00  0.00    +0.000 HD
ENDBRANCH  20  21
ENDBRANCH   1  20
TORSDOF 4
ENDMDL
MODEL 3
REMARK VINA RESULT:      -7.0      2.716      5.409
REMARK  Name = 
REMARK  4 active torsions:
REMARK  status: ('A' for Active; 'I' for Inactive)
REMARK    1  A    between atoms: N_1  and  C_2
REMARK    2  A    between atoms: C_2  and  C_3
REMARK    3  A    between atoms: C_16  and  O_17
REMARK    4  A    between atoms: C_18  and  O_19
REMARK                            x       y       z     vdW  Elec       q    Type
REMARK                         _______ _______ _______ _____ _____    ______ ____
ROOT
ATOM      1  C   UNL     1       2.560   6.720  17.537  0.00  0.00    +0.000 C 
ATOM      2  O   UNL     1       1.666   5.628  17.856  0.00  0.00    +0.000 OA
ATOM      3  C   UNL     1       2.116   4.660  18.824  0.00  0.00    +0.000 C 
ATOM      4  C   UNL     1       2.187   5.292  20.229  0.00  0.00    +0.000 C 
ATOM      5  C   UNL     1       2.373   4.292  21.363  0.00  0.00    +0.000 C 
ATOM      6  C   UNL     1       1.331   3.185  21.323  0.00  0.00    +0.000 C 
ATOM      7  C   UNL     1       1.260   2.515  19.956  0.00  0.00    +0.000 C 
ATOM      8  C   UNL     1       1.045   3.539  18.840  0.00  0.00    +0.000 C 
ATOM      9  C   UNL     1       3.452   4.058  18.353  0.00  0.00    +0.000 C 
ATOM     10  C   UNL     1       4.471   5.116  18.056  0.00  0.00    +0.000 A 
ATOM     11  C   UNL     1       4.043   6.374  17.597  0.00  0.00    +0.000 A 
ATOM     12  C   UNL     1       5.014   7.319  17.208  0.00  0.00    +0.000 A 
ATOM     13  C   UNL     1       6.377   7.046  17.324  0.00  0.00    +0.000 A 
ATOM     14  C   UNL     1       6.781   5.814  17.818  0.00  0.00    +0.000 A 
ATOM     15  C   UNL     1       5.836   4.855  18.167  0.00  0.00    +0.000 A 
ENDROOT
BRANCH  14  16
ATOM     16  O   UNL     1       8.099   5.490  17.979  0.00  0.00    +0.000 OA
ATOM     17  H   UNL     1       8.192   5.017  18.828  0.00  0.00    +0.000 HD
ENDBRANCH  14  16
BRANCH  15  18
ATOM     18  O   UNL     1       6.267   3.643  18.639  0.00  0.00    +0.000 OA
ATOM     19  H   UNL     1       6.011   3.645  19.582  0.00  0.00    +0.000 HD
ENDBRANCH  15  18
BRANCH   1  20
ATOM     20  C   UNL     1       2.222   7.981  18.395  0.00  0.00    +0.000 C 
BRANCH  20  21
ATOM     21  N   UNL     1       1.885   9.170  17.602  0.00  0.00    +0.000 NA
ATOM     22  H   UNL     1       2.326   9.988  18.021  0.00  0.00    +0.000 HD
ATOM     23  H   UNL     1       0.876   9.317  17.672  0.00  0.00    +0.000 HD
ENDBRANCH  20  21
ENDBRANCH   1  20
TORSDOF 4
ENDMDL
MODEL 4
REMARK VINA RESULT:      -6.6      2.414      3.861
REMARK  Name = 
REMARK  4 active torsions:
REMARK  status: ('A' for Active; 'I' for Inactive)
REMARK    1  A    between atoms: N_1  and  C_2
REMARK    2  A    between atoms: C_2  and  C_3
REMARK    3  A    between atoms: C_16  and  O_17
REMARK    4  A    between atoms: C_18  and  O_19
REMARK                            x       y       z     vdW  Elec       q    Type
REMARK                         _______ _______ _______ _____ _____    ______ ____
ROOT
ATOM      1  C   UNL     1       3.451   6.941  18.772  0.00  0.00    +0.000 C 
ATOM      2  O   UNL     1       4.799   6.912  18.247  0.00  0.00    +0.000 OA
ATOM      3  C   UNL     1       5.309   5.643  17.791  0.00  0.00    +0.000 C 
ATOM      4  C   UNL     1       4.573   5.192  16.512  0.00  0.00    +0.000 C 
ATOM      5  C   UNL     1       5.222   4.017  15.792  0.00  0.00    +0.000 C 
ATOM      6  C   UNL     1       6.695   4.267  15.506  0.00  0.00    +0.000 C 
ATOM      7  C   UNL     1       7.458   4.680  16.759  0.00  0.00    +0.000 C 
ATOM      8  C   UNL     1       6.801   5.879  17.446  0.00  0.00    +0.000 C 
ATOM      9  C   UNL     1       5.224   4.623  18.940  0.00  0.00    +0.000 C 
ATOM     10  C   UNL     1       3.841   4.535  19.513  0.00  0.00    +0.000 A 
ATOM     11  C   UNL     1       3.015   5.671  19.493  0.00  0.00    +0.000 A 
ATOM     12  C   UNL     1       1.764   5.611  20.140  0.00  0.00    +0.000 A 
ATOM     13  C   UNL     1       1.318   4.433  20.743  0.00  0.00    +0.000 A 
ATOM     14  C   UNL     1       2.130   3.309  20.716  0.00  0.00    +0.000 A 
ATOM     15  C   UNL     1       3.384   3.364  20.118  0.00  0.00    +0.000 A 
ENDROOT
BRANCH  14  16
ATOM     16  O   UNL     1       1.744   2.119  21.267  0.00  0.00    +0.000 OA
ATOM     17  H   UNL     1       2.546   1.588  21.429  0.00  0.00    +0.000 HD
ENDBRANCH  14  16
BRANCH  15  18
ATOM     18  O   UNL     1       4.168   2.241  20.120  0.00  0.00    +0.000 OA
ATOM     19  H   UNL     1       3.726   1.635  19.493  0.00  0.00    +0.000 HD
ENDBRANCH  15  18
BRANCH   1  20
ATOM     20  C   UNL     1       2.434   7.360  17.663  0.00  0.00    +0.000 C 
BRANCH  20  21
ATOM     21  N   UNL     1       2.290   8.812  17.501  0.00  0.00    +0.000 NA
ATOM     22  H   UNL     1       2.458   9.058  16.526  0.00  0.00    +0.000 HD
ATOM     23  H   UNL     1       3.028   9.262  18.045  0.00  0.00    +0.000 HD
ENDBRANCH  20  21
ENDBRANCH   1  20
TORSDOF 4
ENDMDL
MODEL 5
REMARK VINA RESULT:      -6.4      2.435      5.241
REMARK  Name = 
REMARK  4 active torsions:
REMARK  status: ('A' for Active; 'I' for Inactive)
REMARK    1  A    between atoms: N_1  and  C_2
REMARK    2  A    between atoms: C_2  and  C_3
REMARK    3  A    between atoms: C_16  and  O_17
REMARK    4  A    between atoms: C_18  and  O_19
REMARK                            x       y       z     vdW  Elec       q    Type
REMARK                         _______ _______ _______ _____ _____    ______ ____
ROOT
ATOM      1  C   UNL     1       2.796   6.681  18.062  0.00  0.00    +0.000 C 
ATOM      2  O   UNL     1       1.774   5.667  18.210  0.00  0.00    +0.000 OA
ATOM      3  C   UNL     1       2.210   4.314  18.448  0.00  0.00    +0.000 C 
ATOM      4  C   UNL     1       2.840   4.187  19.851  0.00  0.00    +0.000 C 
ATOM      5  C   UNL     1       3.070   2.753  20.312  0.00  0.00    +0.000 C 
ATOM      6  C   UNL     1       1.807   1.911  20.211  0.00  0.00    +0.000 C 
ATOM      7  C   UNL     1       1.180   1.988  18.824  0.00  0.00    +0.000 C 
ATOM      8  C   UNL     1       0.934   3.436  18.398  0.00  0.00    +0.000 C 
ATOM      9  C   UNL     1       3.152   3.878  17.311  0.00  0.00    +0.000 C 
ATOM     10  C   UNL     1       4.285   4.841  17.121  0.00  0.00    +0.000 A 
ATOM     11  C   UNL     1       4.090   6.201  17.417  0.00  0.00    +0.000 A 
ATOM     12  C   UNL     1       5.123   7.113  17.121  0.00  0.00    +0.000 A 
ATOM     13  C   UNL     1       6.342   6.681  16.598  0.00  0.00    +0.000 A 
ATOM     14  C   UNL     1       6.532   5.329  16.351  0.00  0.00    +0.000 A 
ATOM     15  C   UNL     1       5.508   4.421  16.598  0.00  0.00    +0.000 A 
ENDROOT
BRANCH  14  16
ATOM     16  O   UNL     1       7.709   4.837  15.861  0.00  0.00    +0.000 OA
ATOM     17  H   UNL     1       8.335   4.755  16.605  0.00  0.00    +0.000 HD
ENDBRANCH  14  16
BRANCH  15  18
ATOM     18  O   UNL     1       5.722   3.095  16.331  0.00  0.00    +0.000 OA
ATOM     19  H   UNL     1       4.833   2.742  16.127  0.00  0.00    +0.000 HD
ENDBRANCH  15  18
BRANCH   1  20
ATOM     20  C   UNL     1       3.056   7.407  19.420  0.00  0.00    +0.000 C 
BRANCH  20  21
ATOM     21  N   UNL     1       1.876   7.489  20.290  0.00  0.00    +0.000 NA
ATOM     22  H   UNL     1       2.169   7.395  21.261  0.00  0.00    +0.000 HD
ATOM     23  H   UNL     1       1.281   6.684  20.087  0.00  0.00    +0.000 HD
ENDBRANCH  20  21
ENDBRANCH   1  20
TORSDOF 4
ENDMDL
MODEL 6
REMARK VINA RESULT:      -6.2      1.495      1.821
REMARK  Name = 
REMARK  4 active torsions:
REMARK  status: ('A' for Active; 'I' for Inactive)
REMARK    1  A    between atoms: N_1  and  C_2
REMARK    2  A    between atoms: C_2  and  C_3
REMARK    3  A    between atoms: C_16  and  O_17
REMARK    4  A    between atoms: C_18  and  O_19
REMARK                            x       y       z     vdW  Elec       q    Type
REMARK                         _______ _______ _______ _____ _____    ______ ____
ROOT
ATOM      1  C   UNL     1       2.003   4.426  20.195  0.00  0.00    +0.000 C 
ATOM      2  O   UNL     1       2.656   3.797  19.068  0.00  0.00    +0.000 OA
ATOM      3  C   UNL     1       3.631   4.575  18.345  0.00  0.00    +0.000 C 
ATOM      4  C   UNL     1       4.885   4.812  19.211  0.00  0.00    +0.000 C 
ATOM      5  C   UNL     1       6.081   5.371  18.451  0.00  0.00    +0.000 C 
ATOM      6  C   UNL     1       6.422   4.532  17.228  0.00  0.00    +0.000 C 
ATOM      7  C   UNL     1       5.209   4.310  16.332  0.00  0.00    +0.000 C 
ATOM      8  C   UNL     1       4.033   3.722  17.115  0.00  0.00    +0.000 C 
ATOM      9  C   UNL     1       2.972   5.875  17.848  0.00  0.00    +0.000 C 
ATOM     10  C   UNL     1       2.318   6.633  18.964  0.00  0.00    +0.000 A 
ATOM     11  C   UNL     1       1.791   5.928  20.059  0.00  0.00    +0.000 A 
ATOM     12  C   UNL     1       1.073   6.641  21.042  0.00  0.00    +0.000 A 
ATOM     13  C   UNL     1       0.931   8.027  20.970  0.00  0.00    +0.000 A 
ATOM     14  C   UNL     1       1.494   8.711  19.903  0.00  0.00    +0.000 A 
ATOM     15  C   UNL     1       2.169   8.019  18.903  0.00  0.00    +0.000 A 
ENDROOT
BRANCH  14  16
ATOM     16  O   UNL     1       1.412  10.071  19.785  0.00  0.00    +0.000 OA
ATOM     17  H   UNL     1       2.312  10.436  19.870  0.00  0.00    +0.000 HD
ENDBRANCH  14  16
BRANCH  15  18
ATOM     18  O   UNL     1       2.702   8.722  17.856  0.00  0.00    +0.000 OA
ATOM     19  H   UNL     1       2.271   8.343  17.065  0.00  0.00    +0.000 HD
ENDBRANCH  15  18
BRANCH   1  20
ATOM     20  C   UNL     1       2.728   4.059  21.530  0.00  0.00    +0.000 C 
BRANCH  20  21
ATOM     21  N   UNL     1       2.469   2.690  21.994  0.00  0.00    +0.000 NA
ATOM     22  H   UNL     1       1.530   2.641  22.385  0.00  0.00    +0.000 HD
ATOM     23  H   UNL     1       3.114   2.493  22.761  0.00  0.00    +0.000 HD
ENDBRANCH  20  21
ENDBRANCH   1  20
TORSDOF 4
ENDMDL
MODEL 7
REMARK VINA RESULT:      -6.1      2.443      3.608
REMARK  Name = 
REMARK  4 active torsions:
REMARK  status: ('A' for Active; 'I' for Inactive)
REMARK    1  A    between atoms: N_1  and  C_2
REMARK    2  A    between atoms: C_2  and  C_3
REMARK    3  A    between atoms: C_16  and  O_17
REMARK    4  A    between atoms: C_18  and  O_19
REMARK                            x       y       z     vdW  Elec       q    Type
REMARK                         _______ _______ _______ _____ _____    ______ ____
ROOT
ATOM      1  C   UNL     1       5.000   4.792  15.678  0.00  0.00    +0.000 C 
ATOM      2  O   UNL     1       5.813   5.988  15.744  0.00  0.00    +0.000 OA
ATOM      3  C   UNL     1       6.191   6.464  17.051  0.00  0.00    +0.000 C 
ATOM      4  C   UNL     1       7.191   5.492  17.712  0.00  0.00    +0.000 C 
ATOM      5  C   UNL     1       7.869   6.038  18.962  0.00  0.00    +0.000 C 
ATOM      6  C   UNL     1       8.519   7.390  18.713  0.00  0.00    +0.000 C 
ATOM      7  C   UNL     1       7.546   8.385  18.092  0.00  0.00    +0.000 C 
ATOM      8  C   UNL     1       6.900   7.823  16.825  0.00  0.00    +0.000 C 
ATOM      9  C   UNL     1       4.922   6.704  17.889  0.00  0.00    +0.000 C 
ATOM     10  C   UNL     1       4.041   5.492  17.932  0.00  0.00    +0.000 A 
ATOM     11  C   UNL     1       4.028   4.611  16.837  0.00  0.00    +0.000 A 
ATOM     12  C   UNL     1       3.108   3.542  16.838  0.00  0.00    +0.000 A 
ATOM     13  C   UNL     1       2.261   3.318  17.924  0.00  0.00    +0.000 A 
ATOM     14  C   UNL     1       2.317   4.174  19.014  0.00  0.00    +0.000 A 
ATOM     15  C   UNL     1       3.188   5.258  19.011  0.00  0.00    +0.000 A 
ENDROOT
BRANCH  14  16
ATOM     16  O   UNL     1       1.531   3.998  20.119  0.00  0.00    +0.000 OA
ATOM     17  H   UNL     1       0.750   4.576  20.028  0.00  0.00    +0.000 HD
ENDBRANCH  14  16
BRANCH  15  18
ATOM     18  O   UNL     1       3.210   6.092  20.096  0.00  0.00    +0.000 OA
ATOM     19  H   UNL     1       4.116   6.459  20.103  0.00  0.00    +0.000 HD
ENDBRANCH  15  18
BRANCH   1  20
ATOM     20  C   UNL     1       5.893   3.528  15.462  0.00  0.00    +0.000 C 
BRANCH  20  21
ATOM     21  N   UNL     1       6.345   3.345  14.078  0.00  0.00    +0.000 NA
ATOM     22  H   UNL     1       6.971   2.541  14.034  0.00  0.00    +0.000 HD
ATOM     23  H   UNL     1       6.903   4.161  13.820  0.00  0.00    +0.000 HD
ENDBRANCH  20  21
ENDBRANCH   1  20
TORSDOF 4
ENDMDL
MODEL 8
REMARK VINA RESULT:      -6.1      1.844      4.340
REMARK  Name = 
REMARK  4 active torsions:
REMARK  status: ('A' for Active; 'I' for Inactive)
REMARK    1  A    between atoms: N_1  and  C_2
REMARK    2  A    between atoms: C_2  and  C_3
REMARK    3  A    between atoms: C_16  and  O_17
REMARK    4  A    between atoms: C_18  and  O_19
REMARK                            x       y       z     vdW  Elec       q    Type
REMARK                         _______ _______ _______ _____ _____    ______ ____
ROOT
ATOM      1  C   UNL     1       4.904   4.501  18.066  0.00  0.00    +0.000 C 
ATOM      2  O   UNL     1       4.589   3.648  19.192  0.00  0.00    +0.000 OA
ATOM      3  C   UNL     1       3.261   3.738  19.745  0.00  0.00    +0.000 C 
ATOM      4  C   UNL     1       2.223   3.171  18.753  0.00  0.00    +0.000 C 
ATOM      5  C   UNL     1       0.837   2.955  19.346  0.00  0.00    +0.000 C 
ATOM      6  C   UNL     1       0.882   2.117  20.614  0.00  0.00    +0.000 C 
ATOM      7  C   UNL     1       1.874   2.672  21.630  0.00  0.00    +0.000 C 
ATOM      8  C   UNL     1       3.264   2.852  21.017  0.00  0.00    +0.000 C 
ATOM      9  C   UNL     1       2.983   5.194  20.159  0.00  0.00    +0.000 C 
ATOM     10  C   UNL     1       3.222   6.153  19.032  0.00  0.00    +0.000 A 
ATOM     11  C   UNL     1       4.196   5.850  18.065  0.00  0.00    +0.000 A 
ATOM     12  C   UNL     1       4.495   6.813  17.080  0.00  0.00    +0.000 A 
ATOM     13  C   UNL     1       3.805   8.025  17.020  0.00  0.00    +0.000 A 
ATOM     14  C   UNL     1       2.819   8.289  17.958  0.00  0.00    +0.000 A 
ATOM     15  C   UNL     1       2.540   7.368  18.962  0.00  0.00    +0.000 A 
ENDROOT
BRANCH  14  16
ATOM     16  O   UNL     1       2.090   9.446  17.942  0.00  0.00    +0.000 OA
ATOM     17  H   UNL     1       2.228   9.878  17.078  0.00  0.00    +0.000 HD
ENDBRANCH  14  16
BRANCH  15  18
ATOM     18  O   UNL     1       1.569   7.664  19.881  0.00  0.00    +0.000 OA
ATOM     19  H   UNL     1       1.642   8.631  20.009  0.00  0.00    +0.000 HD
ENDBRANCH  15  18
BRANCH   1  20
ATOM     20  C   UNL     1       4.702   3.736  16.719  0.00  0.00    +0.000 C 
BRANCH  20  21
ATOM     21  N   UNL     1       5.948   3.472  15.989  0.00  0.00    +0.000 NA
ATOM     22  H   UNL     1       5.751   3.450  14.989  0.00  0.00    +0.000 HD
ATOM     23  H   UNL     1       6.267   2.536  16.243  0.00  0.00    +0.000 HD
ENDBRANCH  20  21
ENDBRANCH   1  20
TORSDOF 4
ENDMDL
MODEL 9
REMARK VINA RESULT:      -5.9      2.273      5.360
REMARK  Name = 
REMARK  4 active torsions:
REMARK  status: ('A' for Active; 'I' for Inactive)
REMARK    1  A    between atoms: N_1  and  C_2
REMARK    2  A    between atoms: C_2  and  C_3
REMARK    3  A    between atoms: C_16  and  O_17
REMARK    4  A    between atoms: C_18  and  O_19
REMARK                            x       y       z     vdW  Elec       q    Type
REMARK                         _______ _______ _______ _____ _____    ______ ____
ROOT
ATOM      1  C   UNL     1       5.707   5.583  18.741  0.00  0.00    +0.000 C 
ATOM      2  O   UNL     1       4.329   5.367  19.125  0.00  0.00    +0.000 OA
ATOM      3  C   UNL     1       3.606   4.319  18.450  0.00  0.00    +0.000 C 
ATOM      4  C   UNL     1       4.157   2.935  18.853  0.00  0.00    +0.000 C 
ATOM      5  C   UNL     1       3.287   1.760  18.425  0.00  0.00    +0.000 C 
ATOM      6  C   UNL     1       1.846   1.919  18.884  0.00  0.00    +0.000 C 
ATOM      7  C   UNL     1       1.260   3.264  18.470  0.00  0.00    +0.000 C 
ATOM      8  C   UNL     1       2.138   4.427  18.937  0.00  0.00    +0.000 C 
ATOM      9  C   UNL     1       3.641   4.576  16.933  0.00  0.00    +0.000 C 
ATOM     10  C   UNL     1       5.042   4.751  16.427  0.00  0.00    +0.000 A 
ATOM     11  C   UNL     1       6.017   5.300  17.276  0.00  0.00    +0.000 A 
ATOM     12  C   UNL     1       7.298   5.571  16.752  0.00  0.00    +0.000 A 
ATOM     13  C   UNL     1       7.621   5.252  15.432  0.00  0.00    +0.000 A 
ATOM     14  C   UNL     1       6.657   4.672  14.620  0.00  0.00    +0.000 A 
ATOM     15  C   UNL     1       5.377   4.437  15.110  0.00  0.00    +0.000 A 
ENDROOT
BRANCH  14  16
ATOM     16  O   UNL     1       6.915   4.314  13.326  0.00  0.00    +0.000 OA
ATOM     17  H   UNL     1       6.539   3.425  13.179  0.00  0.00    +0.000 HD
ENDBRANCH  14  16
BRANCH  15  18
ATOM     18  O   UNL     1       4.444   3.876  14.279  0.00  0.00    +0.000 OA
ATOM     19  H   UNL     1       3.698   3.649  14.869  0.00  0.00    +0.000 HD
ENDBRANCH  15  18
BRANCH   1  20
ATOM     20  C   UNL     1       6.675   4.817  19.699  0.00  0.00    +0.000 C 
BRANCH  20  21
ATOM     21  N   UNL     1       7.803   5.625  20.180  0.00  0.00    +0.000 NA
ATOM     22  H   UNL     1       8.676   5.197  19.874  0.00  0.00    +0.000 HD
ATOM     23  H   UNL     1       7.803   5.586  21.201  0.00  0.00    +0.000 HD
ENDBRANCH  20  21
ENDBRANCH   1  20
TORSDOF 4
ENDMDL
