MODEL 1
REMARK VINA RESULT:      -8.8      0.000      0.000
REMARK  Name = 
REMARK  8 active torsions:
REMARK  status: ('A' for Active; 'I' for Inactive)
REMARK    1  A    between atoms: C_1  and  O_2
REMARK    2  A    between atoms: O_2  and  C_3
REMARK    3  A    between atoms: C_14  and  C_16
REMARK    4  A    between atoms: C_16  and  C_17
REMARK    5  A    between atoms: C_17  and  N_18
REMARK    6  A    between atoms: C_17  and  C_19
REMARK    7  A    between atoms: C_33  and  O_34
REMARK    8  A    between atoms: O_34  and  C_35
REMARK                            x       y       z     vdW  Elec       q    Type
REMARK                         _______ _______ _______ _____ _____    ______ ____
ROOT
ATOM      1  C   UNL     1      -1.052  12.925  21.122  0.00  0.00    +0.000 A 
ATOM      2  C   UNL     1      -0.952  11.743  21.871  0.00  0.00    +0.000 A 
ATOM      3  C   UNL     1      -0.189  10.643  21.427  0.00  0.00    +0.000 A 
ATOM      4  C   UNL     1       0.015   9.477  22.163  0.00  0.00    +0.000 A 
ATOM      5  N   UNL     1      -0.537   9.311  23.440  0.00  0.00    +0.000 N 
ATOM      6  N   UNL     1       0.723   8.437  21.705  0.00  0.00    +0.000 NA
ATOM      7  C   UNL     1       1.279   8.540  20.493  0.00  0.00    +0.000 A 
ATOM      8  N   UNL     1       1.976   7.477  19.986  0.00  0.00    +0.000 N 
ATOM      9  C   UNL     1       2.105   6.216  20.717  0.00  0.00    +0.000 C 
ATOM     10  C   UNL     1       1.782   5.041  19.773  0.00  0.00    +0.000 C 
ATOM     11  N   UNL     1       2.556   5.117  18.522  0.00  0.00    +0.000 N 
ATOM     12  C   UNL     1       3.214   3.992  18.051  0.00  0.00    +0.000 C 
ATOM     13  O   UNL     1       3.213   2.929  18.674  0.00  0.00    +0.000 OA
ATOM     14  C   UNL     1       2.429   6.407  17.818  0.00  0.00    +0.000 C 
ATOM     15  C   UNL     1       2.742   7.595  18.746  0.00  0.00    +0.000 C 
ATOM     16  N   UNL     1       1.163   9.640  19.735  0.00  0.00    +0.000 NA
ATOM     17  C   UNL     1       0.431  10.676  20.189  0.00  0.00    +0.000 A 
ATOM     18  C   UNL     1       0.275  11.841  19.428  0.00  0.00    +0.000 A 
ATOM     19  F   UNL     1       0.863  11.887  18.215  0.00  0.00    +0.000 F 
ATOM     20  C   UNL     1      -0.447  12.975  19.857  0.00  0.00    +0.000 A 
ATOM     21  H   UNL     1      -0.277  10.067  24.062  0.00  0.00    +0.000 HD
ATOM     22  H   UNL     1      -0.209   8.414  23.792  0.00  0.00    +0.000 HD
ENDROOT
BRANCH   1  24
ATOM     23  C   UNL     1      -2.377  13.787  22.871  0.00  0.00    +0.000 C 
ATOM     24  O   UNL     1      -1.741  14.001  21.608  0.00  0.00    +0.000 OA
ENDBRANCH   1  24
BRANCH  20  25
ATOM     25  O   UNL     1      -0.412  14.003  18.963  0.00  0.00    +0.000 OA
ATOM     26  C   UNL     1       0.386  15.147  19.206  0.00  0.00    +0.000 C 
ENDBRANCH  20  25
BRANCH  12  27
ATOM     27  C   UNL     1       3.929   4.122  16.712  0.00  0.00    +0.000 C 
BRANCH  27  28
ATOM     28  C   UNL     1       5.418   3.714  16.745  0.00  0.00    +0.000 C 
BRANCH  28  29
ATOM     29  C   UNL     1       6.350   4.809  17.259  0.00  0.00    +0.000 A 
ATOM     30  C   UNL     1       6.326   6.076  16.640  0.00  0.00    +0.000 A 
ATOM     31  C   UNL     1       7.077   7.143  17.144  0.00  0.00    +0.000 A 
ATOM     32  C   UNL     1       7.861   6.955  18.275  0.00  0.00    +0.000 A 
ATOM     33  F   UNL     1       8.561   7.984  18.773  0.00  0.00    +0.000 F 
ATOM     34  C   UNL     1       7.902   5.714  18.895  0.00  0.00    +0.000 A 
ATOM     35  F   UNL     1       8.650   5.533  19.992  0.00  0.00    +0.000 F 
ATOM     36  C   UNL     1       7.155   4.647  18.400  0.00  0.00    +0.000 A 
ENDBRANCH  28  29
BRANCH  28  37
ATOM     37  N   UNL     1       5.916   3.293  15.430  0.00  0.00    +0.000 NA
ATOM     38  H   UNL     1       5.972   2.278  15.386  0.00  0.00    +0.000 HD
ATOM     39  H   UNL     1       6.877   3.639  15.332  0.00  0.00    +0.000 HD
ENDBRANCH  28  37
ENDBRANCH  27  28
ENDBRANCH  12  27
TORSDOF 6
ENDMDL
MODEL 2
REMARK VINA RESULT:      -8.8      0.555      1.170
REMARK  Name = 
REMARK  8 active torsions:
REMARK  status: ('A' for Active; 'I' for Inactive)
REMARK    1  A    between atoms: C_1  and  O_2
REMARK    2  A    between atoms: O_2  and  C_3
REMARK    3  A    between atoms: C_14  and  C_16
REMARK    4  A    between atoms: C_16  and  C_17
REMARK    5  A    between atoms: C_17  and  N_18
REMARK    6  A    between atoms: C_17  and  C_19
REMARK    7  A    between atoms: C_33  and  O_34
REMARK    8  A    between atoms: O_34  and  C_35
REMARK                            x       y       z     vdW  Elec       q    Type
REMARK                         _______ _______ _______ _____ _____    ______ ____
ROOT
ATOM      1  C   UNL     1      -1.171  12.792  21.131  0.00  0.00    +0.000 A 
ATOM      2  C   UNL     1      -0.995  11.624  21.890  0.00  0.00    +0.000 A 
ATOM      3  C   UNL     1      -0.206  10.550  21.429  0.00  0.00    +0.000 A 
ATOM      4  C   UNL     1       0.072   9.402  22.170  0.00  0.00    +0.000 A 
ATOM      5  N   UNL     1      -0.422   9.231  23.470  0.00  0.00    +0.000 N 
ATOM      6  N   UNL     1       0.802   8.384  21.697  0.00  0.00    +0.000 NA
ATOM      7  C   UNL     1       1.305   8.493  20.462  0.00  0.00    +0.000 A 
ATOM      8  N   UNL     1       2.024   7.451  19.941  0.00  0.00    +0.000 N 
ATOM      9  C   UNL     1       2.232   6.207  20.681  0.00  0.00    +0.000 C 
ATOM     10  C   UNL     1       1.919   5.007  19.765  0.00  0.00    +0.000 C 
ATOM     11  N   UNL     1       2.639   5.097  18.483  0.00  0.00    +0.000 N 
ATOM     12  C   UNL     1       3.322   3.992  17.999  0.00  0.00    +0.000 C 
ATOM     13  O   UNL     1       3.388   2.938  18.635  0.00  0.00    +0.000 OA
ATOM     14  C   UNL     1       2.434   6.371  17.769  0.00  0.00    +0.000 C 
ATOM     15  C   UNL     1       2.735   7.583  18.670  0.00  0.00    +0.000 C 
ATOM     16  N   UNL     1       1.116   9.577  19.696  0.00  0.00    +0.000 NA
ATOM     17  C   UNL     1       0.362  10.590  20.167  0.00  0.00    +0.000 A 
ATOM     18  C   UNL     1       0.130  11.737  19.399  0.00  0.00    +0.000 A 
ATOM     19  F   UNL     1       0.668  11.790  18.163  0.00  0.00    +0.000 F 
ATOM     20  C   UNL     1      -0.619  12.848  19.843  0.00  0.00    +0.000 A 
ATOM     21  H   UNL     1      -0.168  10.005  24.072  0.00  0.00    +0.000 HD
ATOM     22  H   UNL     1      -0.044   8.353  23.819  0.00  0.00    +0.000 HD
ENDROOT
BRANCH   1  24
ATOM     23  C   UNL     1      -3.289  13.794  21.385  0.00  0.00    +0.000 C 
ATOM     24  O   UNL     1      -1.882  13.846  21.632  0.00  0.00    +0.000 OA
ENDBRANCH   1  24
BRANCH  20  25
ATOM     25  O   UNL     1      -0.660  13.864  18.936  0.00  0.00    +0.000 OA
ATOM     26  C   UNL     1       0.185  14.992  19.074  0.00  0.00    +0.000 C 
ENDBRANCH  20  25
BRANCH  12  27
ATOM     27  C   UNL     1       3.978   4.132  16.631  0.00  0.00    +0.000 C 
BRANCH  27  28
ATOM     28  C   UNL     1       5.505   3.901  16.633  0.00  0.00    +0.000 C 
BRANCH  28  29
ATOM     29  C   UNL     1       6.299   5.011  17.319  0.00  0.00    +0.000 A 
ATOM     30  C   UNL     1       7.178   4.675  18.370  0.00  0.00    +0.000 A 
ATOM     31  C   UNL     1       8.009   5.638  18.954  0.00  0.00    +0.000 A 
ATOM     32  C   UNL     1       7.969   6.947  18.494  0.00  0.00    +0.000 A 
ATOM     33  F   UNL     1       8.782   7.864  19.036  0.00  0.00    +0.000 F 
ATOM     34  C   UNL     1       7.106   7.298  17.466  0.00  0.00    +0.000 A 
ATOM     35  F   UNL     1       7.073   8.559  17.012  0.00  0.00    +0.000 F 
ATOM     36  C   UNL     1       6.277   6.344  16.876  0.00  0.00    +0.000 A 
ENDBRANCH  28  29
BRANCH  28  37
ATOM     37  N   UNL     1       6.052   3.740  15.280  0.00  0.00    +0.000 NA
ATOM     38  H   UNL     1       5.411   3.197  14.706  0.00  0.00    +0.000 HD
ATOM     39  H   UNL     1       6.914   3.188  15.352  0.00  0.00    +0.000 HD
ENDBRANCH  28  37
ENDBRANCH  27  28
ENDBRANCH  12  27
TORSDOF 6
ENDMDL
MODEL 3
REMARK VINA RESULT:      -8.6      2.281      2.641
REMARK  Name = 
REMARK  8 active torsions:
REMARK  status: ('A' for Active; 'I' for Inactive)
REMARK    1  A    between atoms: C_1  and  O_2
REMARK    2  A    between atoms: O_2  and  C_3
REMARK    3  A    between atoms: C_14  and  C_16
REMARK    4  A    between atoms: C_16  and  C_17
REMARK    5  A    between atoms: C_17  and  N_18
REMARK    6  A    between atoms: C_17  and  C_19
REMARK    7  A    between atoms: C_33  and  O_34
REMARK    8  A    between atoms: O_34  and  C_35
REMARK                            x       y       z     vdW  Elec       q    Type
REMARK                         _______ _______ _______ _____ _____    ______ ____
ROOT
ATOM      1  C   UNL     1      -0.575  12.774  20.721  0.00  0.00    +0.000 A 
ATOM      2  C   UNL     1      -0.681  11.635  21.536  0.00  0.00    +0.000 A 
ATOM      3  C   UNL     1      -0.006  10.436  21.227  0.00  0.00    +0.000 A 
ATOM      4  C   UNL     1      -0.006   9.301  22.038  0.00  0.00    +0.000 A 
ATOM      5  N   UNL     1      -0.694   9.272  23.258  0.00  0.00    +0.000 N 
ATOM      6  N   UNL     1       0.622   8.166  21.707  0.00  0.00    +0.000 NA
ATOM      7  C   UNL     1       1.300   8.135  20.554  0.00  0.00    +0.000 A 
ATOM      8  N   UNL     1       1.919   6.975  20.175  0.00  0.00    +0.000 N 
ATOM      9  C   UNL     1       1.836   5.754  20.977  0.00  0.00    +0.000 C 
ATOM     10  C   UNL     1       1.475   4.565  20.065  0.00  0.00    +0.000 C 
ATOM     11  N   UNL     1       2.370   4.482  18.898  0.00  0.00    +0.000 N 
ATOM     12  C   UNL     1       2.940   3.267  18.553  0.00  0.00    +0.000 C 
ATOM     13  O   UNL     1       2.760   2.250  19.225  0.00  0.00    +0.000 OA
ATOM     14  C   UNL     1       2.457   5.733  18.121  0.00  0.00    +0.000 C 
ATOM     15  C   UNL     1       2.810   6.936  19.016  0.00  0.00    +0.000 C 
ATOM     16  N   UNL     1       1.382   9.193  19.734  0.00  0.00    +0.000 NA
ATOM     17  C   UNL     1       0.730  10.327  20.059  0.00  0.00    +0.000 A 
ATOM     18  C   UNL     1       0.779  11.453  19.229  0.00  0.00    +0.000 A 
ATOM     19  F   UNL     1       1.483  11.362  18.081  0.00  0.00    +0.000 F 
ATOM     20  C   UNL     1       0.150  12.682  19.525  0.00  0.00    +0.000 A 
ATOM     21  H   UNL     1      -0.412  10.033  23.865  0.00  0.00    +0.000 HD
ATOM     22  H   UNL     1      -0.503   8.368  23.686  0.00  0.00    +0.000 HD
ENDROOT
BRANCH   1  24
ATOM     23  C   UNL     1      -1.196  14.207  22.486  0.00  0.00    +0.000 C 
ATOM     24  O   UNL     1      -1.182  13.944  21.081  0.00  0.00    +0.000 OA
ENDBRANCH   1  24
BRANCH  20  25
ATOM     25  O   UNL     1       0.387  13.644  18.589  0.00  0.00    +0.000 OA
ATOM     26  C   UNL     1       1.469  14.544  18.733  0.00  0.00    +0.000 C 
ENDBRANCH  20  25
BRANCH  12  27
ATOM     27  C   UNL     1       3.791   3.238  17.289  0.00  0.00    +0.000 C 
BRANCH  27  28
ATOM     28  C   UNL     1       4.985   4.217  17.306  0.00  0.00    +0.000 C 
BRANCH  28  29
ATOM     29  C   UNL     1       5.627   4.434  15.937  0.00  0.00    +0.000 A 
ATOM     30  C   UNL     1       6.836   5.157  15.854  0.00  0.00    +0.000 A 
ATOM     31  C   UNL     1       7.520   5.287  14.641  0.00  0.00    +0.000 A 
ATOM     32  C   UNL     1       7.004   4.693  13.497  0.00  0.00    +0.000 A 
ATOM     33  F   UNL     1       7.672   4.795  12.339  0.00  0.00    +0.000 F 
ATOM     34  C   UNL     1       5.813   3.983  13.557  0.00  0.00    +0.000 A 
ATOM     35  F   UNL     1       5.318   3.400  12.456  0.00  0.00    +0.000 F 
ATOM     36  C   UNL     1       5.127   3.847  14.763  0.00  0.00    +0.000 A 
ENDBRANCH  28  29
BRANCH  28  37
ATOM     37  N   UNL     1       6.046   3.796  18.229  0.00  0.00    +0.000 NA
ATOM     38  H   UNL     1       6.345   4.584  18.800  0.00  0.00    +0.000 HD
ATOM     39  H   UNL     1       6.860   3.520  17.669  0.00  0.00    +0.000 HD
ENDBRANCH  28  37
ENDBRANCH  27  28
ENDBRANCH  12  27
TORSDOF 6
ENDMDL
MODEL 4
REMARK VINA RESULT:      -8.6      2.259      2.713
REMARK  Name = 
REMARK  8 active torsions:
REMARK  status: ('A' for Active; 'I' for Inactive)
REMARK    1  A    between atoms: C_1  and  O_2
REMARK    2  A    between atoms: O_2  and  C_3
REMARK    3  A    between atoms: C_14  and  C_16
REMARK    4  A    between atoms: C_16  and  C_17
REMARK    5  A    between atoms: C_17  and  N_18
REMARK    6  A    between atoms: C_17  and  C_19
REMARK    7  A    between atoms: C_33  and  O_34
REMARK    8  A    between atoms: O_34  and  C_35
REMARK                            x       y       z     vdW  Elec       q    Type
REMARK                         _______ _______ _______ _____ _____    ______ ____
ROOT
ATOM      1  C   UNL     1      -1.328  12.669  21.276  0.00  0.00    +0.000 A 
ATOM      2  C   UNL     1      -1.045  11.537  22.057  0.00  0.00    +0.000 A 
ATOM      3  C   UNL     1      -0.244  10.482  21.575  0.00  0.00    +0.000 A 
ATOM      4  C   UNL     1       0.139   9.375  22.329  0.00  0.00    +0.000 A 
ATOM      5  N   UNL     1      -0.252   9.229  23.667  0.00  0.00    +0.000 N 
ATOM      6  N   UNL     1       0.879   8.373  21.837  0.00  0.00    +0.000 NA
ATOM      7  C   UNL     1       1.286   8.459  20.565  0.00  0.00    +0.000 A 
ATOM      8  N   UNL     1       2.011   7.432  20.027  0.00  0.00    +0.000 N 
ATOM      9  C   UNL     1       2.328   6.224  20.789  0.00  0.00    +0.000 C 
ATOM     10  C   UNL     1       2.005   4.980  19.937  0.00  0.00    +0.000 C 
ATOM     11  N   UNL     1       2.626   5.055  18.604  0.00  0.00    +0.000 N 
ATOM     12  C   UNL     1       3.322   3.964  18.107  0.00  0.00    +0.000 C 
ATOM     13  O   UNL     1       3.481   2.938  18.769  0.00  0.00    +0.000 OA
ATOM     14  C   UNL     1       2.312   6.293  17.867  0.00  0.00    +0.000 C 
ATOM     15  C   UNL     1       2.623   7.548  18.703  0.00  0.00    +0.000 C 
ATOM     16  N   UNL     1       0.993   9.506  19.781  0.00  0.00    +0.000 NA
ATOM     17  C   UNL     1       0.229  10.502  20.273  0.00  0.00    +0.000 A 
ATOM     18  C   UNL     1      -0.109  11.610  19.487  0.00  0.00    +0.000 A 
ATOM     19  F   UNL     1       0.335  11.642  18.214  0.00  0.00    +0.000 F 
ATOM     20  C   UNL     1      -0.874  12.703  19.950  0.00  0.00    +0.000 A 
ATOM     21  H   UNL     1       0.009  10.034  24.224  0.00  0.00    +0.000 HD
ATOM     22  H   UNL     1       0.189   8.380  24.015  0.00  0.00    +0.000 HD
ENDROOT
BRANCH   1  24
ATOM     23  C   UNL     1      -3.466  13.584  21.659  0.00  0.00    +0.000 C 
ATOM     24  O   UNL     1      -2.049  13.709  21.794  0.00  0.00    +0.000 OA
ENDBRANCH   1  24
BRANCH  20  25
ATOM     25  O   UNL     1      -1.026  13.684  19.016  0.00  0.00    +0.000 OA
ATOM     26  C   UNL     1      -0.343  14.917  19.144  0.00  0.00    +0.000 C 
ENDBRANCH  20  25
BRANCH  12  27
ATOM     27  C   UNL     1       3.871   4.084  16.691  0.00  0.00    +0.000 C 
BRANCH  27  28
ATOM     28  C   UNL     1       5.317   4.620  16.613  0.00  0.00    +0.000 C 
BRANCH  28  29
ATOM     29  C   UNL     1       5.965   4.460  15.240  0.00  0.00    +0.000 A 
ATOM     30  C   UNL     1       5.301   3.700  14.253  0.00  0.00    +0.000 A 
ATOM     31  C   UNL     1       5.798   3.616  12.948  0.00  0.00    +0.000 A 
ATOM     32  C   UNL     1       6.964   4.292  12.614  0.00  0.00    +0.000 A 
ATOM     33  F   UNL     1       7.427   4.232  11.357  0.00  0.00    +0.000 F 
ATOM     34  C   UNL     1       7.634   5.039  13.572  0.00  0.00    +0.000 A 
ATOM     35  F   UNL     1       8.755   5.701  13.250  0.00  0.00    +0.000 F 
ATOM     36  C   UNL     1       7.144   5.130  14.874  0.00  0.00    +0.000 A 
ENDBRANCH  28  29
BRANCH  28  37
ATOM     37  N   UNL     1       6.206   3.989  17.596  0.00  0.00    +0.000 NA
ATOM     38  H   UNL     1       6.587   3.124  17.218  0.00  0.00    +0.000 HD
ATOM     39  H   UNL     1       5.639   3.723  18.409  0.00  0.00    +0.000 HD
ENDBRANCH  28  37
ENDBRANCH  27  28
ENDBRANCH  12  27
TORSDOF 6
ENDMDL
MODEL 5
REMARK VINA RESULT:      -8.0      2.175      2.630
REMARK  Name = 
REMARK  8 active torsions:
REMARK  status: ('A' for Active; 'I' for Inactive)
REMARK    1  A    between atoms: C_1  and  O_2
REMARK    2  A    between atoms: O_2  and  C_3
REMARK    3  A    between atoms: C_14  and  C_16
REMARK    4  A    between atoms: C_16  and  C_17
REMARK    5  A    between atoms: C_17  and  N_18
REMARK    6  A    between atoms: C_17  and  C_19
REMARK    7  A    between atoms: C_33  and  O_34
REMARK    8  A    between atoms: O_34  and  C_35
REMARK                            x       y       z     vdW  Elec       q    Type
REMARK                         _______ _______ _______ _____ _____    ______ ____
ROOT
ATOM      1  C   UNL     1      -0.127  12.625  20.427  0.00  0.00    +0.000 A 
ATOM      2  C   UNL     1      -0.341  11.495  21.233  0.00  0.00    +0.000 A 
ATOM      3  C   UNL     1       0.283  10.260  20.962  0.00  0.00    +0.000 A 
ATOM      4  C   UNL     1       0.175   9.129  21.769  0.00  0.00    +0.000 A 
ATOM      5  N   UNL     1      -0.582   9.140  22.948  0.00  0.00    +0.000 N 
ATOM      6  N   UNL     1       0.757   7.960  21.474  0.00  0.00    +0.000 NA
ATOM      7  C   UNL     1       1.497   7.890  20.361  0.00  0.00    +0.000 A 
ATOM      8  N   UNL     1       2.073   6.698  20.017  0.00  0.00    +0.000 N 
ATOM      9  C   UNL     1       1.877   5.485  20.811  0.00  0.00    +0.000 C 
ATOM     10  C   UNL     1       1.505   4.315  19.879  0.00  0.00    +0.000 C 
ATOM     11  N   UNL     1       2.459   4.182  18.764  0.00  0.00    +0.000 N 
ATOM     12  C   UNL     1       2.980   2.936  18.451  0.00  0.00    +0.000 C 
ATOM     13  O   UNL     1       2.706   1.932  19.110  0.00  0.00    +0.000 OA
ATOM     14  C   UNL     1       2.658   5.424  17.996  0.00  0.00    +0.000 C 
ATOM     15  C   UNL     1       3.025   6.607  18.910  0.00  0.00    +0.000 C 
ATOM     16  N   UNL     1       1.684   8.941  19.549  0.00  0.00    +0.000 NA
ATOM     17  C   UNL     1       1.078  10.110  19.838  0.00  0.00    +0.000 A 
ATOM     18  C   UNL     1       1.236  11.229  19.013  0.00  0.00    +0.000 A 
ATOM     19  F   UNL     1       1.999  11.098  17.908  0.00  0.00    +0.000 F 
ATOM     20  C   UNL     1       0.660  12.492  19.274  0.00  0.00    +0.000 A 
ATOM     21  H   UNL     1      -0.294   9.885  23.571  0.00  0.00    +0.000 HD
ATOM     22  H   UNL     1      -0.466   8.228  23.385  0.00  0.00    +0.000 HD
ENDROOT
BRANCH   1  24
ATOM     23  C   UNL     1       0.004  14.560  21.768  0.00  0.00    +0.000 C 
ATOM     24  O   UNL     1      -0.688  13.828  20.753  0.00  0.00    +0.000 OA
ENDBRANCH   1  24
BRANCH  20  25
ATOM     25  O   UNL     1       1.002  13.437  18.355  0.00  0.00    +0.000 OA
ATOM     26  C   UNL     1       2.085  14.317  18.590  0.00  0.00    +0.000 C 
ENDBRANCH  20  25
BRANCH  12  27
ATOM     27  C   UNL     1       3.899   2.859  17.238  0.00  0.00    +0.000 C 
BRANCH  27  28
ATOM     28  C   UNL     1       4.955   3.983  17.169  0.00  0.00    +0.000 C 
BRANCH  28  29
ATOM     29  C   UNL     1       5.659   4.090  15.818  0.00  0.00    +0.000 A 
ATOM     30  C   UNL     1       5.045   3.528  14.679  0.00  0.00    +0.000 A 
ATOM     31  C   UNL     1       5.594   3.697  13.403  0.00  0.00    +0.000 A 
ATOM     32  C   UNL     1       6.764   4.430  13.253  0.00  0.00    +0.000 A 
ATOM     33  F   UNL     1       7.277   4.613  12.028  0.00  0.00    +0.000 F 
ATOM     34  C   UNL     1       7.387   4.984  14.362  0.00  0.00    +0.000 A 
ATOM     35  F   UNL     1       8.510   5.701  14.218  0.00  0.00    +0.000 F 
ATOM     36  C   UNL     1       6.844   4.823  15.636  0.00  0.00    +0.000 A 
ENDBRANCH  28  29
BRANCH  28  37
ATOM     37  N   UNL     1       5.994   3.844  18.197  0.00  0.00    +0.000 NA
ATOM     38  H   UNL     1       6.680   3.150  17.910  0.00  0.00    +0.000 HD
ATOM     39  H   UNL     1       5.550   3.477  19.046  0.00  0.00    +0.000 HD
ENDBRANCH  28  37
ENDBRANCH  27  28
ENDBRANCH  12  27
TORSDOF 6
ENDMDL
MODEL 6
REMARK VINA RESULT:      -7.7      2.971      9.748
REMARK  Name = 
REMARK  8 active torsions:
REMARK  status: ('A' for Active; 'I' for Inactive)
REMARK    1  A    between atoms: C_1  and  O_2
REMARK    2  A    between atoms: O_2  and  C_3
REMARK    3  A    between atoms: C_14  and  C_16
REMARK    4  A    between atoms: C_16  and  C_17
REMARK    5  A    between atoms: C_17  and  N_18
REMARK    6  A    between atoms: C_17  and  C_19
REMARK    7  A    between atoms: C_33  and  O_34
REMARK    8  A    between atoms: O_34  and  C_35
REMARK                            x       y       z     vdW  Elec       q    Type
REMARK                         _______ _______ _______ _____ _____    ______ ____
ROOT
ATOM      1  C   UNL     1       5.010   5.101  17.965  0.00  0.00    +0.000 A 
ATOM      2  C   UNL     1       4.269   4.922  19.144  0.00  0.00    +0.000 A 
ATOM      3  C   UNL     1       3.266   5.832  19.538  0.00  0.00    +0.000 A 
ATOM      4  C   UNL     1       2.444   5.665  20.650  0.00  0.00    +0.000 A 
ATOM      5  N   UNL     1       2.555   4.542  21.482  0.00  0.00    +0.000 N 
ATOM      6  N   UNL     1       1.517   6.559  21.017  0.00  0.00    +0.000 NA
ATOM      7  C   UNL     1       1.362   7.650  20.258  0.00  0.00    +0.000 A 
ATOM      8  N   UNL     1       0.447   8.597  20.631  0.00  0.00    +0.000 N 
ATOM      9  C   UNL     1      -0.346   8.469  21.854  0.00  0.00    +0.000 C 
ATOM     10  C   UNL     1      -0.295   9.795  22.638  0.00  0.00    +0.000 C 
ATOM     11  N   UNL     1      -0.645  10.946  21.787  0.00  0.00    +0.000 N 
ATOM     12  C   UNL     1      -1.558  11.885  22.241  0.00  0.00    +0.000 C 
ATOM     13  O   UNL     1      -2.130  11.764  23.325  0.00  0.00    +0.000 OA
ATOM     14  C   UNL     1       0.151  11.037  20.549  0.00  0.00    +0.000 C 
ATOM     15  C   UNL     1       0.119   9.720  19.753  0.00  0.00    +0.000 C 
ATOM     16  N   UNL     1       2.085   7.870  19.151  0.00  0.00    +0.000 NA
ATOM     17  C   UNL     1       3.033   6.979  18.798  0.00  0.00    +0.000 A 
ATOM     18  C   UNL     1       3.819   7.173  17.655  0.00  0.00    +0.000 A 
ATOM     19  F   UNL     1       3.612   8.290  16.928  0.00  0.00    +0.000 F 
ATOM     20  C   UNL     1       4.803   6.264  17.209  0.00  0.00    +0.000 A 
ATOM     21  H   UNL     1       2.473   3.679  20.958  0.00  0.00    +0.000 HD
ATOM     22  H   UNL     1       1.822   4.619  22.185  0.00  0.00    +0.000 HD
ENDROOT
BRANCH   1  24
ATOM     23  C   UNL     1       7.291   4.539  17.780  0.00  0.00    +0.000 C 
ATOM     24  O   UNL     1       5.927   4.167  17.571  0.00  0.00    +0.000 OA
ENDBRANCH   1  24
BRANCH  20  25
ATOM     25  O   UNL     1       5.397   6.648  16.045  0.00  0.00    +0.000 OA
ATOM     26  C   UNL     1       5.461   5.766  14.940  0.00  0.00    +0.000 C 
ENDBRANCH  20  25
BRANCH  12  27
ATOM     27  C   UNL     1      -1.813  13.089  21.343  0.00  0.00    +0.000 C 
BRANCH  27  28
ATOM     28  C   UNL     1      -3.275  13.228  20.866  0.00  0.00    +0.000 C 
BRANCH  28  29
ATOM     29  C   UNL     1      -3.586  12.451  19.589  0.00  0.00    +0.000 A 
ATOM     30  C   UNL     1      -4.931  12.294  19.192  0.00  0.00    +0.000 A 
ATOM     31  C   UNL     1      -5.261  11.689  17.975  0.00  0.00    +0.000 A 
ATOM     32  C   UNL     1      -4.250  11.233  17.140  0.00  0.00    +0.000 A 
ATOM     33  F   UNL     1      -4.565  10.676  15.963  0.00  0.00    +0.000 F 
ATOM     34  C   UNL     1      -2.921  11.372  17.516  0.00  0.00    +0.000 A 
ATOM     35  F   UNL     1      -1.942  10.942  16.707  0.00  0.00    +0.000 F 
ATOM     36  C   UNL     1      -2.584  11.976  18.726  0.00  0.00    +0.000 A 
ENDBRANCH  28  29
BRANCH  28  37
ATOM     37  N   UNL     1      -3.663  14.625  20.638  0.00  0.00    +0.000 NA
ATOM     38  H   UNL     1      -3.136  15.011  19.857  0.00  0.00    +0.000 HD
ATOM     39  H   UNL     1      -3.391  15.167  21.466  0.00  0.00    +0.000 HD
ENDBRANCH  28  37
ENDBRANCH  27  28
ENDBRANCH  12  27
TORSDOF 6
ENDMDL
MODEL 7
REMARK VINA RESULT:      -7.5      3.523     11.012
REMARK  Name = 
REMARK  8 active torsions:
REMARK  status: ('A' for Active; 'I' for Inactive)
REMARK    1  A    between atoms: C_1  and  O_2
REMARK    2  A    between atoms: O_2  and  C_3
REMARK    3  A    between atoms: C_14  and  C_16
REMARK    4  A    between atoms: C_16  and  C_17
REMARK    5  A    between atoms: C_17  and  N_18
REMARK    6  A    between atoms: C_17  and  C_19
REMARK    7  A    between atoms: C_33  and  O_34
REMARK    8  A    between atoms: O_34  and  C_35
REMARK                            x       y       z     vdW  Elec       q    Type
REMARK                         _______ _______ _______ _____ _____    ______ ____
ROOT
ATOM      1  C   UNL     1       3.843   3.522  19.217  0.00  0.00    +0.000 A 
ATOM      2  C   UNL     1       4.009   4.582  18.312  0.00  0.00    +0.000 A 
ATOM      3  C   UNL     1       3.418   5.844  18.530  0.00  0.00    +0.000 A 
ATOM      4  C   UNL     1       3.613   6.957  17.713  0.00  0.00    +0.000 A 
ATOM      5  N   UNL     1       4.441   6.901  16.584  0.00  0.00    +0.000 N 
ATOM      6  N   UNL     1       3.017   8.136  17.928  0.00  0.00    +0.000 NA
ATOM      7  C   UNL     1       2.218   8.251  18.995  0.00  0.00    +0.000 A 
ATOM      8  N   UNL     1       1.568   9.435  19.217  0.00  0.00    +0.000 N 
ATOM      9  C   UNL     1       1.694  10.571  18.304  0.00  0.00    +0.000 C 
ATOM     10  C   UNL     1       0.294  11.131  17.985  0.00  0.00    +0.000 C 
ATOM     11  N   UNL     1      -0.478  11.400  19.211  0.00  0.00    +0.000 N 
ATOM     12  C   UNL     1      -1.138  12.610  19.356  0.00  0.00    +0.000 C 
ATOM     13  O   UNL     1      -1.061  13.499  18.506  0.00  0.00    +0.000 OA
ATOM     14  C   UNL     1      -0.569  10.247  20.126  0.00  0.00    +0.000 C 
ATOM     15  C   UNL     1       0.820   9.668  20.452  0.00  0.00    +0.000 C 
ATOM     16  N   UNL     1       2.005   7.242  19.852  0.00  0.00    +0.000 NA
ATOM     17  C   UNL     1       2.588   6.049  19.619  0.00  0.00    +0.000 A 
ATOM     18  C   UNL     1       2.387   4.965  20.482  0.00  0.00    +0.000 A 
ATOM     19  F   UNL     1       1.574   5.144  21.543  0.00  0.00    +0.000 F 
ATOM     20  C   UNL     1       2.994   3.701  20.318  0.00  0.00    +0.000 A 
ATOM     21  H   UNL     1       5.372   6.576  16.818  0.00  0.00    +0.000 HD
ATOM     22  H   UNL     1       4.466   7.838  16.187  0.00  0.00    +0.000 HD
ENDROOT
BRANCH   1  24
ATOM     23  C   UNL     1       3.708   1.334  18.350  0.00  0.00    +0.000 C 
ATOM     24  O   UNL     1       4.485   2.331  19.017  0.00  0.00    +0.000 OA
ENDBRANCH   1  24
BRANCH  20  25
ATOM     25  O   UNL     1       2.685   2.825  21.315  0.00  0.00    +0.000 OA
ATOM     26  C   UNL     1       1.353   2.386  21.505  0.00  0.00    +0.000 C 
ENDBRANCH  20  25
BRANCH  12  27
ATOM     27  C   UNL     1      -1.980  12.790  20.613  0.00  0.00    +0.000 C 
BRANCH  27  28
ATOM     28  C   UNL     1      -3.438  13.223  20.344  0.00  0.00    +0.000 C 
BRANCH  28  29
ATOM     29  C   UNL     1      -4.372  13.029  21.535  0.00  0.00    +0.000 A 
ATOM     30  C   UNL     1      -3.825  12.975  22.835  0.00  0.00    +0.000 A 
ATOM     31  C   UNL     1      -4.647  12.911  23.965  0.00  0.00    +0.000 A 
ATOM     32  C   UNL     1      -6.027  12.901  23.808  0.00  0.00    +0.000 A 
ATOM     33  F   UNL     1      -6.815  12.865  24.892  0.00  0.00    +0.000 F 
ATOM     34  C   UNL     1      -6.584  12.946  22.539  0.00  0.00    +0.000 A 
ATOM     35  F   UNL     1      -7.916  12.947  22.385  0.00  0.00    +0.000 F 
ATOM     36  C   UNL     1      -5.772  13.013  21.407  0.00  0.00    +0.000 A 
ENDBRANCH  28  29
BRANCH  28  37
ATOM     37  N   UNL     1      -4.032  12.522  19.199  0.00  0.00    +0.000 NA
ATOM     38  H   UNL     1      -3.565  11.629  19.055  0.00  0.00    +0.000 HD
ATOM     39  H   UNL     1      -3.850  13.081  18.358  0.00  0.00    +0.000 HD
ENDBRANCH  28  37
ENDBRANCH  27  28
ENDBRANCH  12  27
TORSDOF 6
ENDMDL
MODEL 8
REMARK VINA RESULT:      -7.5      3.531     10.382
REMARK  Name = 
REMARK  8 active torsions:
REMARK  status: ('A' for Active; 'I' for Inactive)
REMARK    1  A    between atoms: C_1  and  O_2
REMARK    2  A    between atoms: O_2  and  C_3
REMARK    3  A    between atoms: C_14  and  C_16
REMARK    4  A    between atoms: C_16  and  C_17
REMARK    5  A    between atoms: C_17  and  N_18
REMARK    6  A    between atoms: C_17  and  C_19
REMARK    7  A    between atoms: C_33  and  O_34
REMARK    8  A    between atoms: O_34  and  C_35
REMARK                            x       y       z     vdW  Elec       q    Type
REMARK                         _______ _______ _______ _____ _____    ______ ____
ROOT
ATOM      1  C   UNL     1       5.111   5.116  18.020  0.00  0.00    +0.000 A 
ATOM      2  C   UNL     1       4.357   4.963  19.194  0.00  0.00    +0.000 A 
ATOM      3  C   UNL     1       3.331   5.865  19.543  0.00  0.00    +0.000 A 
ATOM      4  C   UNL     1       2.496   5.720  20.650  0.00  0.00    +0.000 A 
ATOM      5  N   UNL     1       2.617   4.629  21.520  0.00  0.00    +0.000 N 
ATOM      6  N   UNL     1       1.548   6.608  20.973  0.00  0.00    +0.000 NA
ATOM      7  C   UNL     1       1.383   7.670  20.175  0.00  0.00    +0.000 A 
ATOM      8  N   UNL     1       0.445   8.611  20.503  0.00  0.00    +0.000 N 
ATOM      9  C   UNL     1      -0.363   8.509  21.718  0.00  0.00    +0.000 C 
ATOM     10  C   UNL     1      -0.349   9.862  22.458  0.00  0.00    +0.000 C 
ATOM     11  N   UNL     1      -0.707  10.976  21.563  0.00  0.00    +0.000 N 
ATOM     12  C   UNL     1      -1.645  11.912  21.972  0.00  0.00    +0.000 C 
ATOM     13  O   UNL     1      -2.230  11.816  23.052  0.00  0.00    +0.000 OA
ATOM     14  C   UNL     1       0.103  11.041  20.334  0.00  0.00    +0.000 C 
ATOM     15  C   UNL     1       0.108   9.697  19.583  0.00  0.00    +0.000 C 
ATOM     16  N   UNL     1       2.117   7.866  19.071  0.00  0.00    +0.000 NA
ATOM     17  C   UNL     1       3.087   6.982  18.762  0.00  0.00    +0.000 A 
ATOM     18  C   UNL     1       3.885   7.153  17.624  0.00  0.00    +0.000 A 
ATOM     19  F   UNL     1       3.668   8.240  16.856  0.00  0.00    +0.000 F 
ATOM     20  C   UNL     1       4.893   6.248  17.223  0.00  0.00    +0.000 A 
ATOM     21  H   UNL     1       2.558   3.747  21.026  0.00  0.00    +0.000 HD
ATOM     22  H   UNL     1       1.873   4.715  22.210  0.00  0.00    +0.000 HD
ENDROOT
BRANCH   1  24
ATOM     23  C   UNL     1       7.405   4.632  17.782  0.00  0.00    +0.000 C 
ATOM     24  O   UNL     1       6.051   4.187  17.671  0.00  0.00    +0.000 OA
ENDBRANCH   1  24
BRANCH  20  25
ATOM     25  O   UNL     1       5.496   6.604  16.054  0.00  0.00    +0.000 OA
ATOM     26  C   UNL     1       5.395   5.780  14.907  0.00  0.00    +0.000 C 
ENDBRANCH  20  25
BRANCH  12  27
ATOM     27  C   UNL     1      -1.909  13.080  21.031  0.00  0.00    +0.000 C 
BRANCH  27  28
ATOM     28  C   UNL     1      -3.340  13.655  21.118  0.00  0.00    +0.000 C 
BRANCH  28  29
ATOM     29  C   UNL     1      -4.391  12.816  20.396  0.00  0.00    +0.000 A 
ATOM     30  C   UNL     1      -4.080  12.264  19.136  0.00  0.00    +0.000 A 
ATOM     31  C   UNL     1      -4.966  11.398  18.486  0.00  0.00    +0.000 A 
ATOM     32  C   UNL     1      -6.173  11.073  19.091  0.00  0.00    +0.000 A 
ATOM     33  F   UNL     1      -7.011  10.223  18.480  0.00  0.00    +0.000 F 
ATOM     34  C   UNL     1      -6.500  11.610  20.327  0.00  0.00    +0.000 A 
ATOM     35  F   UNL     1      -7.660  11.290  20.918  0.00  0.00    +0.000 F 
ATOM     36  C   UNL     1      -5.621  12.472  20.982  0.00  0.00    +0.000 A 
ENDBRANCH  28  29
BRANCH  28  37
ATOM     37  N   UNL     1      -3.430  15.023  20.593  0.00  0.00    +0.000 NA
ATOM     38  H   UNL     1      -4.406  15.298  20.501  0.00  0.00    +0.000 HD
ATOM     39  H   UNL     1      -3.040  15.022  19.644  0.00  0.00    +0.000 HD
ENDBRANCH  28  37
ENDBRANCH  27  28
ENDBRANCH  12  27
TORSDOF 6
ENDMDL
MODEL 9
REMARK VINA RESULT:      -7.5      1.240      1.714
REMARK  Name = 
REMARK  8 active torsions:
REMARK  status: ('A' for Active; 'I' for Inactive)
REMARK    1  A    between atoms: C_1  and  O_2
REMARK    2  A    between atoms: O_2  and  C_3
REMARK    3  A    between atoms: C_14  and  C_16
REMARK    4  A    between atoms: C_16  and  C_17
REMARK    5  A    between atoms: C_17  and  N_18
REMARK    6  A    between atoms: C_17  and  C_19
REMARK    7  A    between atoms: C_33  and  O_34
REMARK    8  A    between atoms: O_34  and  C_35
REMARK                            x       y       z     vdW  Elec       q    Type
REMARK                         _______ _______ _______ _____ _____    ______ ____
ROOT
ATOM      1  C   UNL     1      -1.826  11.950  21.007  0.00  0.00    +0.000 A 
ATOM      2  C   UNL     1      -1.112  11.093  21.860  0.00  0.00    +0.000 A 
ATOM      3  C   UNL     1      -0.227  10.116  21.361  0.00  0.00    +0.000 A 
ATOM      4  C   UNL     1       0.570   9.294  22.156  0.00  0.00    +0.000 A 
ATOM      5  N   UNL     1       0.551   9.388  23.554  0.00  0.00    +0.000 N 
ATOM      6  N   UNL     1       1.382   8.355  21.656  0.00  0.00    +0.000 NA
ATOM      7  C   UNL     1       1.446   8.223  20.326  0.00  0.00    +0.000 A 
ATOM      8  N   UNL     1       2.240   7.246  19.791  0.00  0.00    +0.000 N 
ATOM      9  C   UNL     1       2.999   6.318  20.629  0.00  0.00    +0.000 C 
ATOM     10  C   UNL     1       2.780   4.877  20.128  0.00  0.00    +0.000 C 
ATOM     11  N   UNL     1       3.033   4.758  18.682  0.00  0.00    +0.000 N 
ATOM     12  C   UNL     1       3.824   3.724  18.205  0.00  0.00    +0.000 C 
ATOM     13  O   UNL     1       4.368   2.919  18.962  0.00  0.00    +0.000 OA
ATOM     14  C   UNL     1       2.276   5.721  17.861  0.00  0.00    +0.000 C 
ATOM     15  C   UNL     1       2.476   7.167  18.349  0.00  0.00    +0.000 C 
ATOM     16  N   UNL     1       0.742   8.996  19.488  0.00  0.00    +0.000 NA
ATOM     17  C   UNL     1      -0.093   9.925  19.995  0.00  0.00    +0.000 A 
ATOM     18  C   UNL     1      -0.854  10.749  19.158  0.00  0.00    +0.000 A 
ATOM     19  F   UNL     1      -0.744  10.570  17.825  0.00  0.00    +0.000 F 
ATOM     20  C   UNL     1      -1.719  11.764  19.621  0.00  0.00    +0.000 A 
ATOM     21  H   UNL     1       0.744  10.331  23.870  0.00  0.00    +0.000 HD
ATOM     22  H   UNL     1       1.246   8.732  23.906  0.00  0.00    +0.000 HD
ENDROOT
BRANCH   1  24
ATOM     23  C   UNL     1      -1.932  14.119  21.923  0.00  0.00    +0.000 C 
ATOM     24  O   UNL     1      -2.624  12.935  21.519  0.00  0.00    +0.000 OA
ENDBRANCH   1  24
BRANCH  20  25
ATOM     25  O   UNL     1      -2.311  12.465  18.613  0.00  0.00    +0.000 OA
ATOM     26  C   UNL     1      -3.333  11.881  17.828  0.00  0.00    +0.000 C 
ENDBRANCH  20  25
BRANCH  12  27
ATOM     27  C   UNL     1       3.979   3.616  16.693  0.00  0.00    +0.000 C 
BRANCH  27  28
ATOM     28  C   UNL     1       5.418   3.849  16.183  0.00  0.00    +0.000 C 
BRANCH  28  29
ATOM     29  C   UNL     1       6.192   4.901  16.975  0.00  0.00    +0.000 A 
ATOM     30  C   UNL     1       7.190   4.481  17.880  0.00  0.00    +0.000 A 
ATOM     31  C   UNL     1       8.002   5.407  18.544  0.00  0.00    +0.000 A 
ATOM     32  C   UNL     1       7.825   6.764  18.310  0.00  0.00    +0.000 A 
ATOM     33  F   UNL     1       8.620   7.650  18.926  0.00  0.00    +0.000 F 
ATOM     34  C   UNL     1       6.845   7.197  17.428  0.00  0.00    +0.000 A 
ATOM     35  F   UNL     1       6.680   8.506  17.192  0.00  0.00    +0.000 F 
ATOM     36  C   UNL     1       6.034   6.281  16.761  0.00  0.00    +0.000 A 
ENDBRANCH  28  29
BRANCH  28  37
ATOM     37  N   UNL     1       5.458   4.244  14.770  0.00  0.00    +0.000 NA
ATOM     38  H   UNL     1       6.333   4.721  14.564  0.00  0.00    +0.000 HD
ATOM     39  H   UNL     1       4.711   4.930  14.613  0.00  0.00    +0.000 HD
ENDBRANCH  28  37
ENDBRANCH  27  28
ENDBRANCH  12  27
TORSDOF 6
ENDMDL
