MODEL 1
REMARK VINA RESULT:      -7.7      0.000      0.000
REMARK  Name = 
REMARK  2 active torsions:
REMARK  status: ('A' for Active; 'I' for Inactive)
REMARK    1  A    between atoms: C_2  and  C_3
REMARK    2  A    between atoms: N_7  and  C_8
REMARK                            x       y       z     vdW  Elec       q    Type
REMARK                         _______ _______ _______ _____ _____    ______ ____
ROOT
ATOM      1  C   UNL     1       0.853   9.722  19.276  0.00  0.00    +0.000 A 
ATOM      2  C   UNL     1       0.918   8.930  20.393  0.00  0.00    +0.000 A 
ATOM      3  N   UNL     1       1.559   7.749  20.435  0.00  0.00    +0.000 NA
ATOM      4  C   UNL     1       2.252   7.377  19.346  0.00  0.00    +0.000 A 
ATOM      5  N   UNL     1       2.904   6.146  19.345  0.00  0.00    +0.000 N 
ATOM      6  N   UNL     1       2.368   8.148  18.252  0.00  0.00    +0.000 NA
ATOM      7  C   UNL     1       1.657   9.304  18.239  0.00  0.00    +0.000 A 
ATOM      8  H   UNL     1       3.447   6.056  18.496  0.00  0.00    +0.000 HD
ENDROOT
BRANCH   1  10
ATOM      9  O   UNL     1       0.468  11.918  19.831  0.00  0.00    +0.000 OA
ATOM     10  C   UNL     1       0.066  10.961  19.172  0.00  0.00    +0.000 C 
ATOM     11  N   UNL     1      -1.065  11.047  18.346  0.00  0.00    +0.000 N 
ATOM     12  C   UNL     1      -1.763  12.339  18.255  0.00  0.00    +0.000 C 
ATOM     13  C   UNL     1      -3.221  12.227  18.659  0.00  0.00    +0.000 C 
ATOM     14  S   UNL     1      -4.048  11.008  17.663  0.00  0.00    +0.000 S 
ATOM     15  O   UNL     1      -5.300  10.673  18.320  0.00  0.00    +0.000 OA
ATOM     16  O   UNL     1      -4.036  11.456  16.285  0.00  0.00    +0.000 OA
ATOM     17  C   UNL     1      -2.969   9.604  17.804  0.00  0.00    +0.000 C 
ATOM     18  C   UNL     1      -1.565  10.026  17.409  0.00  0.00    +0.000 C 
ENDBRANCH   1  10
BRANCH   5  19
ATOM     19  C   UNL     1       2.389   4.924  19.818  0.00  0.00    +0.000 A 
ATOM     20  C   UNL     1       2.571   4.478  21.135  0.00  0.00    +0.000 A 
ATOM     21  C   UNL     1       2.047   3.254  21.559  0.00  0.00    +0.000 A 
ATOM     22  C   UNL     1       1.340   2.452  20.667  0.00  0.00    +0.000 A 
ATOM     23  C   UNL     1       1.145   2.883  19.357  0.00  0.00    +0.000 A 
ATOM     24  C   UNL     1       1.654   4.116  18.941  0.00  0.00    +0.000 A 
ENDBRANCH   5  19
TORSDOF 2
ENDMDL
MODEL 2
REMARK VINA RESULT:      -7.7      0.050      1.004
REMARK  Name = 
REMARK  2 active torsions:
REMARK  status: ('A' for Active; 'I' for Inactive)
REMARK    1  A    between atoms: C_2  and  C_3
REMARK    2  A    between atoms: N_7  and  C_8
REMARK                            x       y       z     vdW  Elec       q    Type
REMARK                         _______ _______ _______ _____ _____    ______ ____
ROOT
ATOM      1  C   UNL     1       0.849   9.714  19.263  0.00  0.00    +0.000 A 
ATOM      2  C   UNL     1       0.911   8.906  20.368  0.00  0.00    +0.000 A 
ATOM      3  N   UNL     1       1.550   7.724  20.396  0.00  0.00    +0.000 NA
ATOM      4  C   UNL     1       2.246   7.367  19.303  0.00  0.00    +0.000 A 
ATOM      5  N   UNL     1       2.898   6.136  19.287  0.00  0.00    +0.000 N 
ATOM      6  N   UNL     1       2.366   8.153  18.221  0.00  0.00    +0.000 NA
ATOM      7  C   UNL     1       1.656   9.309  18.222  0.00  0.00    +0.000 A 
ATOM      8  H   UNL     1       3.443   6.057  18.438  0.00  0.00    +0.000 HD
ENDROOT
BRANCH   1  10
ATOM      9  O   UNL     1       0.468  11.904  19.843  0.00  0.00    +0.000 OA
ATOM     10  C   UNL     1       0.063  10.955  19.173  0.00  0.00    +0.000 C 
ATOM     11  N   UNL     1      -1.068  11.051  18.350  0.00  0.00    +0.000 N 
ATOM     12  C   UNL     1      -1.765  12.345  18.274  0.00  0.00    +0.000 C 
ATOM     13  C   UNL     1      -3.223  12.231  18.679  0.00  0.00    +0.000 C 
ATOM     14  S   UNL     1      -4.053  11.024  17.670  0.00  0.00    +0.000 S 
ATOM     15  O   UNL     1      -5.304  10.683  18.326  0.00  0.00    +0.000 OA
ATOM     16  O   UNL     1      -4.041  11.487  16.298  0.00  0.00    +0.000 OA
ATOM     17  C   UNL     1      -2.975   9.617  17.795  0.00  0.00    +0.000 C 
ATOM     18  C   UNL     1      -1.571  10.042  17.402  0.00  0.00    +0.000 C 
ENDBRANCH   1  10
BRANCH   5  19
ATOM     19  C   UNL     1       2.381   4.907  19.741  0.00  0.00    +0.000 A 
ATOM     20  C   UNL     1       1.640   4.042  18.923  0.00  0.00    +0.000 A 
ATOM     21  C   UNL     1       1.140   2.834  19.418  0.00  0.00    +0.000 A 
ATOM     22  C   UNL     1       1.367   2.478  20.744  0.00  0.00    +0.000 A 
ATOM     23  C   UNL     1       2.107   3.323  21.568  0.00  0.00    +0.000 A 
ATOM     24  C   UNL     1       2.621   4.521  21.066  0.00  0.00    +0.000 A 
ENDBRANCH   5  19
TORSDOF 2
ENDMDL
MODEL 3
REMARK VINA RESULT:      -7.6      6.620      8.562
REMARK  Name = 
REMARK  2 active torsions:
REMARK  status: ('A' for Active; 'I' for Inactive)
REMARK    1  A    between atoms: C_2  and  C_3
REMARK    2  A    between atoms: N_7  and  C_8
REMARK                            x       y       z     vdW  Elec       q    Type
REMARK                         _______ _______ _______ _____ _____    ______ ____
ROOT
ATOM      1  C   UNL     1       4.478   5.533  16.900  0.00  0.00    +0.000 A 
ATOM      2  C   UNL     1       4.881   4.259  16.599  0.00  0.00    +0.000 A 
ATOM      3  N   UNL     1       5.596   3.939  15.507  0.00  0.00    +0.000 NA
ATOM      4  C   UNL     1       6.017   4.945  14.721  0.00  0.00    +0.000 A 
ATOM      5  N   UNL     1       6.736   4.647  13.566  0.00  0.00    +0.000 N 
ATOM      6  N   UNL     1       5.796   6.238  15.005  0.00  0.00    +0.000 NA
ATOM      7  C   UNL     1       5.022   6.504  16.088  0.00  0.00    +0.000 A 
ATOM      8  H   UNL     1       7.051   5.508  13.137  0.00  0.00    +0.000 HD
ENDROOT
BRANCH   1  10
ATOM      9  O   UNL     1       3.556   7.085  18.321  0.00  0.00    +0.000 OA
ATOM     10  C   UNL     1       3.601   5.892  18.026  0.00  0.00    +0.000 C 
ATOM     11  N   UNL     1       2.843   4.926  18.705  0.00  0.00    +0.000 N 
ATOM     12  C   UNL     1       1.949   5.376  19.784  0.00  0.00    +0.000 C 
ATOM     13  C   UNL     1       2.269   4.703  21.106  0.00  0.00    +0.000 C 
ATOM     14  S   UNL     1       2.189   2.935  20.936  0.00  0.00    +0.000 S 
ATOM     15  O   UNL     1       2.855   2.348  22.087  0.00  0.00    +0.000 OA
ATOM     16  O   UNL     1       0.827   2.567  20.605  0.00  0.00    +0.000 OA
ATOM     17  C   UNL     1       3.209   2.642  19.512  0.00  0.00    +0.000 C 
ATOM     18  C   UNL     1       2.704   3.500  18.365  0.00  0.00    +0.000 C 
ENDBRANCH   1  10
BRANCH   5  19
ATOM     19  C   UNL     1       6.448   3.628  12.638  0.00  0.00    +0.000 A 
ATOM     20  C   UNL     1       5.142   3.279  12.269  0.00  0.00    +0.000 A 
ATOM     21  C   UNL     1       4.902   2.255  11.348  0.00  0.00    +0.000 A 
ATOM     22  C   UNL     1       5.970   1.559  10.788  0.00  0.00    +0.000 A 
ATOM     23  C   UNL     1       7.275   1.898  11.138  0.00  0.00    +0.000 A 
ATOM     24  C   UNL     1       7.511   2.934  12.045  0.00  0.00    +0.000 A 
ENDBRANCH   5  19
TORSDOF 2
ENDMDL
MODEL 4
REMARK VINA RESULT:      -7.6      6.578      8.507
REMARK  Name = 
REMARK  2 active torsions:
REMARK  status: ('A' for Active; 'I' for Inactive)
REMARK    1  A    between atoms: C_2  and  C_3
REMARK    2  A    between atoms: N_7  and  C_8
REMARK                            x       y       z     vdW  Elec       q    Type
REMARK                         _______ _______ _______ _____ _____    ______ ____
ROOT
ATOM      1  C   UNL     1       4.472   5.563  16.935  0.00  0.00    +0.000 A 
ATOM      2  C   UNL     1       4.881   4.290  16.636  0.00  0.00    +0.000 A 
ATOM      3  N   UNL     1       5.601   3.973  15.546  0.00  0.00    +0.000 NA
ATOM      4  C   UNL     1       6.020   4.980  14.762  0.00  0.00    +0.000 A 
ATOM      5  N   UNL     1       6.745   4.686  13.609  0.00  0.00    +0.000 N 
ATOM      6  N   UNL     1       5.793   6.273  15.045  0.00  0.00    +0.000 NA
ATOM      7  C   UNL     1       5.014   6.536  16.125  0.00  0.00    +0.000 A 
ATOM      8  H   UNL     1       7.058   5.547  13.181  0.00  0.00    +0.000 HD
ENDROOT
BRANCH   1  10
ATOM      9  O   UNL     1       3.539   7.111  18.353  0.00  0.00    +0.000 OA
ATOM     10  C   UNL     1       3.590   5.918  18.059  0.00  0.00    +0.000 C 
ATOM     11  N   UNL     1       2.834   4.949  18.735  0.00  0.00    +0.000 N 
ATOM     12  C   UNL     1       1.934   5.396  19.811  0.00  0.00    +0.000 C 
ATOM     13  C   UNL     1       2.252   4.725  21.134  0.00  0.00    +0.000 C 
ATOM     14  S   UNL     1       2.179   2.956  20.964  0.00  0.00    +0.000 S 
ATOM     15  O   UNL     1       2.844   2.372  22.117  0.00  0.00    +0.000 OA
ATOM     16  O   UNL     1       0.820   2.582  20.628  0.00  0.00    +0.000 OA
ATOM     17  C   UNL     1       3.206   2.667  19.543  0.00  0.00    +0.000 C 
ATOM     18  C   UNL     1       2.701   3.523  18.394  0.00  0.00    +0.000 C 
ENDBRANCH   1  10
BRANCH   5  19
ATOM     19  C   UNL     1       6.464   3.665  12.680  0.00  0.00    +0.000 A 
ATOM     20  C   UNL     1       7.461   2.876  12.089  0.00  0.00    +0.000 A 
ATOM     21  C   UNL     1       7.138   1.877  11.167  0.00  0.00    +0.000 A 
ATOM     22  C   UNL     1       5.808   1.659  10.815  0.00  0.00    +0.000 A 
ATOM     23  C   UNL     1       4.805   2.429  11.398  0.00  0.00    +0.000 A 
ATOM     24  C   UNL     1       5.131   3.415  12.333  0.00  0.00    +0.000 A 
ENDBRANCH   5  19
TORSDOF 2
ENDMDL
MODEL 5
REMARK VINA RESULT:      -7.4      2.546      3.793
REMARK  Name = 
REMARK  2 active torsions:
REMARK  status: ('A' for Active; 'I' for Inactive)
REMARK    1  A    between atoms: C_2  and  C_3
REMARK    2  A    between atoms: N_7  and  C_8
REMARK                            x       y       z     vdW  Elec       q    Type
REMARK                         _______ _______ _______ _____ _____    ______ ____
ROOT
ATOM      1  C   UNL     1       0.725  10.107  19.310  0.00  0.00    +0.000 A 
ATOM      2  C   UNL     1       0.847   9.254  20.375  0.00  0.00    +0.000 A 
ATOM      3  N   UNL     1       1.486   8.072  20.318  0.00  0.00    +0.000 NA
ATOM      4  C   UNL     1       2.118   7.761  19.174  0.00  0.00    +0.000 A 
ATOM      5  N   UNL     1       2.766   6.532  19.070  0.00  0.00    +0.000 N 
ATOM      6  N   UNL     1       2.178   8.592  18.120  0.00  0.00    +0.000 NA
ATOM      7  C   UNL     1       1.471   9.746  18.209  0.00  0.00    +0.000 A 
ATOM      8  H   UNL     1       3.262   6.489  18.190  0.00  0.00    +0.000 HD
ENDROOT
BRANCH   1  10
ATOM      9  O   UNL     1      -1.248  11.244  19.006  0.00  0.00    +0.000 OA
ATOM     10  C   UNL     1      -0.063  11.350  19.316  0.00  0.00    +0.000 C 
ATOM     11  N   UNL     1       0.506  12.579  19.681  0.00  0.00    +0.000 N 
ATOM     12  C   UNL     1      -0.365  13.765  19.716  0.00  0.00    +0.000 C 
ATOM     13  C   UNL     1       0.137  14.866  18.800  0.00  0.00    +0.000 C 
ATOM     14  S   UNL     1       1.805  15.314  19.226  0.00  0.00    +0.000 S 
ATOM     15  O   UNL     1       2.357  16.073  18.117  0.00  0.00    +0.000 OA
ATOM     16  O   UNL     1       1.805  15.861  20.567  0.00  0.00    +0.000 OA
ATOM     17  C   UNL     1       2.624  13.738  19.265  0.00  0.00    +0.000 C 
ATOM     18  C   UNL     1       1.863  12.815  20.201  0.00  0.00    +0.000 C 
ENDBRANCH   1  10
BRANCH   5  19
ATOM     19  C   UNL     1       2.273   5.285  19.501  0.00  0.00    +0.000 A 
ATOM     20  C   UNL     1       2.303   4.876  20.842  0.00  0.00    +0.000 A 
ATOM     21  C   UNL     1       1.808   3.625  21.224  0.00  0.00    +0.000 A 
ATOM     22  C   UNL     1       1.282   2.763  20.266  0.00  0.00    +0.000 A 
ATOM     23  C   UNL     1       1.238   3.157  18.931  0.00  0.00    +0.000 A 
ATOM     24  C   UNL     1       1.718   4.415  18.555  0.00  0.00    +0.000 A 
ENDBRANCH   5  19
TORSDOF 2
ENDMDL
MODEL 6
REMARK VINA RESULT:      -7.3      2.544      3.930
REMARK  Name = 
REMARK  2 active torsions:
REMARK  status: ('A' for Active; 'I' for Inactive)
REMARK    1  A    between atoms: C_2  and  C_3
REMARK    2  A    between atoms: N_7  and  C_8
REMARK                            x       y       z     vdW  Elec       q    Type
REMARK                         _______ _______ _______ _____ _____    ______ ____
ROOT
ATOM      1  C   UNL     1       0.746  10.097  19.252  0.00  0.00    +0.000 A 
ATOM      2  C   UNL     1       0.816   9.237  20.317  0.00  0.00    +0.000 A 
ATOM      3  N   UNL     1       1.453   8.054  20.282  0.00  0.00    +0.000 NA
ATOM      4  C   UNL     1       2.139   7.749  19.168  0.00  0.00    +0.000 A 
ATOM      5  N   UNL     1       2.788   6.519  19.086  0.00  0.00    +0.000 N 
ATOM      6  N   UNL     1       2.251   8.586  18.123  0.00  0.00    +0.000 NA
ATOM      7  C   UNL     1       1.543   9.742  18.186  0.00  0.00    +0.000 A 
ATOM      8  H   UNL     1       3.325   6.480  18.230  0.00  0.00    +0.000 HD
ENDROOT
BRANCH   1  10
ATOM      9  O   UNL     1      -1.209  11.240  18.865  0.00  0.00    +0.000 OA
ATOM     10  C   UNL     1      -0.038  11.342  19.229  0.00  0.00    +0.000 C 
ATOM     11  N   UNL     1       0.516  12.568  19.625  0.00  0.00    +0.000 N 
ATOM     12  C   UNL     1      -0.353  13.756  19.626  0.00  0.00    +0.000 C 
ATOM     13  C   UNL     1       0.192  14.860  18.740  0.00  0.00    +0.000 C 
ATOM     14  S   UNL     1       1.840  15.301  19.242  0.00  0.00    +0.000 S 
ATOM     15  O   UNL     1       2.443  16.065  18.163  0.00  0.00    +0.000 OA
ATOM     16  O   UNL     1       1.781  15.842  20.585  0.00  0.00    +0.000 OA
ATOM     17  C   UNL     1       2.653  13.723  19.310  0.00  0.00    +0.000 C 
ATOM     18  C   UNL     1       1.849  12.798  20.207  0.00  0.00    +0.000 C 
ENDBRANCH   1  10
BRANCH   5  19
ATOM     19  C   UNL     1       2.273   5.271  19.486  0.00  0.00    +0.000 A 
ATOM     20  C   UNL     1       1.683   4.367  18.590  0.00  0.00    +0.000 A 
ATOM     21  C   UNL     1       1.178   3.141  19.032  0.00  0.00    +0.000 A 
ATOM     22  C   UNL     1       1.249   2.804  20.381  0.00  0.00    +0.000 A 
ATOM     23  C   UNL     1       1.839   3.687  21.282  0.00  0.00    +0.000 A 
ATOM     24  C   UNL     1       2.358   4.904  20.835  0.00  0.00    +0.000 A 
ENDBRANCH   5  19
TORSDOF 2
ENDMDL
MODEL 7
REMARK VINA RESULT:      -7.3      4.999      8.495
REMARK  Name = 
REMARK  2 active torsions:
REMARK  status: ('A' for Active; 'I' for Inactive)
REMARK    1  A    between atoms: C_2  and  C_3
REMARK    2  A    between atoms: N_7  and  C_8
REMARK                            x       y       z     vdW  Elec       q    Type
REMARK                         _______ _______ _______ _____ _____    ______ ____
ROOT
ATOM      1  C   UNL     1       2.459   6.659  18.511  0.00  0.00    +0.000 A 
ATOM      2  C   UNL     1       2.281   7.930  18.030  0.00  0.00    +0.000 A 
ATOM      3  N   UNL     1       1.749   8.934  18.749  0.00  0.00    +0.000 NA
ATOM      4  C   UNL     1       1.467   8.693  20.040  0.00  0.00    +0.000 A 
ATOM      5  N   UNL     1       0.889   9.703  20.807  0.00  0.00    +0.000 N 
ATOM      6  N   UNL     1       1.737   7.525  20.645  0.00  0.00    +0.000 NA
ATOM      7  C   UNL     1       2.221   6.528  19.862  0.00  0.00    +0.000 A 
ATOM      8  H   UNL     1       0.822   9.396  21.769  0.00  0.00    +0.000 HD
ENDROOT
BRANCH   1  10
ATOM      9  O   UNL     1       2.161   4.567  17.611  0.00  0.00    +0.000 OA
ATOM     10  C   UNL     1       2.933   5.518  17.712  0.00  0.00    +0.000 C 
ATOM     11  N   UNL     1       4.186   5.532  17.082  0.00  0.00    +0.000 N 
ATOM     12  C   UNL     1       4.561   4.374  16.254  0.00  0.00    +0.000 C 
ATOM     13  C   UNL     1       5.849   3.728  16.730  0.00  0.00    +0.000 C 
ATOM     14  S   UNL     1       7.168   4.920  16.755  0.00  0.00    +0.000 S 
ATOM     15  O   UNL     1       8.249   4.369  17.555  0.00  0.00    +0.000 OA
ATOM     16  O   UNL     1       7.408   5.367  15.398  0.00  0.00    +0.000 OA
ATOM     17  C   UNL     1       6.449   6.264  17.668  0.00  0.00    +0.000 C 
ATOM     18  C   UNL     1       5.137   6.654  17.010  0.00  0.00    +0.000 C 
ENDBRANCH   1  10
BRANCH   5  19
ATOM     19  C   UNL     1      -0.159  10.558  20.415  0.00  0.00    +0.000 A 
ATOM     20  C   UNL     1      -0.892  10.374  19.234  0.00  0.00    +0.000 A 
ATOM     21  C   UNL     1      -1.921  11.252  18.880  0.00  0.00    +0.000 A 
ATOM     22  C   UNL     1      -2.225  12.334  19.702  0.00  0.00    +0.000 A 
ATOM     23  C   UNL     1      -1.511  12.527  20.882  0.00  0.00    +0.000 A 
ATOM     24  C   UNL     1      -0.495  11.637  21.241  0.00  0.00    +0.000 A 
ENDBRANCH   5  19
TORSDOF 2
ENDMDL
MODEL 8
REMARK VINA RESULT:      -7.3      4.995      8.445
REMARK  Name = 
REMARK  2 active torsions:
REMARK  status: ('A' for Active; 'I' for Inactive)
REMARK    1  A    between atoms: C_2  and  C_3
REMARK    2  A    between atoms: N_7  and  C_8
REMARK                            x       y       z     vdW  Elec       q    Type
REMARK                         _______ _______ _______ _____ _____    ______ ____
ROOT
ATOM      1  C   UNL     1       2.465   6.666  18.494  0.00  0.00    +0.000 A 
ATOM      2  C   UNL     1       2.308   7.938  18.008  0.00  0.00    +0.000 A 
ATOM      3  N   UNL     1       1.775   8.948  18.718  0.00  0.00    +0.000 NA
ATOM      4  C   UNL     1       1.471   8.713  20.005  0.00  0.00    +0.000 A 
ATOM      5  N   UNL     1       0.891   9.729  20.761  0.00  0.00    +0.000 N 
ATOM      6  N   UNL     1       1.718   7.542  20.615  0.00  0.00    +0.000 NA
ATOM      7  C   UNL     1       2.204   6.539  19.840  0.00  0.00    +0.000 A 
ATOM      8  H   UNL     1       0.806   9.424  21.722  0.00  0.00    +0.000 HD
ENDROOT
BRANCH   1  10
ATOM      9  O   UNL     1       2.165   4.568  17.606  0.00  0.00    +0.000 OA
ATOM     10  C   UNL     1       2.939   5.519  17.703  0.00  0.00    +0.000 C 
ATOM     11  N   UNL     1       4.194   5.526  17.076  0.00  0.00    +0.000 N 
ATOM     12  C   UNL     1       4.569   4.362  16.257  0.00  0.00    +0.000 C 
ATOM     13  C   UNL     1       5.854   3.716  16.741  0.00  0.00    +0.000 C 
ATOM     14  S   UNL     1       7.175   4.906  16.762  0.00  0.00    +0.000 S 
ATOM     15  O   UNL     1       8.253   4.358  17.569  0.00  0.00    +0.000 OA
ATOM     16  O   UNL     1       7.421   5.344  15.403  0.00  0.00    +0.000 OA
ATOM     17  C   UNL     1       6.457   6.258  17.664  0.00  0.00    +0.000 C 
ATOM     18  C   UNL     1       5.147   6.646  17.001  0.00  0.00    +0.000 C 
ENDBRANCH   1  10
BRANCH   5  19
ATOM     19  C   UNL     1      -0.141  10.595  20.351  0.00  0.00    +0.000 A 
ATOM     20  C   UNL     1      -0.424  11.805  21.001  0.00  0.00    +0.000 A 
ATOM     21  C   UNL     1      -1.463  12.632  20.563  0.00  0.00    +0.000 A 
ATOM     22  C   UNL     1      -2.240  12.253  19.472  0.00  0.00    +0.000 A 
ATOM     23  C   UNL     1      -1.968  11.058  18.811  0.00  0.00    +0.000 A 
ATOM     24  C   UNL     1      -0.917  10.243  19.241  0.00  0.00    +0.000 A 
ENDBRANCH   5  19
TORSDOF 2
ENDMDL
MODEL 9
REMARK VINA RESULT:      -7.2      6.764      8.686
REMARK  Name = 
REMARK  2 active torsions:
REMARK  status: ('A' for Active; 'I' for Inactive)
REMARK    1  A    between atoms: C_2  and  C_3
REMARK    2  A    between atoms: N_7  and  C_8
REMARK                            x       y       z     vdW  Elec       q    Type
REMARK                         _______ _______ _______ _____ _____    ______ ____
ROOT
ATOM      1  C   UNL     1       5.567   5.168  17.100  0.00  0.00    +0.000 A 
ATOM      2  C   UNL     1       6.214   4.049  16.644  0.00  0.00    +0.000 A 
ATOM      3  N   UNL     1       6.589   3.872  15.365  0.00  0.00    +0.000 NA
ATOM      4  C   UNL     1       6.401   4.894  14.513  0.00  0.00    +0.000 A 
ATOM      5  N   UNL     1       6.752   4.735  13.175  0.00  0.00    +0.000 N 
ATOM      6  N   UNL     1       5.906   6.083  14.893  0.00  0.00    +0.000 NA
ATOM      7  C   UNL     1       5.491   6.191  16.181  0.00  0.00    +0.000 A 
ATOM      8  H   UNL     1       6.632   5.614  12.690  0.00  0.00    +0.000 HD
ENDROOT
BRANCH   1  10
ATOM      9  O   UNL     1       5.824   5.823  19.287  0.00  0.00    +0.000 OA
ATOM     10  C   UNL     1       5.047   5.337  18.466  0.00  0.00    +0.000 C 
ATOM     11  N   UNL     1       3.732   4.985  18.802  0.00  0.00    +0.000 N 
ATOM     12  C   UNL     1       3.272   5.239  20.177  0.00  0.00    +0.000 C 
ATOM     13  C   UNL     1       2.794   3.972  20.860  0.00  0.00    +0.000 C 
ATOM     14  S   UNL     1       1.500   3.207  19.909  0.00  0.00    +0.000 S 
ATOM     15  O   UNL     1       1.345   1.843  20.387  0.00  0.00    +0.000 OA
ATOM     16  O   UNL     1       0.365   4.108  19.870  0.00  0.00    +0.000 OA
ATOM     17  C   UNL     1       2.213   3.135  18.284  0.00  0.00    +0.000 C 
ATOM     18  C   UNL     1       2.670   4.528  17.889  0.00  0.00    +0.000 C 
ENDBRANCH   1  10
BRANCH   5  19
ATOM     19  C   UNL     1       6.497   3.608  12.369  0.00  0.00    +0.000 A 
ATOM     20  C   UNL     1       5.202   3.156  12.079  0.00  0.00    +0.000 A 
ATOM     21  C   UNL     1       4.995   2.028  11.279  0.00  0.00    +0.000 A 
ATOM     22  C   UNL     1       6.085   1.331  10.764  0.00  0.00    +0.000 A 
ATOM     23  C   UNL     1       7.377   1.771  11.037  0.00  0.00    +0.000 A 
ATOM     24  C   UNL     1       7.580   2.909  11.822  0.00  0.00    +0.000 A 
ENDBRANCH   5  19
TORSDOF 2
ENDMDL
