MODEL 1
REMARK VINA RESULT:      -7.5      0.000      0.000
REMARK  Name = 
REMARK  4 active torsions:
REMARK  status: ('A' for Active; 'I' for Inactive)
REMARK    1  A    between atoms: C_2  and  O_3
REMARK    2  A    between atoms: C_2  and  C_4
REMARK    3  A    between atoms: C_4  and  N_5
REMARK    4  A    between atoms: C_8  and  C_9
REMARK                            x       y       z     vdW  Elec       q    Type
REMARK                         _______ _______ _______ _____ _____    ______ ____
ROOT
ATOM      1  C   UNL     1       2.953   6.777  18.124  0.00  0.00    +0.000 A 
ATOM      2  C   UNL     1       2.778   7.890  17.343  0.00  0.00    +0.000 A 
ATOM      3  N   UNL     1       2.184   8.958  17.986  0.00  0.00    +0.000 NA
ATOM      4  C   UNL     1       1.892   8.653  19.236  0.00  0.00    +0.000 A 
ATOM      5  N   UNL     1       1.293   9.548  20.069  0.00  0.00    +0.000 N 
ATOM      6  C   UNL     1       1.171  10.904  19.554  0.00  0.00    +0.000 C 
ATOM      7  C   UNL     1       0.517  11.795  20.585  0.00  0.00    +0.000 C 
ATOM      8  C   UNL     1      -0.891  11.246  20.914  0.00  0.00    +0.000 C 
ATOM      9  C   UNL     1      -1.760  11.405  19.661  0.00  0.00    +0.000 C 
ATOM     10  C   UNL     1      -2.442  12.561  19.655  0.00  0.00    +0.000 C 
ATOM     11  C   UNL     1      -2.248  13.180  20.953  0.00  0.00    +0.000 A 
ATOM     12  C   UNL     1      -2.630  14.433  21.387  0.00  0.00    +0.000 A 
ATOM     13  C   UNL     1      -2.394  14.760  22.724  0.00  0.00    +0.000 A 
ATOM     14  C   UNL     1      -1.826  13.820  23.602  0.00  0.00    +0.000 A 
ATOM     15  C   UNL     1      -1.378  12.578  23.137  0.00  0.00    +0.000 A 
ATOM     16  C   UNL     1      -1.543  12.297  21.791  0.00  0.00    +0.000 A 
ATOM     17  C   UNL     1      -0.803   9.784  21.400  0.00  0.00    +0.000 C 
ATOM     18  C   UNL     1       0.629   9.202  21.324  0.00  0.00    +0.000 C 
ATOM     19  S   UNL     1       2.362   7.056  19.692  0.00  0.00    +0.000 S 
ENDROOT
BRANCH   1  23
ATOM     20  N   UNL     1       4.853   4.173  16.762  0.00  0.00    +0.000 N 
ATOM     21  N   UNL     1       4.272   3.463  17.745  0.00  0.00    +0.000 NA
ATOM     22  N   UNL     1       3.494   4.335  18.369  0.00  0.00    +0.000 NA
ATOM     23  C   UNL     1       3.604   5.523  17.687  0.00  0.00    +0.000 A 
ATOM     24  N   UNL     1       4.417   5.436  16.622  0.00  0.00    +0.000 NA
BRANCH  20  25
ATOM     25  C   UNL     1       6.040   3.683  16.113  0.00  0.00    +0.000 C 
BRANCH  25  27
ATOM     26  O   UNL     1       8.061   4.358  17.182  0.00  0.00    +0.000 OA
ATOM     27  C   UNL     1       7.217   4.580  16.312  0.00  0.00    +0.000 C 
BRANCH  27  28
ATOM     28  O   UNL     1       7.384   5.590  15.432  0.00  0.00    +0.000 OA
ATOM     29  H   UNL     1       7.902   6.367  15.730  0.00  0.00    +0.000 HD
ENDBRANCH  27  28
ENDBRANCH  25  27
ENDBRANCH  20  25
ENDBRANCH   1  23
TORSDOF 4
ENDMDL
MODEL 2
REMARK VINA RESULT:      -7.5      5.233     10.527
REMARK  Name = 
REMARK  4 active torsions:
REMARK  status: ('A' for Active; 'I' for Inactive)
REMARK    1  A    between atoms: C_2  and  O_3
REMARK    2  A    between atoms: C_2  and  C_4
REMARK    3  A    between atoms: C_4  and  N_5
REMARK    4  A    between atoms: C_8  and  C_9
REMARK                            x       y       z     vdW  Elec       q    Type
REMARK                         _______ _______ _______ _____ _____    ______ ____
ROOT
ATOM      1  C   UNL     1      -0.423  10.671  22.101  0.00  0.00    +0.000 A 
ATOM      2  C   UNL     1      -0.447   9.389  22.587  0.00  0.00    +0.000 A 
ATOM      3  N   UNL     1       0.375   8.504  21.919  0.00  0.00    +0.000 NA
ATOM      4  C   UNL     1       1.001   9.100  20.922  0.00  0.00    +0.000 A 
ATOM      5  N   UNL     1       1.863   8.426  20.113  0.00  0.00    +0.000 N 
ATOM      6  C   UNL     1       2.189   7.070  20.531  0.00  0.00    +0.000 C 
ATOM      7  C   UNL     1       3.172   6.450  19.565  0.00  0.00    +0.000 C 
ATOM      8  C   UNL     1       2.543   6.411  18.153  0.00  0.00    +0.000 C 
ATOM      9  C   UNL     1       1.367   5.427  18.190  0.00  0.00    +0.000 C 
ATOM     10  C   UNL     1       1.729   4.184  17.834  0.00  0.00    +0.000 C 
ATOM     11  C   UNL     1       3.097   4.257  17.355  0.00  0.00    +0.000 A 
ATOM     12  C   UNL     1       3.954   3.232  17.007  0.00  0.00    +0.000 A 
ATOM     13  C   UNL     1       5.205   3.576  16.491  0.00  0.00    +0.000 A 
ATOM     14  C   UNL     1       5.553   4.924  16.295  0.00  0.00    +0.000 A 
ATOM     15  C   UNL     1       4.707   5.956  16.715  0.00  0.00    +0.000 A 
ATOM     16  C   UNL     1       3.503   5.603  17.302  0.00  0.00    +0.000 A 
ATOM     17  C   UNL     1       2.124   7.827  17.706  0.00  0.00    +0.000 C 
ATOM     18  C   UNL     1       2.321   8.896  18.807  0.00  0.00    +0.000 C 
ATOM     19  S   UNL     1       0.639  10.783  20.779  0.00  0.00    +0.000 S 
ENDROOT
BRANCH   1  23
ATOM     20  N   UNL     1      -2.643  12.966  23.532  0.00  0.00    +0.000 N 
ATOM     21  N   UNL     1      -1.536  13.724  23.618  0.00  0.00    +0.000 NA
ATOM     22  N   UNL     1      -0.577  12.973  23.097  0.00  0.00    +0.000 NA
ATOM     23  C   UNL     1      -1.174  11.812  22.667  0.00  0.00    +0.000 A 
ATOM     24  N   UNL     1      -2.501  11.802  22.876  0.00  0.00    +0.000 NA
BRANCH  20  25
ATOM     25  C   UNL     1      -3.800  13.273  24.330  0.00  0.00    +0.000 C 
BRANCH  25  27
ATOM     26  O   UNL     1      -5.894  12.163  24.591  0.00  0.00    +0.000 OA
ATOM     27  C   UNL     1      -5.039  12.610  23.824  0.00  0.00    +0.000 C 
BRANCH  27  28
ATOM     28  O   UNL     1      -5.244  12.613  22.490  0.00  0.00    +0.000 OA
ATOM     29  H   UNL     1      -5.075  11.777  22.006  0.00  0.00    +0.000 HD
ENDBRANCH  27  28
ENDBRANCH  25  27
ENDBRANCH  20  25
ENDBRANCH   1  23
TORSDOF 4
ENDMDL
MODEL 3
REMARK VINA RESULT:      -7.4      2.120      2.965
REMARK  Name = 
REMARK  4 active torsions:
REMARK  status: ('A' for Active; 'I' for Inactive)
REMARK    1  A    between atoms: C_2  and  O_3
REMARK    2  A    between atoms: C_2  and  C_4
REMARK    3  A    between atoms: C_4  and  N_5
REMARK    4  A    between atoms: C_8  and  C_9
REMARK                            x       y       z     vdW  Elec       q    Type
REMARK                         _______ _______ _______ _____ _____    ______ ____
ROOT
ATOM      1  C   UNL     1       1.533   8.417  20.001  0.00  0.00    +0.000 A 
ATOM      2  C   UNL     1       1.297   9.462  19.144  0.00  0.00    +0.000 A 
ATOM      3  N   UNL     1       0.683  10.554  19.724  0.00  0.00    +0.000 NA
ATOM      4  C   UNL     1       0.435  10.335  21.000  0.00  0.00    +0.000 A 
ATOM      5  N   UNL     1      -0.173  11.270  21.782  0.00  0.00    +0.000 N 
ATOM      6  C   UNL     1      -0.358  12.578  21.170  0.00  0.00    +0.000 C 
ATOM      7  C   UNL     1      -1.015  13.522  22.151  0.00  0.00    +0.000 C 
ATOM      8  C   UNL     1      -2.393  12.952  22.561  0.00  0.00    +0.000 C 
ATOM      9  C   UNL     1      -3.301  12.986  21.326  0.00  0.00    +0.000 C 
ATOM     10  C   UNL     1      -4.024  14.115  21.254  0.00  0.00    +0.000 C 
ATOM     11  C   UNL     1      -3.817  14.837  22.496  0.00  0.00    +0.000 A 
ATOM     12  C   UNL     1      -4.232  16.106  22.846  0.00  0.00    +0.000 A 
ATOM     13  C   UNL     1      -3.972  16.541  24.146  0.00  0.00    +0.000 A 
ATOM     14  C   UNL     1      -3.347  15.689  25.075  0.00  0.00    +0.000 A 
ATOM     15  C   UNL     1      -2.868  14.432  24.692  0.00  0.00    +0.000 A 
ATOM     16  C   UNL     1      -3.058  14.044  23.376  0.00  0.00    +0.000 A 
ATOM     17  C   UNL     1      -2.240  11.535  23.152  0.00  0.00    +0.000 C 
ATOM     18  C   UNL     1      -0.790  10.998  23.078  0.00  0.00    +0.000 C 
ATOM     19  S   UNL     1       0.975   8.794  21.561  0.00  0.00    +0.000 S 
ENDROOT
BRANCH   1  23
ATOM     20  N   UNL     1       3.489   5.784  18.784  0.00  0.00    +0.000 N 
ATOM     21  N   UNL     1       2.957   5.130  19.831  0.00  0.00    +0.000 NA
ATOM     22  N   UNL     1       2.165   6.020  20.411  0.00  0.00    +0.000 NA
ATOM     23  C   UNL     1       2.217   7.157  19.641  0.00  0.00    +0.000 A 
ATOM     24  N   UNL     1       3.006   7.018  18.563  0.00  0.00    +0.000 NA
BRANCH  20  25
ATOM     25  C   UNL     1       4.677   5.286  18.141  0.00  0.00    +0.000 C 
BRANCH  25  27
ATOM     26  O   UNL     1       6.470   5.215  19.710  0.00  0.00    +0.000 OA
ATOM     27  C   UNL     1       5.600   4.599  19.092  0.00  0.00    +0.000 C 
BRANCH  27  28
ATOM     28  O   UNL     1       5.378   3.290  19.336  0.00  0.00    +0.000 OA
ATOM     29  H   UNL     1       5.441   2.988  20.267  0.00  0.00    +0.000 HD
ENDBRANCH  27  28
ENDBRANCH  25  27
ENDBRANCH  20  25
ENDBRANCH   1  23
TORSDOF 4
ENDMDL
MODEL 4
REMARK VINA RESULT:      -7.3      3.170      3.919
REMARK  Name = 
REMARK  4 active torsions:
REMARK  status: ('A' for Active; 'I' for Inactive)
REMARK    1  A    between atoms: C_2  and  O_3
REMARK    2  A    between atoms: C_2  and  C_4
REMARK    3  A    between atoms: C_4  and  N_5
REMARK    4  A    between atoms: C_8  and  C_9
REMARK                            x       y       z     vdW  Elec       q    Type
REMARK                         _______ _______ _______ _____ _____    ______ ____
ROOT
ATOM      1  C   UNL     1       1.474   8.473  20.013  0.00  0.00    +0.000 A 
ATOM      2  C   UNL     1       1.178   9.480  19.132  0.00  0.00    +0.000 A 
ATOM      3  N   UNL     1       0.542  10.569  19.694  0.00  0.00    +0.000 NA
ATOM      4  C   UNL     1       0.336  10.383  20.983  0.00  0.00    +0.000 A 
ATOM      5  N   UNL     1      -0.284  11.320  21.752  0.00  0.00    +0.000 N 
ATOM      6  C   UNL     1      -0.531  12.601  21.106  0.00  0.00    +0.000 C 
ATOM      7  C   UNL     1      -1.194  13.552  22.074  0.00  0.00    +0.000 C 
ATOM      8  C   UNL     1      -2.540  12.949  22.540  0.00  0.00    +0.000 C 
ATOM      9  C   UNL     1      -3.481  12.913  21.330  0.00  0.00    +0.000 C 
ATOM     10  C   UNL     1      -4.245  14.013  21.243  0.00  0.00    +0.000 C 
ATOM     11  C   UNL     1      -4.031  14.781  22.456  0.00  0.00    +0.000 A 
ATOM     12  C   UNL     1      -4.480  16.045  22.778  0.00  0.00    +0.000 A 
ATOM     13  C   UNL     1      -4.201  16.530  24.057  0.00  0.00    +0.000 A 
ATOM     14  C   UNL     1      -3.523  15.731  24.994  0.00  0.00    +0.000 A 
ATOM     15  C   UNL     1      -3.010  14.479  24.637  0.00  0.00    +0.000 A 
ATOM     16  C   UNL     1      -3.221  14.043  23.339  0.00  0.00    +0.000 A 
ATOM     17  C   UNL     1      -2.321  11.558  23.170  0.00  0.00    +0.000 C 
ATOM     18  C   UNL     1      -0.857  11.068  23.073  0.00  0.00    +0.000 C 
ATOM     19  S   UNL     1       0.944   8.879  21.576  0.00  0.00    +0.000 S 
ENDROOT
BRANCH   1  23
ATOM     20  N   UNL     1       2.859   5.278  19.670  0.00  0.00    +0.000 N 
ATOM     21  N   UNL     1       3.257   5.764  18.481  0.00  0.00    +0.000 NA
ATOM     22  N   UNL     1       2.798   7.007  18.460  0.00  0.00    +0.000 NA
ATOM     23  C   UNL     1       2.191   7.225  19.674  0.00  0.00    +0.000 A 
ATOM     24  N   UNL     1       2.266   6.162  20.490  0.00  0.00    +0.000 NA
BRANCH  20  25
ATOM     25  C   UNL     1       2.832   3.858  19.905  0.00  0.00    +0.000 C 
BRANCH  25  27
ATOM     26  O   UNL     1       2.104   3.097  22.044  0.00  0.00    +0.000 OA
ATOM     27  C   UNL     1       1.798   3.462  20.907  0.00  0.00    +0.000 C 
BRANCH  27  28
ATOM     28  O   UNL     1       0.503   3.621  20.560  0.00  0.00    +0.000 OA
ATOM     29  H   UNL     1       0.176   3.107  19.792  0.00  0.00    +0.000 HD
ENDBRANCH  27  28
ENDBRANCH  25  27
ENDBRANCH  20  25
ENDBRANCH   1  23
TORSDOF 4
ENDMDL
MODEL 5
REMARK VINA RESULT:      -7.3      2.867      3.629
REMARK  Name = 
REMARK  4 active torsions:
REMARK  status: ('A' for Active; 'I' for Inactive)
REMARK    1  A    between atoms: C_2  and  O_3
REMARK    2  A    between atoms: C_2  and  C_4
REMARK    3  A    between atoms: C_4  and  N_5
REMARK    4  A    between atoms: C_8  and  C_9
REMARK                            x       y       z     vdW  Elec       q    Type
REMARK                         _______ _______ _______ _____ _____    ______ ____
ROOT
ATOM      1  C   UNL     1       1.515   8.383  19.990  0.00  0.00    +0.000 A 
ATOM      2  C   UNL     1       1.234   9.400  19.114  0.00  0.00    +0.000 A 
ATOM      3  N   UNL     1       0.614  10.495  19.682  0.00  0.00    +0.000 NA
ATOM      4  C   UNL     1       0.405  10.304  20.970  0.00  0.00    +0.000 A 
ATOM      5  N   UNL     1      -0.200  11.246  21.744  0.00  0.00    +0.000 N 
ATOM      6  C   UNL     1      -0.428  12.534  21.105  0.00  0.00    +0.000 C 
ATOM      7  C   UNL     1      -1.078  13.490  22.079  0.00  0.00    +0.000 C 
ATOM      8  C   UNL     1      -2.432  12.904  22.541  0.00  0.00    +0.000 C 
ATOM      9  C   UNL     1      -3.374  12.888  21.331  0.00  0.00    +0.000 C 
ATOM     10  C   UNL     1      -4.121  14.000  21.250  0.00  0.00    +0.000 C 
ATOM     11  C   UNL     1      -3.896  14.757  22.467  0.00  0.00    +0.000 A 
ATOM     12  C   UNL     1      -4.327  16.027  22.797  0.00  0.00    +0.000 A 
ATOM     13  C   UNL     1      -4.041  16.500  24.078  0.00  0.00    +0.000 A 
ATOM     14  C   UNL     1      -3.374  15.686  25.011  0.00  0.00    +0.000 A 
ATOM     15  C   UNL     1      -2.880  14.429  24.646  0.00  0.00    +0.000 A 
ATOM     16  C   UNL     1      -3.098  14.003  23.347  0.00  0.00    +0.000 A 
ATOM     17  C   UNL     1      -2.234  11.506  23.163  0.00  0.00    +0.000 C 
ATOM     18  C   UNL     1      -0.777  10.995  23.064  0.00  0.00    +0.000 C 
ATOM     19  S   UNL     1       0.992   8.788  21.555  0.00  0.00    +0.000 S 
ENDROOT
BRANCH   1  23
ATOM     20  N   UNL     1       2.722   5.139  19.477  0.00  0.00    +0.000 N 
ATOM     21  N   UNL     1       3.477   5.750  18.547  0.00  0.00    +0.000 NA
ATOM     22  N   UNL     1       3.129   7.026  18.621  0.00  0.00    +0.000 NA
ATOM     23  C   UNL     1       2.215   7.127  19.643  0.00  0.00    +0.000 A 
ATOM     24  N   UNL     1       1.980   5.951  20.247  0.00  0.00    +0.000 NA
BRANCH  20  25
ATOM     25  C   UNL     1       2.533   3.713  19.440  0.00  0.00    +0.000 C 
BRANCH  25  27
ATOM     26  O   UNL     1       0.838   2.255  18.611  0.00  0.00    +0.000 OA
ATOM     27  C   UNL     1       1.478   3.299  18.467  0.00  0.00    +0.000 C 
BRANCH  27  28
ATOM     28  O   UNL     1       1.170   4.164  17.479  0.00  0.00    +0.000 OA
ATOM     29  H   UNL     1       0.605   4.932  17.711  0.00  0.00    +0.000 HD
ENDBRANCH  27  28
ENDBRANCH  25  27
ENDBRANCH  20  25
ENDBRANCH   1  23
TORSDOF 4
ENDMDL
MODEL 6
REMARK VINA RESULT:      -7.2      2.144      2.922
REMARK  Name = 
REMARK  4 active torsions:
REMARK  status: ('A' for Active; 'I' for Inactive)
REMARK    1  A    between atoms: C_2  and  O_3
REMARK    2  A    between atoms: C_2  and  C_4
REMARK    3  A    between atoms: C_4  and  N_5
REMARK    4  A    between atoms: C_8  and  C_9
REMARK                            x       y       z     vdW  Elec       q    Type
REMARK                         _______ _______ _______ _____ _____    ______ ____
ROOT
ATOM      1  C   UNL     1       1.792   8.234  19.691  0.00  0.00    +0.000 A 
ATOM      2  C   UNL     1       1.545   9.299  18.864  0.00  0.00    +0.000 A 
ATOM      3  N   UNL     1       0.938  10.376  19.477  0.00  0.00    +0.000 NA
ATOM      4  C   UNL     1       0.704  10.125  20.751  0.00  0.00    +0.000 A 
ATOM      5  N   UNL     1       0.104  11.039  21.562  0.00  0.00    +0.000 N 
ATOM      6  C   UNL     1      -0.088  12.362  20.985  0.00  0.00    +0.000 C 
ATOM      7  C   UNL     1      -0.735  13.280  21.996  0.00  0.00    +0.000 C 
ATOM      8  C   UNL     1      -2.108  12.699  22.408  0.00  0.00    +0.000 C 
ATOM      9  C   UNL     1      -3.030  12.763  21.184  0.00  0.00    +0.000 C 
ATOM     10  C   UNL     1      -3.755  13.892  21.148  0.00  0.00    +0.000 C 
ATOM     11  C   UNL     1      -3.535  14.583  22.405  0.00  0.00    +0.000 A 
ATOM     12  C   UNL     1      -3.946  15.842  22.792  0.00  0.00    +0.000 A 
ATOM     13  C   UNL     1      -3.672  16.245  24.100  0.00  0.00    +0.000 A 
ATOM     14  C   UNL     1      -3.036  15.371  25.000  0.00  0.00    +0.000 A 
ATOM     15  C   UNL     1      -2.561  14.124  24.580  0.00  0.00    +0.000 A 
ATOM     16  C   UNL     1      -2.765  13.769  23.257  0.00  0.00    +0.000 A 
ATOM     17  C   UNL     1      -1.947  11.268  22.961  0.00  0.00    +0.000 C 
ATOM     18  C   UNL     1      -0.498  10.734  22.858  0.00  0.00    +0.000 C 
ATOM     19  S   UNL     1       1.251   8.570  21.266  0.00  0.00    +0.000 S 
ENDROOT
BRANCH   1  23
ATOM     20  N   UNL     1       3.132   5.034  19.235  0.00  0.00    +0.000 N 
ATOM     21  N   UNL     1       3.422   5.515  18.013  0.00  0.00    +0.000 NA
ATOM     22  N   UNL     1       2.967   6.759  18.029  0.00  0.00    +0.000 NA
ATOM     23  C   UNL     1       2.473   6.983  19.292  0.00  0.00    +0.000 A 
ATOM     24  N   UNL     1       2.619   5.922  20.102  0.00  0.00    +0.000 NA
BRANCH  20  25
ATOM     25  C   UNL     1       3.122   3.615  19.476  0.00  0.00    +0.000 C 
BRANCH  25  27
ATOM     26  O   UNL     1       4.743   2.104  20.356  0.00  0.00    +0.000 OA
ATOM     27  C   UNL     1       4.497   3.043  19.597  0.00  0.00    +0.000 C 
BRANCH  27  28
ATOM     28  O   UNL     1       5.443   3.520  18.762  0.00  0.00    +0.000 OA
ATOM     29  H   UNL     1       5.906   2.874  18.188  0.00  0.00    +0.000 HD
ENDBRANCH  27  28
ENDBRANCH  25  27
ENDBRANCH  20  25
ENDBRANCH   1  23
TORSDOF 4
ENDMDL
MODEL 7
REMARK VINA RESULT:      -7.1      5.439     10.687
REMARK  Name = 
REMARK  4 active torsions:
REMARK  status: ('A' for Active; 'I' for Inactive)
REMARK    1  A    between atoms: C_2  and  O_3
REMARK    2  A    between atoms: C_2  and  C_4
REMARK    3  A    between atoms: C_4  and  N_5
REMARK    4  A    between atoms: C_8  and  C_9
REMARK                            x       y       z     vdW  Elec       q    Type
REMARK                         _______ _______ _______ _____ _____    ______ ____
ROOT
ATOM      1  C   UNL     1      -0.436  10.547  22.025  0.00  0.00    +0.000 A 
ATOM      2  C   UNL     1      -0.451   9.267  22.517  0.00  0.00    +0.000 A 
ATOM      3  N   UNL     1       0.383   8.387  21.857  0.00  0.00    +0.000 NA
ATOM      4  C   UNL     1       1.009   8.984  20.862  0.00  0.00    +0.000 A 
ATOM      5  N   UNL     1       1.882   8.314  20.061  0.00  0.00    +0.000 N 
ATOM      6  C   UNL     1       2.217   6.962  20.487  0.00  0.00    +0.000 C 
ATOM      7  C   UNL     1       3.211   6.347  19.529  0.00  0.00    +0.000 C 
ATOM      8  C   UNL     1       2.590   6.296  18.114  0.00  0.00    +0.000 C 
ATOM      9  C   UNL     1       1.423   5.301  18.149  0.00  0.00    +0.000 C 
ATOM     10  C   UNL     1       1.798   4.061  17.801  0.00  0.00    +0.000 C 
ATOM     11  C   UNL     1       3.168   4.143  17.329  0.00  0.00    +0.000 A 
ATOM     12  C   UNL     1       4.037   3.125  16.991  0.00  0.00    +0.000 A 
ATOM     13  C   UNL     1       5.287   3.477  16.481  0.00  0.00    +0.000 A 
ATOM     14  C   UNL     1       5.625   4.827  16.280  0.00  0.00    +0.000 A 
ATOM     15  C   UNL     1       4.767   5.854  16.691  0.00  0.00    +0.000 A 
ATOM     16  C   UNL     1       3.562   5.493  17.272  0.00  0.00    +0.000 A 
ATOM     17  C   UNL     1       2.161   7.706  17.658  0.00  0.00    +0.000 C 
ATOM     18  C   UNL     1       2.343   8.782  18.756  0.00  0.00    +0.000 C 
ATOM     19  S   UNL     1       0.632  10.662  20.709  0.00  0.00    +0.000 S 
ENDROOT
BRANCH   1  23
ATOM     20  N   UNL     1      -2.684  12.829  23.433  0.00  0.00    +0.000 N 
ATOM     21  N   UNL     1      -1.585  13.597  23.523  0.00  0.00    +0.000 NA
ATOM     22  N   UNL     1      -0.616  12.852  23.011  0.00  0.00    +0.000 NA
ATOM     23  C   UNL     1      -1.200  11.684  22.582  0.00  0.00    +0.000 A 
ATOM     24  N   UNL     1      -2.528  11.664  22.782  0.00  0.00    +0.000 NA
BRANCH  20  25
ATOM     25  C   UNL     1      -3.850  13.129  24.222  0.00  0.00    +0.000 C 
BRANCH  25  27
ATOM     26  O   UNL     1      -4.621  15.380  24.067  0.00  0.00    +0.000 OA
ATOM     27  C   UNL     1      -3.904  14.561  24.645  0.00  0.00    +0.000 C 
BRANCH  27  28
ATOM     28  O   UNL     1      -3.220  14.906  25.756  0.00  0.00    +0.000 OA
ATOM     29  H   UNL     1      -3.742  15.149  26.549  0.00  0.00    +0.000 HD
ENDBRANCH  27  28
ENDBRANCH  25  27
ENDBRANCH  20  25
ENDBRANCH   1  23
TORSDOF 4
ENDMDL
MODEL 8
REMARK VINA RESULT:      -7.1      5.047     10.460
REMARK  Name = 
REMARK  4 active torsions:
REMARK  status: ('A' for Active; 'I' for Inactive)
REMARK    1  A    between atoms: C_2  and  O_3
REMARK    2  A    between atoms: C_2  and  C_4
REMARK    3  A    between atoms: C_4  and  N_5
REMARK    4  A    between atoms: C_8  and  C_9
REMARK                            x       y       z     vdW  Elec       q    Type
REMARK                         _______ _______ _______ _____ _____    ______ ____
ROOT
ATOM      1  C   UNL     1      -0.781  10.807  21.505  0.00  0.00    +0.000 A 
ATOM      2  C   UNL     1      -0.710   9.574  22.100  0.00  0.00    +0.000 A 
ATOM      3  N   UNL     1       0.201   8.709  21.526  0.00  0.00    +0.000 NA
ATOM      4  C   UNL     1       0.799   9.270  20.493  0.00  0.00    +0.000 A 
ATOM      5  N   UNL     1       1.736   8.606  19.762  0.00  0.00    +0.000 N 
ATOM      6  C   UNL     1       2.164   7.324  20.302  0.00  0.00    +0.000 C 
ATOM      7  C   UNL     1       3.220   6.711  19.411  0.00  0.00    +0.000 C 
ATOM      8  C   UNL     1       2.633   6.498  17.996  0.00  0.00    +0.000 C 
ATOM      9  C   UNL     1       1.543   5.423  18.097  0.00  0.00    +0.000 C 
ATOM     10  C   UNL     1       2.017   4.191  17.857  0.00  0.00    +0.000 C 
ATOM     11  C   UNL     1       3.386   4.340  17.399  0.00  0.00    +0.000 A 
ATOM     12  C   UNL     1       4.335   3.367  17.157  0.00  0.00    +0.000 A 
ATOM     13  C   UNL     1       5.565   3.772  16.636  0.00  0.00    +0.000 A 
ATOM     14  C   UNL     1       5.804   5.124  16.330  0.00  0.00    +0.000 A 
ATOM     15  C   UNL     1       4.863   6.111  16.644  0.00  0.00    +0.000 A 
ATOM     16  C   UNL     1       3.679   5.707  17.236  0.00  0.00    +0.000 A 
ATOM     17  C   UNL     1       2.107   7.830  17.421  0.00  0.00    +0.000 C 
ATOM     18  C   UNL     1       2.186   9.002  18.429  0.00  0.00    +0.000 C 
ATOM     19  S   UNL     1       0.301  10.897  20.198  0.00  0.00    +0.000 S 
ENDROOT
BRANCH   1  23
ATOM     20  N   UNL     1      -2.720  13.225  23.130  0.00  0.00    +0.000 N 
ATOM     21  N   UNL     1      -2.614  13.858  21.949  0.00  0.00    +0.000 NA
ATOM     22  N   UNL     1      -1.887  13.043  21.198  0.00  0.00    +0.000 NA
ATOM     23  C   UNL     1      -1.640  11.923  21.956  0.00  0.00    +0.000 A 
ATOM     24  N   UNL     1      -2.209  11.983  23.171  0.00  0.00    +0.000 NA
BRANCH  20  25
ATOM     25  C   UNL     1      -3.104  13.948  24.313  0.00  0.00    +0.000 C 
BRANCH  25  27
ATOM     26  O   UNL     1      -2.238  15.686  25.697  0.00  0.00    +0.000 OA
ATOM     27  C   UNL     1      -2.034  14.873  24.793  0.00  0.00    +0.000 C 
BRANCH  27  28
ATOM     28  O   UNL     1      -0.798  14.715  24.275  0.00  0.00    +0.000 OA
ATOM     29  H   UNL     1      -0.229  14.022  24.671  0.00  0.00    +0.000 HD
ENDBRANCH  27  28
ENDBRANCH  25  27
ENDBRANCH  20  25
ENDBRANCH   1  23
TORSDOF 4
ENDMDL
MODEL 9
REMARK VINA RESULT:      -7.1      2.138      2.407
REMARK  Name = 
REMARK  4 active torsions:
REMARK  status: ('A' for Active; 'I' for Inactive)
REMARK    1  A    between atoms: C_2  and  O_3
REMARK    2  A    between atoms: C_2  and  C_4
REMARK    3  A    between atoms: C_4  and  N_5
REMARK    4  A    between atoms: C_8  and  C_9
REMARK                            x       y       z     vdW  Elec       q    Type
REMARK                         _______ _______ _______ _____ _____    ______ ____
ROOT
ATOM      1  C   UNL     1       2.133   7.511  18.887  0.00  0.00    +0.000 A 
ATOM      2  C   UNL     1       1.850   8.535  18.021  0.00  0.00    +0.000 A 
ATOM      3  N   UNL     1       1.364   9.679  18.621  0.00  0.00    +0.000 NA
ATOM      4  C   UNL     1       1.258   9.521  19.926  0.00  0.00    +0.000 A 
ATOM      5  N   UNL     1       0.794  10.514  20.733  0.00  0.00    +0.000 N 
ATOM      6  C   UNL     1       0.605  11.808  20.092  0.00  0.00    +0.000 C 
ATOM      7  C   UNL     1       0.116  12.821  21.102  0.00  0.00    +0.000 C 
ATOM      8  C   UNL     1      -1.230  12.342  21.693  0.00  0.00    +0.000 C 
ATOM      9  C   UNL     1      -2.275  12.382  20.572  0.00  0.00    +0.000 C 
ATOM     10  C   UNL     1      -2.944  13.544  20.536  0.00  0.00    +0.000 C 
ATOM     11  C   UNL     1      -2.557  14.298  21.714  0.00  0.00    +0.000 A 
ATOM     12  C   UNL     1      -2.863  15.600  22.057  0.00  0.00    +0.000 A 
ATOM     13  C   UNL     1      -2.429  16.066  23.299  0.00  0.00    +0.000 A 
ATOM     14  C   UNL     1      -1.742  15.216  24.184  0.00  0.00    +0.000 A 
ATOM     15  C   UNL     1      -1.376  13.922  23.801  0.00  0.00    +0.000 A 
ATOM     16  C   UNL     1      -1.739  13.497  22.534  0.00  0.00    +0.000 A 
ATOM     17  C   UNL     1      -1.080  10.942  22.322  0.00  0.00    +0.000 C 
ATOM     18  C   UNL     1       0.322  10.323  22.103  0.00  0.00    +0.000 C 
ATOM     19  S   UNL     1       1.783   7.973  20.485  0.00  0.00    +0.000 S 
ENDROOT
BRANCH   1  23
ATOM     20  N   UNL     1       3.916   4.541  18.392  0.00  0.00    +0.000 N 
ATOM     21  N   UNL     1       2.790   4.170  17.759  0.00  0.00    +0.000 NA
ATOM     22  N   UNL     1       1.990   5.222  17.859  0.00  0.00    +0.000 NA
ATOM     23  C   UNL     1       2.706   6.202  18.504  0.00  0.00    +0.000 A 
ATOM     24  N   UNL     1       3.958   5.819  18.803  0.00  0.00    +0.000 NA
BRANCH  20  25
ATOM     25  C   UNL     1       4.867   3.552  18.827  0.00  0.00    +0.000 C 
BRANCH  25  27
ATOM     26  O   UNL     1       5.023   1.806  20.443  0.00  0.00    +0.000 OA
ATOM     27  C   UNL     1       4.359   2.727  19.963  0.00  0.00    +0.000 C 
BRANCH  27  28
ATOM     28  O   UNL     1       3.187   3.095  20.521  0.00  0.00    +0.000 OA
ATOM     29  H   UNL     1       2.796   3.946  20.231  0.00  0.00    +0.000 HD
ENDBRANCH  27  28
ENDBRANCH  25  27
ENDBRANCH  20  25
ENDBRANCH   1  23
TORSDOF 4
ENDMDL
