MODEL 1
REMARK VINA RESULT:      -8.4      0.000      0.000
REMARK  Name = 
REMARK  10 active torsions:
REMARK  status: ('A' for Active; 'I' for Inactive)
REMARK    1  A    between atoms: C_1  and  C_2
REMARK    2  A    between atoms: C_6  and  S_7
REMARK    3  A    between atoms: S_7  and  N_10
REMARK    4  A    between atoms: N_10  and  C_11
REMARK    5  A    between atoms: C_11  and  C_12
REMARK    6  A    between atoms: C_12  and  C_13
REMARK    7  A    between atoms: C_13  and  C_14
REMARK    8  A    between atoms: C_14  and  N_15
REMARK    9  A    between atoms: C_18  and  C_19
REMARK   10  A    between atoms: C_20  and  C_21
REMARK                            x       y       z     vdW  Elec       q    Type
REMARK                         _______ _______ _______ _____ _____    ______ ____
ROOT
ATOM      1  N   UNL     1       2.427   7.516  19.448  0.00  0.00    +0.000 NA
ATOM      2  C   UNL     1       2.162   7.926  18.056  0.00  0.00    +0.000 C 
ATOM      3  C   UNL     1       1.455   9.221  17.894  0.00  0.00    +0.000 C 
ATOM      4  C   UNL     1       0.936   9.906  18.927  0.00  0.00    +0.000 C 
ATOM      5  C   UNL     1       1.033   9.369  20.328  0.00  0.00    +0.000 C 
ATOM      6  C   UNL     1       1.303   7.857  20.336  0.00  0.00    +0.000 C 
ENDROOT
BRANCH   4   7
ATOM      7  C   UNL     1       0.232  11.126  18.789  0.00  0.00    +0.000 A 
ATOM      8  C   UNL     1      -1.096  11.240  18.438  0.00  0.00    +0.000 A 
ATOM      9  C   UNL     1      -2.129  10.212  18.137  0.00  0.00    +0.000 C 
ATOM     10  N   UNL     1      -1.376  12.584  18.371  0.00  0.00    +0.000 N 
ATOM     11  C   UNL     1      -0.263  13.331  18.700  0.00  0.00    +0.000 A 
ATOM     12  C   UNL     1      -0.088  14.719  18.760  0.00  0.00    +0.000 A 
ATOM     13  C   UNL     1       1.171  15.197  19.138  0.00  0.00    +0.000 A 
ATOM     14  C   UNL     1       2.206  14.318  19.445  0.00  0.00    +0.000 A 
ATOM     15 CL   UNL     1       3.741  14.942  19.917  0.00  0.00    +0.000 Cl
ATOM     16  C   UNL     1       2.023  12.935  19.373  0.00  0.00    +0.000 A 
ATOM     17  C   UNL     1       0.763  12.434  18.987  0.00  0.00    +0.000 A 
ATOM     18  H   UNL     1      -2.271  12.976  18.117  0.00  0.00    +0.000 HD
ENDBRANCH   4   7
BRANCH   1  19
ATOM     19  C   UNL     1       2.739   6.084  19.510  0.00  0.00    +0.000 C 
BRANCH  19  20
ATOM     20  C   UNL     1       3.019   5.504  18.110  0.00  0.00    +0.000 C 
BRANCH  20  21
ATOM     21  C   UNL     1       4.174   4.493  18.091  0.00  0.00    +0.000 C 
BRANCH  21  22
ATOM     22  C   UNL     1       4.309   3.914  16.693  0.00  0.00    +0.000 C 
BRANCH  22  23
ATOM     23  N   UNL     1       5.710   3.725  16.320  0.00  0.00    +0.000 NA
ATOM     24  H   UNL     1       6.302   3.341  17.054  0.00  0.00    +0.000 HD
BRANCH  23  25
ATOM     25  S   UNL     1       6.415   5.094  15.595  0.00  0.00    +0.000 S 
ATOM     26  O   UNL     1       5.354   5.944  15.100  0.00  0.00    +0.000 OA
ATOM     27  O   UNL     1       7.491   4.628  14.754  0.00  0.00    +0.000 OA
BRANCH  25  33
ATOM     28  C   UNL     1       8.312   9.353  18.079  0.00  0.00    +0.000 C 
ATOM     29  C   UNL     1       8.025   7.880  18.087  0.00  0.00    +0.000 A 
ATOM     30  C   UNL     1       8.396   7.087  19.183  0.00  0.00    +0.000 A 
ATOM     31  C   UNL     1       8.150   5.713  19.186  0.00  0.00    +0.000 A 
ATOM     32  C   UNL     1       7.539   5.113  18.089  0.00  0.00    +0.000 A 
ATOM     33  C   UNL     1       7.166   5.898  16.994  0.00  0.00    +0.000 A 
ATOM     34  C   UNL     1       7.397   7.278  16.987  0.00  0.00    +0.000 A 
ENDBRANCH  25  33
ENDBRANCH  23  25
ENDBRANCH  22  23
ENDBRANCH  21  22
ENDBRANCH  20  21
ENDBRANCH  19  20
ENDBRANCH   1  19
TORSDOF 8
ENDMDL
MODEL 2
REMARK VINA RESULT:      -8.4      2.259      2.936
REMARK  Name = 
REMARK  10 active torsions:
REMARK  status: ('A' for Active; 'I' for Inactive)
REMARK    1  A    between atoms: C_1  and  C_2
REMARK    2  A    between atoms: C_6  and  S_7
REMARK    3  A    between atoms: S_7  and  N_10
REMARK    4  A    between atoms: N_10  and  C_11
REMARK    5  A    between atoms: C_11  and  C_12
REMARK    6  A    between atoms: C_12  and  C_13
REMARK    7  A    between atoms: C_13  and  C_14
REMARK    8  A    between atoms: C_14  and  N_15
REMARK    9  A    between atoms: C_18  and  C_19
REMARK   10  A    between atoms: C_20  and  C_21
REMARK                            x       y       z     vdW  Elec       q    Type
REMARK                         _______ _______ _______ _____ _____    ______ ____
ROOT
ATOM      1  N   UNL     1       2.363   7.654  19.543  0.00  0.00    +0.000 NA
ATOM      2  C   UNL     1       2.169   8.040  18.133  0.00  0.00    +0.000 C 
ATOM      3  C   UNL     1       1.462   9.327  17.914  0.00  0.00    +0.000 C 
ATOM      4  C   UNL     1       0.886  10.024  18.907  0.00  0.00    +0.000 C 
ATOM      5  C   UNL     1       0.913   9.510  20.320  0.00  0.00    +0.000 C 
ATOM      6  C   UNL     1       1.193   8.001  20.366  0.00  0.00    +0.000 C 
ENDROOT
BRANCH   4   7
ATOM      7  C   UNL     1       0.182  11.237  18.713  0.00  0.00    +0.000 A 
ATOM      8  C   UNL     1      -1.117  11.336  18.262  0.00  0.00    +0.000 A 
ATOM      9  C   UNL     1      -2.113  10.297  17.884  0.00  0.00    +0.000 C 
ATOM     10  N   UNL     1      -1.404  12.677  18.171  0.00  0.00    +0.000 N 
ATOM     11  C   UNL     1      -0.328  13.436  18.582  0.00  0.00    +0.000 A 
ATOM     12  C   UNL     1      -0.173  14.826  18.653  0.00  0.00    +0.000 A 
ATOM     13  C   UNL     1       1.048  15.318  19.125  0.00  0.00    +0.000 A 
ATOM     14  C   UNL     1       2.066  14.450  19.513  0.00  0.00    +0.000 A 
ATOM     15 CL   UNL     1       3.554  15.090  20.100  0.00  0.00    +0.000 Cl
ATOM     16  C   UNL     1       1.903  13.065  19.430  0.00  0.00    +0.000 A 
ATOM     17  C   UNL     1       0.682  12.550  18.949  0.00  0.00    +0.000 A 
ATOM     18  H   UNL     1      -2.281  13.060  17.848  0.00  0.00    +0.000 HD
ENDBRANCH   4   7
BRANCH   1  19
ATOM     19  C   UNL     1       2.681   6.225  19.645  0.00  0.00    +0.000 C 
BRANCH  19  20
ATOM     20  C   UNL     1       1.619   5.466  20.464  0.00  0.00    +0.000 C 
BRANCH  20  21
ATOM     21  C   UNL     1       2.220   4.433  21.428  0.00  0.00    +0.000 C 
BRANCH  21  22
ATOM     22  C   UNL     1       2.026   3.040  20.855  0.00  0.00    +0.000 C 
BRANCH  22  23
ATOM     23  N   UNL     1       3.269   2.505  20.303  0.00  0.00    +0.000 NA
ATOM     24  H   UNL     1       4.113   2.997  20.590  0.00  0.00    +0.000 HD
BRANCH  23  25
ATOM     25  S   UNL     1       3.222   2.267  18.618  0.00  0.00    +0.000 S 
ATOM     26  O   UNL     1       1.889   2.579  18.151  0.00  0.00    +0.000 OA
ATOM     27  O   UNL     1       3.863   1.002  18.346  0.00  0.00    +0.000 OA
BRANCH  25  33
ATOM     28  C   UNL     1       7.244   5.627  19.289  0.00  0.00    +0.000 C 
ATOM     29  C   UNL     1       6.174   5.061  18.402  0.00  0.00    +0.000 A 
ATOM     30  C   UNL     1       5.981   5.565  17.106  0.00  0.00    +0.000 A 
ATOM     31  C   UNL     1       4.973   5.056  16.285  0.00  0.00    +0.000 A 
ATOM     32  C   UNL     1       4.139   4.045  16.752  0.00  0.00    +0.000 A 
ATOM     33  C   UNL     1       4.327   3.538  18.042  0.00  0.00    +0.000 A 
ATOM     34  C   UNL     1       5.342   4.033  18.868  0.00  0.00    +0.000 A 
ENDBRANCH  25  33
ENDBRANCH  23  25
ENDBRANCH  22  23
ENDBRANCH  21  22
ENDBRANCH  20  21
ENDBRANCH  19  20
ENDBRANCH   1  19
TORSDOF 8
ENDMDL
MODEL 3
REMARK VINA RESULT:      -8.2      2.308      3.104
REMARK  Name = 
REMARK  10 active torsions:
REMARK  status: ('A' for Active; 'I' for Inactive)
REMARK    1  A    between atoms: C_1  and  C_2
REMARK    2  A    between atoms: C_6  and  S_7
REMARK    3  A    between atoms: S_7  and  N_10
REMARK    4  A    between atoms: N_10  and  C_11
REMARK    5  A    between atoms: C_11  and  C_12
REMARK    6  A    between atoms: C_12  and  C_13
REMARK    7  A    between atoms: C_13  and  C_14
REMARK    8  A    between atoms: C_14  and  N_15
REMARK    9  A    between atoms: C_18  and  C_19
REMARK   10  A    between atoms: C_20  and  C_21
REMARK                            x       y       z     vdW  Elec       q    Type
REMARK                         _______ _______ _______ _____ _____    ______ ____
ROOT
ATOM      1  N   UNL     1       1.758   7.637  19.350  0.00  0.00    +0.000 NA
ATOM      2  C   UNL     1       1.382   8.375  20.571  0.00  0.00    +0.000 C 
ATOM      3  C   UNL     1       0.839   9.739  20.351  0.00  0.00    +0.000 C 
ATOM      4  C   UNL     1       0.838  10.342  19.151  0.00  0.00    +0.000 C 
ATOM      5  C   UNL     1       1.419   9.653  17.946  0.00  0.00    +0.000 C 
ATOM      6  C   UNL     1       2.377   8.523  18.351  0.00  0.00    +0.000 C 
ENDROOT
BRANCH   4   7
ATOM      7  C   UNL     1       0.354  11.654  18.928  0.00  0.00    +0.000 A 
ATOM      8  C   UNL     1      -0.915  11.967  18.490  0.00  0.00    +0.000 A 
ATOM      9  C   UNL     1      -2.085  11.109  18.158  0.00  0.00    +0.000 C 
ATOM     10  N   UNL     1      -0.964  13.335  18.360  0.00  0.00    +0.000 N 
ATOM     11  C   UNL     1       0.237  13.904  18.734  0.00  0.00    +0.000 A 
ATOM     12  C   UNL     1       0.635  15.246  18.758  0.00  0.00    +0.000 A 
ATOM     13  C   UNL     1       1.932  15.528  19.199  0.00  0.00    +0.000 A 
ATOM     14  C   UNL     1       2.788  14.506  19.601  0.00  0.00    +0.000 A 
ATOM     15 CL   UNL     1       4.376  14.892  20.148  0.00  0.00    +0.000 Cl
ATOM     16  C   UNL     1       2.383  13.170  19.564  0.00  0.00    +0.000 A 
ATOM     17  C   UNL     1       1.082  12.865  19.115  0.00  0.00    +0.000 A 
ATOM     18  H   UNL     1      -1.766  13.856  18.036  0.00  0.00    +0.000 HD
ENDBRANCH   4   7
BRANCH   1  19
ATOM     19  C   UNL     1       2.639   6.512  19.682  0.00  0.00    +0.000 C 
BRANCH  19  20
ATOM     20  C   UNL     1       1.834   5.272  20.118  0.00  0.00    +0.000 C 
BRANCH  20  21
ATOM     21  C   UNL     1       2.422   4.567  21.348  0.00  0.00    +0.000 C 
BRANCH  21  22
ATOM     22  C   UNL     1       2.363   3.063  21.140  0.00  0.00    +0.000 C 
BRANCH  22  23
ATOM     23  N   UNL     1       2.460   2.710  19.726  0.00  0.00    +0.000 NA
ATOM     24  H   UNL     1       1.726   2.092  19.386  0.00  0.00    +0.000 HD
BRANCH  23  25
ATOM     25  S   UNL     1       4.005   2.166  19.262  0.00  0.00    +0.000 S 
ATOM     26  O   UNL     1       3.841   1.101  18.296  0.00  0.00    +0.000 OA
ATOM     27  O   UNL     1       4.785   2.008  20.466  0.00  0.00    +0.000 OA
BRANCH  25  33
ATOM     28  C   UNL     1       7.452   6.136  18.741  0.00  0.00    +0.000 C 
ATOM     29  C   UNL     1       6.254   5.395  18.223  0.00  0.00    +0.000 A 
ATOM     30  C   UNL     1       5.576   5.847  17.081  0.00  0.00    +0.000 A 
ATOM     31  C   UNL     1       4.448   5.174  16.607  0.00  0.00    +0.000 A 
ATOM     32  C   UNL     1       3.979   4.047  17.275  0.00  0.00    +0.000 A 
ATOM     33  C   UNL     1       4.651   3.592  18.413  0.00  0.00    +0.000 A 
ATOM     34  C   UNL     1       5.788   4.253  18.889  0.00  0.00    +0.000 A 
ENDBRANCH  25  33
ENDBRANCH  23  25
ENDBRANCH  22  23
ENDBRANCH  21  22
ENDBRANCH  20  21
ENDBRANCH  19  20
ENDBRANCH   1  19
TORSDOF 8
ENDMDL
MODEL 4
REMARK VINA RESULT:      -8.2      2.401      2.900
REMARK  Name = 
REMARK  10 active torsions:
REMARK  status: ('A' for Active; 'I' for Inactive)
REMARK    1  A    between atoms: C_1  and  C_2
REMARK    2  A    between atoms: C_6  and  S_7
REMARK    3  A    between atoms: S_7  and  N_10
REMARK    4  A    between atoms: N_10  and  C_11
REMARK    5  A    between atoms: C_11  and  C_12
REMARK    6  A    between atoms: C_12  and  C_13
REMARK    7  A    between atoms: C_13  and  C_14
REMARK    8  A    between atoms: C_14  and  N_15
REMARK    9  A    between atoms: C_18  and  C_19
REMARK   10  A    between atoms: C_20  and  C_21
REMARK                            x       y       z     vdW  Elec       q    Type
REMARK                         _______ _______ _______ _____ _____    ______ ____
ROOT
ATOM      1  N   UNL     1       2.190   7.822  19.324  0.00  0.00    +0.000 NA
ATOM      2  C   UNL     1       2.084   8.369  17.958  0.00  0.00    +0.000 C 
ATOM      3  C   UNL     1       1.528   9.743  17.862  0.00  0.00    +0.000 C 
ATOM      4  C   UNL     1       0.998  10.394  18.910  0.00  0.00    +0.000 C 
ATOM      5  C   UNL     1       0.923   9.738  20.261  0.00  0.00    +0.000 C 
ATOM      6  C   UNL     1       1.037   8.210  20.154  0.00  0.00    +0.000 C 
ENDROOT
BRANCH   4   7
ATOM      7  C   UNL     1       0.434  11.690  18.830  0.00  0.00    +0.000 A 
ATOM      8  C   UNL     1      -0.882  11.965  18.527  0.00  0.00    +0.000 A 
ATOM      9  C   UNL     1      -2.035  11.072  18.231  0.00  0.00    +0.000 C 
ATOM     10  N   UNL     1      -1.007  13.334  18.507  0.00  0.00    +0.000 N 
ATOM     11  C   UNL     1       0.194  13.938  18.820  0.00  0.00    +0.000 A 
ATOM     12  C   UNL     1       0.528  15.295  18.913  0.00  0.00    +0.000 A 
ATOM     13  C   UNL     1       1.844  15.614  19.262  0.00  0.00    +0.000 A 
ATOM     14  C   UNL     1       2.781  14.613  19.510  0.00  0.00    +0.000 A 
ATOM     15 CL   UNL     1       4.391  15.043  19.948  0.00  0.00    +0.000 Cl
ATOM     16  C   UNL     1       2.438  13.264  19.405  0.00  0.00    +0.000 A 
ATOM     17  C   UNL     1       1.117  12.922  19.047  0.00  0.00    +0.000 A 
ATOM     18  H   UNL     1      -1.858  13.834  18.293  0.00  0.00    +0.000 HD
ENDBRANCH   4   7
BRANCH   1  19
ATOM     19  C   UNL     1       2.349   6.364  19.282  0.00  0.00    +0.000 C 
BRANCH  19  20
ATOM     20  C   UNL     1       2.105   5.728  20.664  0.00  0.00    +0.000 C 
BRANCH  20  21
ATOM     21  C   UNL     1       1.140   4.535  20.622  0.00  0.00    +0.000 C 
BRANCH  21  22
ATOM     22  C   UNL     1       1.345   3.770  19.325  0.00  0.00    +0.000 C 
BRANCH  22  23
ATOM     23  N   UNL     1       2.129   2.554  19.533  0.00  0.00    +0.000 NA
ATOM     24  H   UNL     1       2.663   2.530  20.400  0.00  0.00    +0.000 HD
BRANCH  23  25
ATOM     25  S   UNL     1       3.083   2.118  18.194  0.00  0.00    +0.000 S 
ATOM     26  O   UNL     1       2.237   2.096  17.020  0.00  0.00    +0.000 OA
ATOM     27  O   UNL     1       3.888   0.987  18.590  0.00  0.00    +0.000 OA
BRANCH  25  33
ATOM     28  C   UNL     1       5.316   6.076  15.500  0.00  0.00    +0.000 C 
ATOM     29  C   UNL     1       5.178   5.309  16.783  0.00  0.00    +0.000 A 
ATOM     30  C   UNL     1       5.960   5.640  17.899  0.00  0.00    +0.000 A 
ATOM     31  C   UNL     1       5.850   4.916  19.088  0.00  0.00    +0.000 A 
ATOM     32  C   UNL     1       4.965   3.846  19.171  0.00  0.00    +0.000 A 
ATOM     33  C   UNL     1       4.182   3.512  18.062  0.00  0.00    +0.000 A 
ATOM     34  C   UNL     1       4.277   4.239  16.871  0.00  0.00    +0.000 A 
ENDBRANCH  25  33
ENDBRANCH  23  25
ENDBRANCH  22  23
ENDBRANCH  21  22
ENDBRANCH  20  21
ENDBRANCH  19  20
ENDBRANCH   1  19
TORSDOF 8
ENDMDL
MODEL 5
REMARK VINA RESULT:      -8.1      3.151      4.516
REMARK  Name = 
REMARK  10 active torsions:
REMARK  status: ('A' for Active; 'I' for Inactive)
REMARK    1  A    between atoms: C_1  and  C_2
REMARK    2  A    between atoms: C_6  and  S_7
REMARK    3  A    between atoms: S_7  and  N_10
REMARK    4  A    between atoms: N_10  and  C_11
REMARK    5  A    between atoms: C_11  and  C_12
REMARK    6  A    between atoms: C_12  and  C_13
REMARK    7  A    between atoms: C_13  and  C_14
REMARK    8  A    between atoms: C_14  and  N_15
REMARK    9  A    between atoms: C_18  and  C_19
REMARK   10  A    between atoms: C_20  and  C_21
REMARK                            x       y       z     vdW  Elec       q    Type
REMARK                         _______ _______ _______ _____ _____    ______ ____
ROOT
ATOM      1  N   UNL     1       2.671   7.152  18.547  0.00  0.00    +0.000 NA
ATOM      2  C   UNL     1       2.149   7.296  19.920  0.00  0.00    +0.000 C 
ATOM      3  C   UNL     1       1.074   8.306  20.092  0.00  0.00    +0.000 C 
ATOM      4  C   UNL     1       0.704   9.155  19.120  0.00  0.00    +0.000 C 
ATOM      5  C   UNL     1       1.392   9.135  17.782  0.00  0.00    +0.000 C 
ATOM      6  C   UNL     1       2.766   8.453  17.865  0.00  0.00    +0.000 C 
ENDROOT
BRANCH   4   7
ATOM      7  C   UNL     1      -0.296  10.144  19.275  0.00  0.00    +0.000 A 
ATOM      8  C   UNL     1      -0.395  11.011  20.343  0.00  0.00    +0.000 A 
ATOM      9  C   UNL     1       0.449  11.183  21.556  0.00  0.00    +0.000 C 
ATOM     10  N   UNL     1      -1.520  11.772  20.134  0.00  0.00    +0.000 N 
ATOM     11  C   UNL     1      -2.125  11.431  18.941  0.00  0.00    +0.000 A 
ATOM     12  C   UNL     1      -3.282  11.936  18.335  0.00  0.00    +0.000 A 
ATOM     13  C   UNL     1      -3.656  11.394  17.101  0.00  0.00    +0.000 A 
ATOM     14  C   UNL     1      -2.898  10.391  16.503  0.00  0.00    +0.000 A 
ATOM     15 CL   UNL     1      -3.382   9.752  14.978  0.00  0.00    +0.000 Cl
ATOM     16  C   UNL     1      -1.751   9.888  17.121  0.00  0.00    +0.000 A 
ATOM     17  C   UNL     1      -1.361  10.417  18.369  0.00  0.00    +0.000 A 
ATOM     18  H   UNL     1      -1.861  12.485  20.763  0.00  0.00    +0.000 HD
ENDBRANCH   4   7
BRANCH   1  19
ATOM     19  C   UNL     1       3.965   6.462  18.560  0.00  0.00    +0.000 C 
BRANCH  19  20
ATOM     20  C   UNL     1       3.940   5.230  19.487  0.00  0.00    +0.000 C 
BRANCH  20  21
ATOM     21  C   UNL     1       4.561   3.979  18.852  0.00  0.00    +0.000 C 
BRANCH  21  22
ATOM     22  C   UNL     1       4.423   4.063  17.341  0.00  0.00    +0.000 C 
BRANCH  22  23
ATOM     23  N   UNL     1       5.606   3.540  16.661  0.00  0.00    +0.000 NA
ATOM     24  H   UNL     1       6.039   2.735  17.109  0.00  0.00    +0.000 HD
BRANCH  23  25
ATOM     25  S   UNL     1       6.754   4.735  16.270  0.00  0.00    +0.000 S 
ATOM     26  O   UNL     1       8.029   4.341  16.830  0.00  0.00    +0.000 OA
ATOM     27  O   UNL     1       6.150   6.017  16.545  0.00  0.00    +0.000 OA
BRANCH  25  33
ATOM     28  C   UNL     1       5.367   2.500  11.688  0.00  0.00    +0.000 C 
ATOM     29  C   UNL     1       6.183   3.519  12.428  0.00  0.00    +0.000 A 
ATOM     30  C   UNL     1       7.090   4.341  11.742  0.00  0.00    +0.000 A 
ATOM     31  C   UNL     1       7.867   5.276  12.429  0.00  0.00    +0.000 A 
ATOM     32  C   UNL     1       7.753   5.394  13.811  0.00  0.00    +0.000 A 
ATOM     33  C   UNL     1       6.851   4.579  14.500  0.00  0.00    +0.000 A 
ATOM     34  C   UNL     1       6.059   3.648  13.819  0.00  0.00    +0.000 A 
ENDBRANCH  25  33
ENDBRANCH  23  25
ENDBRANCH  22  23
ENDBRANCH  21  22
ENDBRANCH  20  21
ENDBRANCH  19  20
ENDBRANCH   1  19
TORSDOF 8
ENDMDL
MODEL 6
REMARK VINA RESULT:      -8.0      1.895      2.829
REMARK  Name = 
REMARK  10 active torsions:
REMARK  status: ('A' for Active; 'I' for Inactive)
REMARK    1  A    between atoms: C_1  and  C_2
REMARK    2  A    between atoms: C_6  and  S_7
REMARK    3  A    between atoms: S_7  and  N_10
REMARK    4  A    between atoms: N_10  and  C_11
REMARK    5  A    between atoms: C_11  and  C_12
REMARK    6  A    between atoms: C_12  and  C_13
REMARK    7  A    between atoms: C_13  and  C_14
REMARK    8  A    between atoms: C_14  and  N_15
REMARK    9  A    between atoms: C_18  and  C_19
REMARK   10  A    between atoms: C_20  and  C_21
REMARK                            x       y       z     vdW  Elec       q    Type
REMARK                         _______ _______ _______ _____ _____    ______ ____
ROOT
ATOM      1  N   UNL     1       2.094   7.247  19.318  0.00  0.00    +0.000 NA
ATOM      2  C   UNL     1       1.583   7.993  20.485  0.00  0.00    +0.000 C 
ATOM      3  C   UNL     1       0.858   9.250  20.172  0.00  0.00    +0.000 C 
ATOM      4  C   UNL     1       0.804   9.777  18.938  0.00  0.00    +0.000 C 
ATOM      5  C   UNL     1       1.510   9.111  17.789  0.00  0.00    +0.000 C 
ATOM      6  C   UNL     1       2.607   8.154  18.279  0.00  0.00    +0.000 C 
ENDROOT
BRANCH   4   7
ATOM      7  C   UNL     1       0.145  10.990  18.627  0.00  0.00    +0.000 A 
ATOM      8  C   UNL     1      -1.083  11.090  18.009  0.00  0.00    +0.000 A 
ATOM      9  C   UNL     1      -2.034  10.051  17.530  0.00  0.00    +0.000 C 
ATOM     10  N   UNL     1      -1.340  12.431  17.851  0.00  0.00    +0.000 N 
ATOM     11  C   UNL     1      -0.317  13.190  18.381  0.00  0.00    +0.000 A 
ATOM     12  C   UNL     1      -0.156  14.580  18.438  0.00  0.00    +0.000 A 
ATOM     13  C   UNL     1       1.000  15.073  19.053  0.00  0.00    +0.000 A 
ATOM     14  C   UNL     1       1.949  14.205  19.589  0.00  0.00    +0.000 A 
ATOM     15 CL   UNL     1       3.356  14.847  20.348  0.00  0.00    +0.000 Cl
ATOM     16  C   UNL     1       1.782  12.821  19.518  0.00  0.00    +0.000 A 
ATOM     17  C   UNL     1       0.627  12.305  18.895  0.00  0.00    +0.000 A 
ATOM     18  H   UNL     1      -2.164  12.813  17.408  0.00  0.00    +0.000 HD
ENDBRANCH   4   7
BRANCH   1  19
ATOM     19  C   UNL     1       3.116   6.281  19.735  0.00  0.00    +0.000 C 
BRANCH  19  20
ATOM     20  C   UNL     1       3.202   5.092  18.758  0.00  0.00    +0.000 C 
BRANCH  20  21
ATOM     21  C   UNL     1       3.883   3.856  19.363  0.00  0.00    +0.000 C 
BRANCH  21  22
ATOM     22  C   UNL     1       5.283   3.723  18.790  0.00  0.00    +0.000 C 
BRANCH  22  23
ATOM     23  N   UNL     1       6.206   4.683  19.391  0.00  0.00    +0.000 NA
ATOM     24  H   UNL     1       5.763   5.476  19.852  0.00  0.00    +0.000 HD
BRANCH  23  25
ATOM     25  S   UNL     1       7.453   5.181  18.345  0.00  0.00    +0.000 S 
ATOM     26  O   UNL     1       8.376   4.079  18.180  0.00  0.00    +0.000 OA
ATOM     27  O   UNL     1       7.879   6.491  18.776  0.00  0.00    +0.000 OA
BRANCH  25  33
ATOM     28  C   UNL     1       6.220   3.758  13.408  0.00  0.00    +0.000 C 
ATOM     29  C   UNL     1       6.045   4.710  14.555  0.00  0.00    +0.000 A 
ATOM     30  C   UNL     1       5.220   5.838  14.426  0.00  0.00    +0.000 A 
ATOM     31  C   UNL     1       5.071   6.738  15.483  0.00  0.00    +0.000 A 
ATOM     32  C   UNL     1       5.751   6.526  16.678  0.00  0.00    +0.000 A 
ATOM     33  C   UNL     1       6.573   5.404  16.813  0.00  0.00    +0.000 A 
ATOM     34  C   UNL     1       6.720   4.490  15.764  0.00  0.00    +0.000 A 
ENDBRANCH  25  33
ENDBRANCH  23  25
ENDBRANCH  22  23
ENDBRANCH  21  22
ENDBRANCH  20  21
ENDBRANCH  19  20
ENDBRANCH   1  19
TORSDOF 8
ENDMDL
MODEL 7
REMARK VINA RESULT:      -8.0      2.540      3.174
REMARK  Name = 
REMARK  10 active torsions:
REMARK  status: ('A' for Active; 'I' for Inactive)
REMARK    1  A    between atoms: C_1  and  C_2
REMARK    2  A    between atoms: C_6  and  S_7
REMARK    3  A    between atoms: S_7  and  N_10
REMARK    4  A    between atoms: N_10  and  C_11
REMARK    5  A    between atoms: C_11  and  C_12
REMARK    6  A    between atoms: C_12  and  C_13
REMARK    7  A    between atoms: C_13  and  C_14
REMARK    8  A    between atoms: C_14  and  N_15
REMARK    9  A    between atoms: C_18  and  C_19
REMARK   10  A    between atoms: C_20  and  C_21
REMARK                            x       y       z     vdW  Elec       q    Type
REMARK                         _______ _______ _______ _____ _____    ______ ____
ROOT
ATOM      1  N   UNL     1       1.239   7.496  20.143  0.00  0.00    +0.000 NA
ATOM      2  C   UNL     1       0.644   8.367  21.174  0.00  0.00    +0.000 C 
ATOM      3  C   UNL     1       0.144   9.679  20.691  0.00  0.00    +0.000 C 
ATOM      4  C   UNL     1       0.357  10.131  19.445  0.00  0.00    +0.000 C 
ATOM      5  C   UNL     1       1.150   9.316  18.460  0.00  0.00    +0.000 C 
ATOM      6  C   UNL     1       2.025   8.270  19.168  0.00  0.00    +0.000 C 
ENDROOT
BRANCH   4   7
ATOM      7  C   UNL     1      -0.085  11.391  18.976  0.00  0.00    +0.000 A 
ATOM      8  C   UNL     1      -1.107  11.588  18.072  0.00  0.00    +0.000 A 
ATOM      9  C   UNL     1      -2.006  10.629  17.375  0.00  0.00    +0.000 C 
ATOM     10  N   UNL     1      -1.187  12.942  17.851  0.00  0.00    +0.000 N 
ATOM     11  C   UNL     1      -0.258  13.617  18.617  0.00  0.00    +0.000 A 
ATOM     12  C   UNL     1       0.017  14.987  18.708  0.00  0.00    +0.000 A 
ATOM     13  C   UNL     1       1.027  15.387  19.590  0.00  0.00    +0.000 A 
ATOM     14  C   UNL     1       1.726  14.450  20.347  0.00  0.00    +0.000 A 
ATOM     15 CL   UNL     1       2.957  14.979  21.430  0.00  0.00    +0.000 Cl
ATOM     16  C   UNL     1       1.450  13.085  20.240  0.00  0.00    +0.000 A 
ATOM     17  C   UNL     1       0.440  12.662  19.351  0.00  0.00    +0.000 A 
ATOM     18  H   UNL     1      -1.835  13.387  17.217  0.00  0.00    +0.000 HD
ENDBRANCH   4   7
BRANCH   1  19
ATOM     19  C   UNL     1       2.051   6.445  20.766  0.00  0.00    +0.000 C 
BRANCH  19  20
ATOM     20  C   UNL     1       1.414   5.053  20.579  0.00  0.00    +0.000 C 
BRANCH  20  21
ATOM     21  C   UNL     1       2.109   3.954  21.394  0.00  0.00    +0.000 C 
BRANCH  21  22
ATOM     22  C   UNL     1       2.342   2.743  20.506  0.00  0.00    +0.000 C 
BRANCH  22  23
ATOM     23  N   UNL     1       3.496   2.931  19.630  0.00  0.00    +0.000 NA
ATOM     24  H   UNL     1       4.022   3.788  19.790  0.00  0.00    +0.000 HD
BRANCH  23  25
ATOM     25  S   UNL     1       3.146   2.706  17.980  0.00  0.00    +0.000 S 
ATOM     26  O   UNL     1       1.729   2.923  17.782  0.00  0.00    +0.000 OA
ATOM     27  O   UNL     1       3.811   1.495  17.560  0.00  0.00    +0.000 OA
BRANCH  25  33
ATOM     28  C   UNL     1       6.765   4.682  14.677  0.00  0.00    +0.000 C 
ATOM     29  C   UNL     1       5.699   4.916  15.708  0.00  0.00    +0.000 A 
ATOM     30  C   UNL     1       5.409   6.215  16.152  0.00  0.00    +0.000 A 
ATOM     31  C   UNL     1       4.433   6.434  17.126  0.00  0.00    +0.000 A 
ATOM     32  C   UNL     1       3.742   5.358  17.674  0.00  0.00    +0.000 A 
ATOM     33  C   UNL     1       4.026   4.062  17.235  0.00  0.00    +0.000 A 
ATOM     34  C   UNL     1       4.994   3.833  16.251  0.00  0.00    +0.000 A 
ENDBRANCH  25  33
ENDBRANCH  23  25
ENDBRANCH  22  23
ENDBRANCH  21  22
ENDBRANCH  20  21
ENDBRANCH  19  20
ENDBRANCH   1  19
TORSDOF 8
ENDMDL
MODEL 8
REMARK VINA RESULT:      -8.0      4.050      8.814
REMARK  Name = 
REMARK  10 active torsions:
REMARK  status: ('A' for Active; 'I' for Inactive)
REMARK    1  A    between atoms: C_1  and  C_2
REMARK    2  A    between atoms: C_6  and  S_7
REMARK    3  A    between atoms: S_7  and  N_10
REMARK    4  A    between atoms: N_10  and  C_11
REMARK    5  A    between atoms: C_11  and  C_12
REMARK    6  A    between atoms: C_12  and  C_13
REMARK    7  A    between atoms: C_13  and  C_14
REMARK    8  A    between atoms: C_14  and  N_15
REMARK    9  A    between atoms: C_18  and  C_19
REMARK   10  A    between atoms: C_20  and  C_21
REMARK                            x       y       z     vdW  Elec       q    Type
REMARK                         _______ _______ _______ _____ _____    ______ ____
ROOT
ATOM      1  N   UNL     1       3.264   2.422  18.740  0.00  0.00    +0.000 NA
ATOM      2  C   UNL     1       2.715   3.062  17.529  0.00  0.00    +0.000 C 
ATOM      3  C   UNL     1       3.714   3.692  16.630  0.00  0.00    +0.000 C 
ATOM      4  C   UNL     1       5.010   3.828  16.956  0.00  0.00    +0.000 C 
ATOM      5  C   UNL     1       5.518   3.354  18.290  0.00  0.00    +0.000 C 
ATOM      6  C   UNL     1       4.377   3.201  19.307  0.00  0.00    +0.000 C 
ENDROOT
BRANCH   4   7
ATOM      7  C   UNL     1       5.971   4.453  16.126  0.00  0.00    +0.000 A 
ATOM      8  C   UNL     1       6.854   5.430  16.532  0.00  0.00    +0.000 A 
ATOM      9  C   UNL     1       7.076   6.072  17.856  0.00  0.00    +0.000 C 
ATOM     10  N   UNL     1       7.576   5.798  15.421  0.00  0.00    +0.000 N 
ATOM     11  C   UNL     1       7.193   5.057  14.322  0.00  0.00    +0.000 A 
ATOM     12  C   UNL     1       7.651   5.096  12.999  0.00  0.00    +0.000 A 
ATOM     13  C   UNL     1       7.073   4.206  12.088  0.00  0.00    +0.000 A 
ATOM     14  C   UNL     1       6.082   3.314  12.492  0.00  0.00    +0.000 A 
ATOM     15 CL   UNL     1       5.400   2.224  11.345  0.00  0.00    +0.000 Cl
ATOM     16  C   UNL     1       5.628   3.290  13.812  0.00  0.00    +0.000 A 
ATOM     17  C   UNL     1       6.193   4.185  14.744  0.00  0.00    +0.000 A 
ATOM     18  H   UNL     1       8.290   6.513  15.407  0.00  0.00    +0.000 HD
ENDBRANCH   4   7
BRANCH   1  19
ATOM     19  C   UNL     1       2.204   2.208  19.732  0.00  0.00    +0.000 C 
BRANCH  19  20
ATOM     20  C   UNL     1       2.691   2.530  21.159  0.00  0.00    +0.000 C 
BRANCH  20  21
ATOM     21  C   UNL     1       2.031   3.781  21.757  0.00  0.00    +0.000 C 
BRANCH  21  22
ATOM     22  C   UNL     1       1.392   4.592  20.643  0.00  0.00    +0.000 C 
BRANCH  22  23
ATOM     23  N   UNL     1       1.834   5.985  20.668  0.00  0.00    +0.000 NA
ATOM     24  H   UNL     1       1.174   6.638  21.086  0.00  0.00    +0.000 HD
BRANCH  23  25
ATOM     25  S   UNL     1       2.410   6.546  19.168  0.00  0.00    +0.000 S 
ATOM     26  O   UNL     1       1.679   5.870  18.118  0.00  0.00    +0.000 OA
ATOM     27  O   UNL     1       3.852   6.546  19.234  0.00  0.00    +0.000 OA
BRANCH  25  33
ATOM     28  C   UNL     1       0.057  10.683  21.463  0.00  0.00    +0.000 C 
ATOM     29  C   UNL     1       0.800  10.112  20.291  0.00  0.00    +0.000 A 
ATOM     30  C   UNL     1       1.058  10.899  19.158  0.00  0.00    +0.000 A 
ATOM     31  C   UNL     1       1.731  10.366  18.057  0.00  0.00    +0.000 A 
ATOM     32  C   UNL     1       2.146   9.038  18.070  0.00  0.00    +0.000 A 
ATOM     33  C   UNL     1       1.893   8.250  19.197  0.00  0.00    +0.000 A 
ATOM     34  C   UNL     1       1.230   8.778  20.310  0.00  0.00    +0.000 A 
ENDBRANCH  25  33
ENDBRANCH  23  25
ENDBRANCH  22  23
ENDBRANCH  21  22
ENDBRANCH  20  21
ENDBRANCH  19  20
ENDBRANCH   1  19
TORSDOF 8
ENDMDL
MODEL 9
REMARK VINA RESULT:      -7.9      4.944     10.213
REMARK  Name = 
REMARK  10 active torsions:
REMARK  status: ('A' for Active; 'I' for Inactive)
REMARK    1  A    between atoms: C_1  and  C_2
REMARK    2  A    between atoms: C_6  and  S_7
REMARK    3  A    between atoms: S_7  and  N_10
REMARK    4  A    between atoms: N_10  and  C_11
REMARK    5  A    between atoms: C_11  and  C_12
REMARK    6  A    between atoms: C_12  and  C_13
REMARK    7  A    between atoms: C_13  and  C_14
REMARK    8  A    between atoms: C_14  and  N_15
REMARK    9  A    between atoms: C_18  and  C_19
REMARK   10  A    between atoms: C_20  and  C_21
REMARK                            x       y       z     vdW  Elec       q    Type
REMARK                         _______ _______ _______ _____ _____    ______ ____
ROOT
ATOM      1  N   UNL     1       2.307   4.870  18.459  0.00  0.00    +0.000 NA
ATOM      2  C   UNL     1       2.746   6.224  18.072  0.00  0.00    +0.000 C 
ATOM      3  C   UNL     1       3.923   6.280  17.168  0.00  0.00    +0.000 C 
ATOM      4  C   UNL     1       4.653   5.199  16.848  0.00  0.00    +0.000 C 
ATOM      5  C   UNL     1       4.314   3.849  17.419  0.00  0.00    +0.000 C 
ATOM      6  C   UNL     1       3.452   3.973  18.684  0.00  0.00    +0.000 C 
ENDROOT
BRANCH   4   7
ATOM      7  C   UNL     1       5.795   5.238  16.014  0.00  0.00    +0.000 A 
ATOM      8  C   UNL     1       7.011   5.787  16.360  0.00  0.00    +0.000 A 
ATOM      9  C   UNL     1       7.479   6.440  17.613  0.00  0.00    +0.000 C 
ATOM     10  N   UNL     1       7.831   5.662  15.263  0.00  0.00    +0.000 N 
ATOM     11  C   UNL     1       7.174   5.018  14.234  0.00  0.00    +0.000 A 
ATOM     12  C   UNL     1       7.613   4.684  12.947  0.00  0.00    +0.000 A 
ATOM     13  C   UNL     1       6.714   4.015  12.110  0.00  0.00    +0.000 A 
ATOM     14  C   UNL     1       5.432   3.694  12.549  0.00  0.00    +0.000 A 
ATOM     15 CL   UNL     1       4.354   2.861  11.495  0.00  0.00    +0.000 Cl
ATOM     16  C   UNL     1       5.002   4.041  13.832  0.00  0.00    +0.000 A 
ATOM     17  C   UNL     1       5.891   4.722  14.688  0.00  0.00    +0.000 A 
ATOM     18  H   UNL     1       8.783   5.994  15.212  0.00  0.00    +0.000 HD
ENDBRANCH   4   7
BRANCH   1  19
ATOM     19  C   UNL     1       1.437   4.931  19.639  0.00  0.00    +0.000 C 
BRANCH  19  20
ATOM     20  C   UNL     1       1.915   6.001  20.640  0.00  0.00    +0.000 C 
BRANCH  20  21
ATOM     21  C   UNL     1       0.815   6.994  21.039  0.00  0.00    +0.000 C 
BRANCH  21  22
ATOM     22  C   UNL     1       1.232   8.396  20.628  0.00  0.00    +0.000 C 
BRANCH  22  23
ATOM     23  N   UNL     1       0.129   9.347  20.757  0.00  0.00    +0.000 NA
ATOM     24  H   UNL     1      -0.219   9.722  19.877  0.00  0.00    +0.000 HD
BRANCH  23  25
ATOM     25  S   UNL     1       0.416  10.577  21.897  0.00  0.00    +0.000 S 
ATOM     26  O   UNL     1       1.443  11.452  21.373  0.00  0.00    +0.000 OA
ATOM     27  O   UNL     1       0.522   9.948  23.192  0.00  0.00    +0.000 OA
BRANCH  25  33
ATOM     28  C   UNL     1      -3.915  12.480  24.249  0.00  0.00    +0.000 C 
ATOM     29  C   UNL     1      -3.099  12.306  23.001  0.00  0.00    +0.000 A 
ATOM     30  C   UNL     1      -3.567  12.789  21.770  0.00  0.00    +0.000 A 
ATOM     31  C   UNL     1      -2.820  12.611  20.603  0.00  0.00    +0.000 A 
ATOM     32  C   UNL     1      -1.602  11.940  20.652  0.00  0.00    +0.000 A 
ATOM     33  C   UNL     1      -1.130  11.458  21.876  0.00  0.00    +0.000 A 
ATOM     34  C   UNL     1      -1.865  11.642  23.052  0.00  0.00    +0.000 A 
ENDBRANCH  25  33
ENDBRANCH  23  25
ENDBRANCH  22  23
ENDBRANCH  21  22
ENDBRANCH  20  21
ENDBRANCH  19  20
ENDBRANCH   1  19
TORSDOF 8
ENDMDL
