MODEL 1
REMARK VINA RESULT:      -7.7      0.000      0.000
REMARK  Name = 
REMARK  2 active torsions:
REMARK  status: ('A' for Active; 'I' for Inactive)
REMARK    1  A    between atoms: P_2  and  O_3
REMARK    2  A    between atoms: O_3  and  C_4
REMARK                            x       y       z     vdW  Elec       q    Type
REMARK                         _______ _______ _______ _____ _____    ______ ____
ROOT
ATOM      1  O   UNL     1       4.400   5.498  17.849  0.00  0.00    +0.000 OA
ATOM      2  P   UNL     1       5.128   4.195  18.006  0.00  0.00    +0.000 P 
ATOM      3  N   UNL     1       6.723   4.330  18.372  0.00  0.00    +0.000 NA
ATOM      4  C   UNL     1       7.475   5.003  17.314  0.00  0.00    +0.000 C 
ATOM      5  C   UNL     1       7.036   4.680  15.894  0.00  0.00    +0.000 A 
ATOM      6  N   UNL     1       7.714   5.299  14.895  0.00  0.00    +0.000 NA
ATOM      7  C   UNL     1       7.299   5.066  13.628  0.00  0.00    +0.000 A 
ATOM      8  C   UNL     1       6.268   4.200  13.293  0.00  0.00    +0.000 A 
ATOM      9  C   UNL     1       5.590   3.559  14.323  0.00  0.00    +0.000 A 
ATOM     10  C   UNL     1       5.947   3.839  15.633  0.00  0.00    +0.000 A 
ATOM     11  O   UNL     1       5.158   3.336  16.631  0.00  0.00    +0.000 OA
ATOM     12  H   UNL     1       6.890   4.807  19.247  0.00  0.00    +0.000 HD
ENDROOT
BRANCH   2  13
ATOM     13  O   UNL     1       4.434   3.181  19.044  0.00  0.00    +0.000 OA
BRANCH  13  14
ATOM     14  C   UNL     1       3.112   3.224  19.389  0.00  0.00    +0.000 A 
ATOM     15  C   UNL     1       2.608   3.914  20.492  0.00  0.00    +0.000 A 
ATOM     16  C   UNL     1       1.248   3.847  20.793  0.00  0.00    +0.000 A 
ATOM     17  C   UNL     1       0.389   3.106  19.985  0.00  0.00    +0.000 A 
ATOM     18  C   UNL     1       0.884   2.450  18.860  0.00  0.00    +0.000 A 
ATOM     19  C   UNL     1       2.245   2.512  18.562  0.00  0.00    +0.000 A 
ENDBRANCH  13  14
ENDBRANCH   2  13
TORSDOF 2
ENDMDL
MODEL 2
REMARK VINA RESULT:      -7.7      0.541      1.218
REMARK  Name = 
REMARK  2 active torsions:
REMARK  status: ('A' for Active; 'I' for Inactive)
REMARK    1  A    between atoms: P_2  and  O_3
REMARK    2  A    between atoms: O_3  and  C_4
REMARK                            x       y       z     vdW  Elec       q    Type
REMARK                         _______ _______ _______ _____ _____    ______ ____
ROOT
ATOM      1  O   UNL     1       4.577   5.970  18.287  0.00  0.00    +0.000 OA
ATOM      2  P   UNL     1       5.235   4.640  18.518  0.00  0.00    +0.000 P 
ATOM      3  N   UNL     1       6.858   4.701  18.758  0.00  0.00    +0.000 NA
ATOM      4  C   UNL     1       7.568   5.223  17.591  0.00  0.00    +0.000 C 
ATOM      5  C   UNL     1       7.005   4.801  16.243  0.00  0.00    +0.000 A 
ATOM      6  N   UNL     1       7.643   5.280  15.144  0.00  0.00    +0.000 NA
ATOM      7  C   UNL     1       7.121   4.961  13.937  0.00  0.00    +0.000 A 
ATOM      8  C   UNL     1       6.017   4.140  13.759  0.00  0.00    +0.000 A 
ATOM      9  C   UNL     1       5.380   3.642  14.890  0.00  0.00    +0.000 A 
ATOM     10  C   UNL     1       5.851   4.016  16.139  0.00  0.00    +0.000 A 
ATOM     11  O   UNL     1       5.110   3.659  17.233  0.00  0.00    +0.000 OA
ATOM     12  H   UNL     1       7.118   5.244  19.570  0.00  0.00    +0.000 HD
ENDROOT
BRANCH   2  13
ATOM     13  O   UNL     1       4.560   3.774  19.693  0.00  0.00    +0.000 OA
BRANCH  13  14
ATOM     14  C   UNL     1       3.235   3.440  19.735  0.00  0.00    +0.000 A 
ATOM     15  C   UNL     1       2.678   2.346  19.072  0.00  0.00    +0.000 A 
ATOM     16  C   UNL     1       1.302   2.124  19.130  0.00  0.00    +0.000 A 
ATOM     17  C   UNL     1       0.486   2.983  19.863  0.00  0.00    +0.000 A 
ATOM     18  C   UNL     1       1.047   4.052  20.559  0.00  0.00    +0.000 A 
ATOM     19  C   UNL     1       2.422   4.278  20.496  0.00  0.00    +0.000 A 
ENDBRANCH  13  14
ENDBRANCH   2  13
TORSDOF 2
ENDMDL
MODEL 3
REMARK VINA RESULT:      -7.5      0.692      1.307
REMARK  Name = 
REMARK  2 active torsions:
REMARK  status: ('A' for Active; 'I' for Inactive)
REMARK    1  A    between atoms: P_2  and  O_3
REMARK    2  A    between atoms: O_3  and  C_4
REMARK                            x       y       z     vdW  Elec       q    Type
REMARK                         _______ _______ _______ _____ _____    ______ ____
ROOT
ATOM      1  O   UNL     1       4.124   5.306  16.967  0.00  0.00    +0.000 OA
ATOM      2  P   UNL     1       4.943   4.072  17.210  0.00  0.00    +0.000 P 
ATOM      3  N   UNL     1       6.446   4.344  17.812  0.00  0.00    +0.000 NA
ATOM      4  C   UNL     1       7.278   5.115  16.888  0.00  0.00    +0.000 C 
ATOM      5  C   UNL     1       7.084   4.795  15.414  0.00  0.00    +0.000 A 
ATOM      6  N   UNL     1       7.839   5.504  14.537  0.00  0.00    +0.000 NA
ATOM      7  C   UNL     1       7.640   5.272  13.219  0.00  0.00    +0.000 A 
ATOM      8  C   UNL     1       6.757   4.325  12.720  0.00  0.00    +0.000 A 
ATOM      9  C   UNL     1       6.000   3.592  13.628  0.00  0.00    +0.000 A 
ATOM     10  C   UNL     1       6.132   3.865  14.981  0.00  0.00    +0.000 A 
ATOM     11  O   UNL     1       5.257   3.261  15.842  0.00  0.00    +0.000 OA
ATOM     12  H   UNL     1       6.436   4.808  18.710  0.00  0.00    +0.000 HD
ENDROOT
BRANCH   2  13
ATOM     13  O   UNL     1       4.205   2.967  18.117  0.00  0.00    +0.000 OA
BRANCH  13  14
ATOM     14  C   UNL     1       3.085   3.211  18.862  0.00  0.00    +0.000 A 
ATOM     15  C   UNL     1       1.811   2.740  18.544  0.00  0.00    +0.000 A 
ATOM     16  C   UNL     1       0.720   3.095  19.339  0.00  0.00    +0.000 A 
ATOM     17  C   UNL     1       0.904   3.903  20.458  0.00  0.00    +0.000 A 
ATOM     18  C   UNL     1       2.183   4.339  20.799  0.00  0.00    +0.000 A 
ATOM     19  C   UNL     1       3.273   3.990  20.002  0.00  0.00    +0.000 A 
ENDBRANCH  13  14
ENDBRANCH   2  13
TORSDOF 2
ENDMDL
MODEL 4
REMARK VINA RESULT:      -7.4      2.458      3.098
REMARK  Name = 
REMARK  2 active torsions:
REMARK  status: ('A' for Active; 'I' for Inactive)
REMARK    1  A    between atoms: P_2  and  O_3
REMARK    2  A    between atoms: O_3  and  C_4
REMARK                            x       y       z     vdW  Elec       q    Type
REMARK                         _______ _______ _______ _____ _____    ______ ____
ROOT
ATOM      1  O   UNL     1       5.557   3.458  16.112  0.00  0.00    +0.000 OA
ATOM      2  P   UNL     1       4.776   3.847  17.334  0.00  0.00    +0.000 P 
ATOM      3  N   UNL     1       3.757   5.118  17.131  0.00  0.00    +0.000 NA
ATOM      4  C   UNL     1       4.470   6.348  16.790  0.00  0.00    +0.000 C 
ATOM      5  C   UNL     1       5.810   6.539  17.485  0.00  0.00    +0.000 A 
ATOM      6  N   UNL     1       6.495   7.670  17.177  0.00  0.00    +0.000 NA
ATOM      7  C   UNL     1       7.714   7.828  17.743  0.00  0.00    +0.000 A 
ATOM      8  C   UNL     1       8.273   6.939  18.649  0.00  0.00    +0.000 A 
ATOM      9  C   UNL     1       7.556   5.791  18.969  0.00  0.00    +0.000 A 
ATOM     10  C   UNL     1       6.339   5.569  18.345  0.00  0.00    +0.000 A 
ATOM     11  O   UNL     1       5.733   4.358  18.540  0.00  0.00    +0.000 OA
ATOM     12  H   UNL     1       3.045   4.948  16.434  0.00  0.00    +0.000 HD
ENDROOT
BRANCH   2  13
ATOM     13  O   UNL     1       3.973   2.629  18.010  0.00  0.00    +0.000 OA
BRANCH  13  14
ATOM     14  C   UNL     1       3.118   2.768  19.068  0.00  0.00    +0.000 A 
ATOM     15  C   UNL     1       3.509   2.720  20.407  0.00  0.00    +0.000 A 
ATOM     16  C   UNL     1       2.549   2.813  21.415  0.00  0.00    +0.000 A 
ATOM     17  C   UNL     1       1.204   2.971  21.088  0.00  0.00    +0.000 A 
ATOM     18  C   UNL     1       0.819   3.061  19.752  0.00  0.00    +0.000 A 
ATOM     19  C   UNL     1       1.777   2.962  18.744  0.00  0.00    +0.000 A 
ENDBRANCH  13  14
ENDBRANCH   2  13
TORSDOF 2
ENDMDL
MODEL 5
REMARK VINA RESULT:      -7.3      2.429      3.225
REMARK  Name = 
REMARK  2 active torsions:
REMARK  status: ('A' for Active; 'I' for Inactive)
REMARK    1  A    between atoms: P_2  and  O_3
REMARK    2  A    between atoms: O_3  and  C_4
REMARK                            x       y       z     vdW  Elec       q    Type
REMARK                         _______ _______ _______ _____ _____    ______ ____
ROOT
ATOM      1  O   UNL     1       5.672   3.510  16.006  0.00  0.00    +0.000 OA
ATOM      2  P   UNL     1       4.845   3.881  17.202  0.00  0.00    +0.000 P 
ATOM      3  N   UNL     1       3.846   5.166  16.984  0.00  0.00    +0.000 NA
ATOM      4  C   UNL     1       4.585   6.396  16.699  0.00  0.00    +0.000 C 
ATOM      5  C   UNL     1       5.896   6.558  17.453  0.00  0.00    +0.000 A 
ATOM      6  N   UNL     1       6.603   7.689  17.199  0.00  0.00    +0.000 NA
ATOM      7  C   UNL     1       7.798   7.823  17.818  0.00  0.00    +0.000 A 
ATOM      8  C   UNL     1       8.311   6.909  18.728  0.00  0.00    +0.000 A 
ATOM      9  C   UNL     1       7.571   5.762  18.994  0.00  0.00    +0.000 A 
ATOM     10  C   UNL     1       6.379   5.566  18.314  0.00  0.00    +0.000 A 
ATOM     11  O   UNL     1       5.755   4.357  18.457  0.00  0.00    +0.000 OA
ATOM     12  H   UNL     1       3.163   5.017  16.254  0.00  0.00    +0.000 HD
ENDROOT
BRANCH   2  13
ATOM     13  O   UNL     1       4.002   2.657  17.818  0.00  0.00    +0.000 OA
BRANCH  13  14
ATOM     14  C   UNL     1       3.046   2.795  18.785  0.00  0.00    +0.000 A 
ATOM     15  C   UNL     1       1.690   2.996  18.529  0.00  0.00    +0.000 A 
ATOM     16  C   UNL     1       0.802   3.184  19.588  0.00  0.00    +0.000 A 
ATOM     17  C   UNL     1       1.264   3.154  20.902  0.00  0.00    +0.000 A 
ATOM     18  C   UNL     1       2.612   2.912  21.160  0.00  0.00    +0.000 A 
ATOM     19  C   UNL     1       3.501   2.730  20.102  0.00  0.00    +0.000 A 
ENDBRANCH  13  14
ENDBRANCH   2  13
TORSDOF 2
ENDMDL
MODEL 6
REMARK VINA RESULT:      -7.3      1.585      1.814
REMARK  Name = 
REMARK  2 active torsions:
REMARK  status: ('A' for Active; 'I' for Inactive)
REMARK    1  A    between atoms: P_2  and  O_3
REMARK    2  A    between atoms: O_3  and  C_4
REMARK                            x       y       z     vdW  Elec       q    Type
REMARK                         _______ _______ _______ _____ _____    ______ ____
ROOT
ATOM      1  O   UNL     1       3.918   7.519  17.603  0.00  0.00    +0.000 OA
ATOM      2  P   UNL     1       3.741   6.126  18.136  0.00  0.00    +0.000 P 
ATOM      3  N   UNL     1       4.922   5.619  19.158  0.00  0.00    +0.000 NA
ATOM      4  C   UNL     1       6.228   5.559  18.503  0.00  0.00    +0.000 C 
ATOM      5  C   UNL     1       6.211   5.094  17.055  0.00  0.00    +0.000 A 
ATOM      6  N   UNL     1       7.412   5.038  16.424  0.00  0.00    +0.000 NA
ATOM      7  C   UNL     1       7.409   4.680  15.119  0.00  0.00    +0.000 A 
ATOM      8  C   UNL     1       6.270   4.321  14.413  0.00  0.00    +0.000 A 
ATOM      9  C   UNL     1       5.047   4.367  15.073  0.00  0.00    +0.000 A 
ATOM     10  C   UNL     1       5.015   4.802  16.389  0.00  0.00    +0.000 A 
ATOM     11  O   UNL     1       3.791   5.006  16.964  0.00  0.00    +0.000 OA
ATOM     12  H   UNL     1       4.998   6.189  19.990  0.00  0.00    +0.000 HD
ENDROOT
BRANCH   2  13
ATOM     13  O   UNL     1       2.308   5.865  18.816  0.00  0.00    +0.000 OA
BRANCH  13  14
ATOM     14  C   UNL     1       2.016   4.782  19.598  0.00  0.00    +0.000 A 
ATOM     15  C   UNL     1       2.301   4.695  20.961  0.00  0.00    +0.000 A 
ATOM     16  C   UNL     1       2.016   3.520  21.657  0.00  0.00    +0.000 A 
ATOM     17  C   UNL     1       1.431   2.441  20.998  0.00  0.00    +0.000 A 
ATOM     18  C   UNL     1       1.108   2.543  19.646  0.00  0.00    +0.000 A 
ATOM     19  C   UNL     1       1.398   3.714  18.948  0.00  0.00    +0.000 A 
ENDBRANCH  13  14
ENDBRANCH   2  13
TORSDOF 2
ENDMDL
MODEL 7
REMARK VINA RESULT:      -7.2      1.259      1.400
REMARK  Name = 
REMARK  2 active torsions:
REMARK  status: ('A' for Active; 'I' for Inactive)
REMARK    1  A    between atoms: P_2  and  O_3
REMARK    2  A    between atoms: O_3  and  C_4
REMARK                            x       y       z     vdW  Elec       q    Type
REMARK                         _______ _______ _______ _____ _____    ______ ____
ROOT
ATOM      1  O   UNL     1       4.313   7.093  17.212  0.00  0.00    +0.000 OA
ATOM      2  P   UNL     1       4.860   5.878  17.903  0.00  0.00    +0.000 P 
ATOM      3  N   UNL     1       6.441   5.977  18.336  0.00  0.00    +0.000 NA
ATOM      4  C   UNL     1       7.321   6.122  17.177  0.00  0.00    +0.000 C 
ATOM      5  C   UNL     1       6.908   5.335  15.943  0.00  0.00    +0.000 A 
ATOM      6  N   UNL     1       7.706   5.460  14.851  0.00  0.00    +0.000 NA
ATOM      7  C   UNL     1       7.323   4.811  13.728  0.00  0.00    +0.000 A 
ATOM      8  C   UNL     1       6.206   3.993  13.643  0.00  0.00    +0.000 A 
ATOM      9  C   UNL     1       5.404   3.859  14.771  0.00  0.00    +0.000 A 
ATOM     10  C   UNL     1       5.734   4.574  15.913  0.00  0.00    +0.000 A 
ATOM     11  O   UNL     1       4.842   4.566  16.950  0.00  0.00    +0.000 OA
ATOM     12  H   UNL     1       6.627   6.729  18.986  0.00  0.00    +0.000 HD
ENDROOT
BRANCH   2  13
ATOM     13  O   UNL     1       3.995   5.405  19.174  0.00  0.00    +0.000 OA
BRANCH  13  14
ATOM     14  C   UNL     1       3.110   4.363  19.154  0.00  0.00    +0.000 A 
ATOM     15  C   UNL     1       3.311   3.147  19.807  0.00  0.00    +0.000 A 
ATOM     16  C   UNL     1       2.373   2.123  19.676  0.00  0.00    +0.000 A 
ATOM     17  C   UNL     1       1.227   2.319  18.909  0.00  0.00    +0.000 A 
ATOM     18  C   UNL     1       1.005   3.548  18.290  0.00  0.00    +0.000 A 
ATOM     19  C   UNL     1       1.946   4.570  18.416  0.00  0.00    +0.000 A 
ENDBRANCH  13  14
ENDBRANCH   2  13
TORSDOF 2
ENDMDL
MODEL 8
REMARK VINA RESULT:      -7.2      1.582      2.101
REMARK  Name = 
REMARK  2 active torsions:
REMARK  status: ('A' for Active; 'I' for Inactive)
REMARK    1  A    between atoms: P_2  and  O_3
REMARK    2  A    between atoms: O_3  and  C_4
REMARK                            x       y       z     vdW  Elec       q    Type
REMARK                         _______ _______ _______ _____ _____    ______ ____
ROOT
ATOM      1  O   UNL     1       3.951   7.547  17.605  0.00  0.00    +0.000 OA
ATOM      2  P   UNL     1       3.784   6.150  18.127  0.00  0.00    +0.000 P 
ATOM      3  N   UNL     1       4.984   5.632  19.121  0.00  0.00    +0.000 NA
ATOM      4  C   UNL     1       6.278   5.578  18.441  0.00  0.00    +0.000 C 
ATOM      5  C   UNL     1       6.233   5.128  16.989  0.00  0.00    +0.000 A 
ATOM      6  N   UNL     1       7.421   5.078  16.334  0.00  0.00    +0.000 NA
ATOM      7  C   UNL     1       7.392   4.735  15.025  0.00  0.00    +0.000 A 
ATOM      8  C   UNL     1       6.240   4.383  14.337  0.00  0.00    +0.000 A 
ATOM      9  C   UNL     1       5.030   4.422  15.021  0.00  0.00    +0.000 A 
ATOM     10  C   UNL     1       5.024   4.844  16.342  0.00  0.00    +0.000 A 
ATOM     11  O   UNL     1       3.811   5.042  16.943  0.00  0.00    +0.000 OA
ATOM     12  H   UNL     1       5.076   6.192  19.957  0.00  0.00    +0.000 HD
ENDROOT
BRANCH   2  13
ATOM     13  O   UNL     1       2.364   5.882  18.832  0.00  0.00    +0.000 OA
BRANCH  13  14
ATOM     14  C   UNL     1       2.042   4.730  19.496  0.00  0.00    +0.000 A 
ATOM     15  C   UNL     1       1.421   3.629  18.906  0.00  0.00    +0.000 A 
ATOM     16  C   UNL     1       1.081   2.523  19.684  0.00  0.00    +0.000 A 
ATOM     17  C   UNL     1       1.375   2.509  21.045  0.00  0.00    +0.000 A 
ATOM     18  C   UNL     1       2.032   3.591  21.627  0.00  0.00    +0.000 A 
ATOM     19  C   UNL     1       2.367   4.700  20.851  0.00  0.00    +0.000 A 
ENDBRANCH  13  14
ENDBRANCH   2  13
TORSDOF 2
ENDMDL
MODEL 9
REMARK VINA RESULT:      -7.1      1.316      1.555
REMARK  Name = 
REMARK  2 active torsions:
REMARK  status: ('A' for Active; 'I' for Inactive)
REMARK    1  A    between atoms: P_2  and  O_3
REMARK    2  A    between atoms: O_3  and  C_4
REMARK                            x       y       z     vdW  Elec       q    Type
REMARK                         _______ _______ _______ _____ _____    ______ ____
ROOT
ATOM      1  O   UNL     1       4.186   7.144  17.074  0.00  0.00    +0.000 OA
ATOM      2  P   UNL     1       4.712   5.943  17.807  0.00  0.00    +0.000 P 
ATOM      3  N   UNL     1       6.273   6.059  18.301  0.00  0.00    +0.000 NA
ATOM      4  C   UNL     1       7.198   6.190  17.176  0.00  0.00    +0.000 C 
ATOM      5  C   UNL     1       6.840   5.380  15.940  0.00  0.00    +0.000 A 
ATOM      6  N   UNL     1       7.680   5.491  14.879  0.00  0.00    +0.000 NA
ATOM      7  C   UNL     1       7.346   4.822  13.752  0.00  0.00    +0.000 A 
ATOM      8  C   UNL     1       6.237   3.996  13.636  0.00  0.00    +0.000 A 
ATOM      9  C   UNL     1       5.391   3.876  14.734  0.00  0.00    +0.000 A 
ATOM     10  C   UNL     1       5.672   4.611  15.875  0.00  0.00    +0.000 A 
ATOM     11  O   UNL     1       4.739   4.616  16.876  0.00  0.00    +0.000 OA
ATOM     12  H   UNL     1       6.429   6.823  18.945  0.00  0.00    +0.000 HD
ENDROOT
BRANCH   2  13
ATOM     13  O   UNL     1       3.798   5.487  19.050  0.00  0.00    +0.000 OA
BRANCH  13  14
ATOM     14  C   UNL     1       2.989   4.385  19.042  0.00  0.00    +0.000 A 
ATOM     15  C   UNL     1       1.731   4.335  18.441  0.00  0.00    +0.000 A 
ATOM     16  C   UNL     1       0.957   3.179  18.540  0.00  0.00    +0.000 A 
ATOM     17  C   UNL     1       1.445   2.068  19.224  0.00  0.00    +0.000 A 
ATOM     18  C   UNL     1       2.718   2.102  19.790  0.00  0.00    +0.000 A 
ATOM     19  C   UNL     1       3.490   3.260  19.696  0.00  0.00    +0.000 A 
ENDBRANCH  13  14
ENDBRANCH   2  13
TORSDOF 2
ENDMDL
