MODEL 1
REMARK VINA RESULT:      -7.5      0.000      0.000
REMARK  Name = 
REMARK  4 active torsions:
REMARK  status: ('A' for Active; 'I' for Inactive)
REMARK    1  A    between atoms: S_2  and  C_4
REMARK    2  A    between atoms: S_2  and  C_20
REMARK    3  A    between atoms: C_7  and  O_8
REMARK    4  A    between atoms: O_8  and  C_9
REMARK                            x       y       z     vdW  Elec       q    Type
REMARK                         _______ _______ _______ _____ _____    ______ ____
ROOT
ATOM      1  C   UNL     1      -0.248  10.449  18.937  0.00  0.00    +0.000 A 
ATOM      2  C   UNL     1       0.531   9.916  17.910  0.00  0.00    +0.000 A 
ATOM      3  C   UNL     1       1.466   8.923  18.209  0.00  0.00    +0.000 A 
ATOM      4  C   UNL     1       1.632   8.464  19.525  0.00  0.00    +0.000 A 
ATOM      5  C   UNL     1       0.905   9.074  20.560  0.00  0.00    +0.000 A 
ATOM      6 CL   UNL     1       1.194   8.787  22.241  0.00  0.00    +0.000 Cl
ATOM      7  C   UNL     1      -0.074  10.027  20.258  0.00  0.00    +0.000 A 
ENDROOT
BRANCH   1   9
ATOM      8  O   UNL     1      -2.214  11.893  19.820  0.00  0.00    +0.000 OA
ATOM      9  S   UNL     1      -1.533  11.632  18.562  0.00  0.00    +0.000 S 
ATOM     10  O   UNL     1      -0.866  12.728  17.873  0.00  0.00    +0.000 OA
BRANCH   9  11
ATOM     11  C   UNL     1      -2.622  10.706  17.415  0.00  0.00    +0.000 C 
ATOM     12  F   UNL     1      -2.760   9.395  17.771  0.00  0.00    +0.000 F 
ATOM     13  F   UNL     1      -3.885  11.219  17.366  0.00  0.00    +0.000 F 
ATOM     14  F   UNL     1      -2.154  10.704  16.135  0.00  0.00    +0.000 F 
ENDBRANCH   9  11
ENDBRANCH   1   9
BRANCH   4  15
ATOM     15  O   UNL     1       2.593   7.483  19.655  0.00  0.00    +0.000 OA
BRANCH  15  16
ATOM     16  C   UNL     1       2.247   6.152  19.611  0.00  0.00    +0.000 A 
ATOM     17  C   UNL     1       1.641   5.446  20.651  0.00  0.00    +0.000 A 
ATOM     18  C   UNL     1       1.482   4.067  20.531  0.00  0.00    +0.000 A 
ATOM     19  F   UNL     1       0.997   3.372  21.569  0.00  0.00    +0.000 F 
ATOM     20  C   UNL     1       1.842   3.394  19.372  0.00  0.00    +0.000 A 
ATOM     21  C   UNL     1       2.347   4.123  18.300  0.00  0.00    +0.000 A 
ATOM     22 CL   UNL     1       2.752   3.320  16.834  0.00  0.00    +0.000 Cl
ATOM     23  C   UNL     1       2.547   5.499  18.412  0.00  0.00    +0.000 A 
ENDBRANCH  15  16
ENDBRANCH   4  15
TORSDOF 4
ENDMDL
MODEL 2
REMARK VINA RESULT:      -7.4      3.125      7.187
REMARK  Name = 
REMARK  4 active torsions:
REMARK  status: ('A' for Active; 'I' for Inactive)
REMARK    1  A    between atoms: S_2  and  C_4
REMARK    2  A    between atoms: S_2  and  C_20
REMARK    3  A    between atoms: C_7  and  O_8
REMARK    4  A    between atoms: O_8  and  C_9
REMARK                            x       y       z     vdW  Elec       q    Type
REMARK                         _______ _______ _______ _____ _____    ______ ____
ROOT
ATOM      1  C   UNL     1       2.556   6.784  19.260  0.00  0.00    +0.000 A 
ATOM      2  C   UNL     1       2.632   7.500  18.066  0.00  0.00    +0.000 A 
ATOM      3  C   UNL     1       2.037   8.761  17.988  0.00  0.00    +0.000 A 
ATOM      4  C   UNL     1       1.362   9.307  19.090  0.00  0.00    +0.000 A 
ATOM      5  C   UNL     1       1.217   8.536  20.255  0.00  0.00    +0.000 A 
ATOM      6 CL   UNL     1       0.202   8.978  21.584  0.00  0.00    +0.000 Cl
ATOM      7  C   UNL     1       1.860   7.298  20.358  0.00  0.00    +0.000 A 
ENDROOT
BRANCH   1   9
ATOM      8  O   UNL     1       4.829   5.540  19.384  0.00  0.00    +0.000 OA
ATOM      9  S   UNL     1       3.410   5.223  19.423  0.00  0.00    +0.000 S 
ATOM     10  O   UNL     1       2.853   4.595  20.613  0.00  0.00    +0.000 OA
BRANCH   9  11
ATOM     11  C   UNL     1       2.905   4.319  17.910  0.00  0.00    +0.000 C 
ATOM     12  F   UNL     1       2.989   2.965  18.061  0.00  0.00    +0.000 F 
ATOM     13  F   UNL     1       1.616   4.581  17.551  0.00  0.00    +0.000 F 
ATOM     14  F   UNL     1       3.679   4.629  16.831  0.00  0.00    +0.000 F 
ENDBRANCH   9  11
ENDBRANCH   1   9
BRANCH   4  15
ATOM     15  O   UNL     1       0.831  10.558  18.853  0.00  0.00    +0.000 OA
BRANCH  15  16
ATOM     16  C   UNL     1      -0.521  10.719  18.654  0.00  0.00    +0.000 A 
ATOM     17  C   UNL     1      -1.277  10.041  17.697  0.00  0.00    +0.000 A 
ATOM     18  C   UNL     1      -2.606  10.408  17.499  0.00  0.00    +0.000 A 
ATOM     19  F   UNL     1      -3.304   9.832  16.510  0.00  0.00    +0.000 F 
ATOM     20  C   UNL     1      -3.215  11.378  18.284  0.00  0.00    +0.000 A 
ATOM     21  C   UNL     1      -2.483  11.972  19.306  0.00  0.00    +0.000 A 
ATOM     22 CL   UNL     1      -3.229  13.139  20.325  0.00  0.00    +0.000 Cl
ATOM     23  C   UNL     1      -1.141  11.645  19.498  0.00  0.00    +0.000 A 
ENDBRANCH  15  16
ENDBRANCH   4  15
TORSDOF 4
ENDMDL
MODEL 3
REMARK VINA RESULT:      -7.4      3.646      4.381
REMARK  Name = 
REMARK  4 active torsions:
REMARK  status: ('A' for Active; 'I' for Inactive)
REMARK    1  A    between atoms: S_2  and  C_4
REMARK    2  A    between atoms: S_2  and  C_20
REMARK    3  A    between atoms: C_7  and  O_8
REMARK    4  A    between atoms: O_8  and  C_9
REMARK                            x       y       z     vdW  Elec       q    Type
REMARK                         _______ _______ _______ _____ _____    ______ ____
ROOT
ATOM      1  C   UNL     1       1.310   8.735  20.038  0.00  0.00    +0.000 A 
ATOM      2  C   UNL     1       1.824   8.867  18.748  0.00  0.00    +0.000 A 
ATOM      3  C   UNL     1       2.399   7.757  18.127  0.00  0.00    +0.000 A 
ATOM      4  C   UNL     1       2.469   6.520  18.786  0.00  0.00    +0.000 A 
ATOM      5  C   UNL     1       2.029   6.427  20.116  0.00  0.00    +0.000 A 
ATOM      6 CL   UNL     1       2.289   5.045  21.123  0.00  0.00    +0.000 Cl
ATOM      7  C   UNL     1       1.400   7.520  20.722  0.00  0.00    +0.000 A 
ENDROOT
BRANCH   1   9
ATOM      8  O   UNL     1       1.498  11.065  21.164  0.00  0.00    +0.000 OA
ATOM      9  S   UNL     1       0.463  10.107  20.807  0.00  0.00    +0.000 S 
ATOM     10  O   UNL     1      -0.577  10.501  19.867  0.00  0.00    +0.000 OA
BRANCH   9  11
ATOM     11  C   UNL     1      -0.266   9.350  22.308  0.00  0.00    +0.000 C 
ATOM     12  F   UNL     1       0.674   9.057  23.254  0.00  0.00    +0.000 F 
ATOM     13  F   UNL     1      -1.173  10.168  22.917  0.00  0.00    +0.000 F 
ATOM     14  F   UNL     1      -0.915   8.181  22.044  0.00  0.00    +0.000 F 
ENDBRANCH   9  11
ENDBRANCH   1   9
BRANCH   4  15
ATOM     15  O   UNL     1       3.064   5.524  18.039  0.00  0.00    +0.000 OA
BRANCH  15  16
ATOM     16  C   UNL     1       4.434   5.387  18.018  0.00  0.00    +0.000 A 
ATOM     17  C   UNL     1       5.264   5.463  19.136  0.00  0.00    +0.000 A 
ATOM     18  C   UNL     1       6.646   5.457  18.956  0.00  0.00    +0.000 A 
ATOM     19  F   UNL     1       7.445   5.636  20.016  0.00  0.00    +0.000 F 
ATOM     20  C   UNL     1       7.212   5.301  17.698  0.00  0.00    +0.000 A 
ATOM     21  C   UNL     1       6.375   5.119  16.602  0.00  0.00    +0.000 A 
ATOM     22 CL   UNL     1       7.051   4.871  15.041  0.00  0.00    +0.000 Cl
ATOM     23  C   UNL     1       4.989   5.157  16.756  0.00  0.00    +0.000 A 
ENDBRANCH  15  16
ENDBRANCH   4  15
TORSDOF 4
ENDMDL
MODEL 4
REMARK VINA RESULT:      -7.3      3.552      4.323
REMARK  Name = 
REMARK  4 active torsions:
REMARK  status: ('A' for Active; 'I' for Inactive)
REMARK    1  A    between atoms: S_2  and  C_4
REMARK    2  A    between atoms: S_2  and  C_20
REMARK    3  A    between atoms: C_7  and  O_8
REMARK    4  A    between atoms: O_8  and  C_9
REMARK                            x       y       z     vdW  Elec       q    Type
REMARK                         _______ _______ _______ _____ _____    ______ ____
ROOT
ATOM      1  C   UNL     1       1.410   7.990  20.464  0.00  0.00    +0.000 A 
ATOM      2  C   UNL     1       1.981   8.324  19.236  0.00  0.00    +0.000 A 
ATOM      3  C   UNL     1       2.581   7.324  18.468  0.00  0.00    +0.000 A 
ATOM      4  C   UNL     1       2.621   5.996  18.920  0.00  0.00    +0.000 A 
ATOM      5  C   UNL     1       2.122   5.693  20.198  0.00  0.00    +0.000 A 
ATOM      6 CL   UNL     1       2.336   4.164  20.978  0.00  0.00    +0.000 Cl
ATOM      7  C   UNL     1       1.469   6.678  20.945  0.00  0.00    +0.000 A 
ENDROOT
BRANCH   1   9
ATOM      8  O   UNL     1      -0.631   8.553  21.962  0.00  0.00    +0.000 OA
ATOM      9  S   UNL     1       0.533   9.226  21.408  0.00  0.00    +0.000 S 
ATOM     10  O   UNL     1       1.519   9.801  22.312  0.00  0.00    +0.000 OA
BRANCH   9  11
ATOM     11  C   UNL     1       0.032  10.440  20.130  0.00  0.00    +0.000 C 
ATOM     12  F   UNL     1      -0.567   9.849  19.055  0.00  0.00    +0.000 F 
ATOM     13  F   UNL     1      -0.860  11.358  20.602  0.00  0.00    +0.000 F 
ATOM     14  F   UNL     1       1.088  11.145  19.634  0.00  0.00    +0.000 F 
ENDBRANCH   9  11
ENDBRANCH   1   9
BRANCH   4  15
ATOM     15  O   UNL     1       3.247   5.130  18.049  0.00  0.00    +0.000 OA
BRANCH  15  16
ATOM     16  C   UNL     1       4.620   5.089  17.966  0.00  0.00    +0.000 A 
ATOM     17  C   UNL     1       5.493   5.250  19.042  0.00  0.00    +0.000 A 
ATOM     18  C   UNL     1       6.862   5.337  18.797  0.00  0.00    +0.000 A 
ATOM     19  F   UNL     1       7.693   5.597  19.815  0.00  0.00    +0.000 F 
ATOM     20  C   UNL     1       7.380   5.190  17.517  0.00  0.00    +0.000 A 
ATOM     21  C   UNL     1       6.509   4.923  16.466  0.00  0.00    +0.000 A 
ATOM     22 CL   UNL     1       7.130   4.685  14.880  0.00  0.00    +0.000 Cl
ATOM     23  C   UNL     1       5.133   4.867  16.685  0.00  0.00    +0.000 A 
ENDBRANCH  15  16
ENDBRANCH   4  15
TORSDOF 4
ENDMDL
MODEL 5
REMARK VINA RESULT:      -7.3      3.505      4.171
REMARK  Name = 
REMARK  4 active torsions:
REMARK  status: ('A' for Active; 'I' for Inactive)
REMARK    1  A    between atoms: S_2  and  C_4
REMARK    2  A    between atoms: S_2  and  C_20
REMARK    3  A    between atoms: C_7  and  O_8
REMARK    4  A    between atoms: O_8  and  C_9
REMARK                            x       y       z     vdW  Elec       q    Type
REMARK                         _______ _______ _______ _____ _____    ______ ____
ROOT
ATOM      1  C   UNL     1       1.785   8.894  18.949  0.00  0.00    +0.000 A 
ATOM      2  C   UNL     1       2.434   8.644  17.741  0.00  0.00    +0.000 A 
ATOM      3  C   UNL     1       2.903   7.356  17.472  0.00  0.00    +0.000 A 
ATOM      4  C   UNL     1       2.733   6.320  18.404  0.00  0.00    +0.000 A 
ATOM      5  C   UNL     1       2.159   6.610  19.653  0.00  0.00    +0.000 A 
ATOM      6 CL   UNL     1       2.122   5.499  20.978  0.00  0.00    +0.000 Cl
ATOM      7  C   UNL     1       1.636   7.883  19.903  0.00  0.00    +0.000 A 
ENDROOT
BRANCH   1   9
ATOM      8  O   UNL     1       0.964  10.613  20.711  0.00  0.00    +0.000 OA
ATOM      9  S   UNL     1       1.072  10.501  19.265  0.00  0.00    +0.000 S 
ATOM     10  O   UNL     1       1.907  11.449  18.539  0.00  0.00    +0.000 OA
BRANCH   9  11
ATOM     11  C   UNL     1      -0.587  10.372  18.497  0.00  0.00    +0.000 C 
ATOM     12  F   UNL     1      -1.091  11.589  18.137  0.00  0.00    +0.000 F 
ATOM     13  F   UNL     1      -0.580   9.615  17.363  0.00  0.00    +0.000 F 
ATOM     14  F   UNL     1      -1.508   9.813  19.331  0.00  0.00    +0.000 F 
ENDBRANCH   9  11
ENDBRANCH   1   9
BRANCH   4  15
ATOM     15  O   UNL     1       3.250   5.110  17.991  0.00  0.00    +0.000 OA
BRANCH  15  16
ATOM     16  C   UNL     1       4.561   5.009  17.586  0.00  0.00    +0.000 A 
ATOM     17  C   UNL     1       4.981   4.552  16.336  0.00  0.00    +0.000 A 
ATOM     18  C   UNL     1       6.341   4.356  16.109  0.00  0.00    +0.000 A 
ATOM     19  F   UNL     1       6.740   3.820  14.948  0.00  0.00    +0.000 F 
ATOM     20  C   UNL     1       7.291   4.677  17.070  0.00  0.00    +0.000 A 
ATOM     21  C   UNL     1       6.868   5.232  18.273  0.00  0.00    +0.000 A 
ATOM     22 CL   UNL     1       8.027   5.686  19.459  0.00  0.00    +0.000 Cl
ATOM     23  C   UNL     1       5.509   5.403  18.535  0.00  0.00    +0.000 A 
ENDBRANCH  15  16
ENDBRANCH   4  15
TORSDOF 4
ENDMDL
MODEL 6
REMARK VINA RESULT:      -7.2      3.235      6.930
REMARK  Name = 
REMARK  4 active torsions:
REMARK  status: ('A' for Active; 'I' for Inactive)
REMARK    1  A    between atoms: S_2  and  C_4
REMARK    2  A    between atoms: S_2  and  C_20
REMARK    3  A    between atoms: C_7  and  O_8
REMARK    4  A    between atoms: O_8  and  C_9
REMARK                            x       y       z     vdW  Elec       q    Type
REMARK                         _______ _______ _______ _____ _____    ______ ____
ROOT
ATOM      1  C   UNL     1       2.397   6.904  19.406  0.00  0.00    +0.000 A 
ATOM      2  C   UNL     1       2.559   7.631  18.227  0.00  0.00    +0.000 A 
ATOM      3  C   UNL     1       2.029   8.921  18.143  0.00  0.00    +0.000 A 
ATOM      4  C   UNL     1       1.335   9.485  19.224  0.00  0.00    +0.000 A 
ATOM      5  C   UNL     1       1.103   8.706  20.370  0.00  0.00    +0.000 A 
ATOM      6 CL   UNL     1       0.054   9.180  21.661  0.00  0.00    +0.000 Cl
ATOM      7  C   UNL     1       1.680   7.437  20.481  0.00  0.00    +0.000 A 
ENDROOT
BRANCH   1   9
ATOM      8  O   UNL     1       4.600   5.546  19.583  0.00  0.00    +0.000 OA
ATOM      9  S   UNL     1       3.167   5.302  19.580  0.00  0.00    +0.000 S 
ATOM     10  O   UNL     1       2.546   4.695  20.750  0.00  0.00    +0.000 OA
BRANCH   9  11
ATOM     11  C   UNL     1       2.660   4.433  18.048  0.00  0.00    +0.000 C 
ATOM     12  F   UNL     1       1.394   4.762  17.657  0.00  0.00    +0.000 F 
ATOM     13  F   UNL     1       3.471   4.725  16.990  0.00  0.00    +0.000 F 
ATOM     14  F   UNL     1       2.673   3.077  18.185  0.00  0.00    +0.000 F 
ENDBRANCH   9  11
ENDBRANCH   1   9
BRANCH   4  15
ATOM     15  O   UNL     1       0.875  10.763  18.985  0.00  0.00    +0.000 OA
BRANCH  15  16
ATOM     16  C   UNL     1      -0.456  10.991  18.718  0.00  0.00    +0.000 A 
ATOM     17  C   UNL     1      -1.292  11.822  19.465  0.00  0.00    +0.000 A 
ATOM     18  C   UNL     1      -2.655  11.846  19.177  0.00  0.00    +0.000 A 
ATOM     19  F   UNL     1      -3.476  12.561  19.958  0.00  0.00    +0.000 F 
ATOM     20  C   UNL     1      -3.185  11.122  18.117  0.00  0.00    +0.000 A 
ATOM     21  C   UNL     1      -2.326  10.381  17.313  0.00  0.00    +0.000 A 
ATOM     22 CL   UNL     1      -2.950   9.517  15.964  0.00  0.00    +0.000 Cl
ATOM     23  C   UNL     1      -0.964  10.315  17.606  0.00  0.00    +0.000 A 
ENDBRANCH  15  16
ENDBRANCH   4  15
TORSDOF 4
ENDMDL
MODEL 7
REMARK VINA RESULT:      -7.2      3.134      6.839
REMARK  Name = 
REMARK  4 active torsions:
REMARK  status: ('A' for Active; 'I' for Inactive)
REMARK    1  A    between atoms: S_2  and  C_4
REMARK    2  A    between atoms: S_2  and  C_20
REMARK    3  A    between atoms: C_7  and  O_8
REMARK    4  A    between atoms: O_8  and  C_9
REMARK                            x       y       z     vdW  Elec       q    Type
REMARK                         _______ _______ _______ _____ _____    ______ ____
ROOT
ATOM      1  C   UNL     1       2.535   7.093  18.701  0.00  0.00    +0.000 A 
ATOM      2  C   UNL     1       2.564   8.063  17.699  0.00  0.00    +0.000 A 
ATOM      3  C   UNL     1       1.994   9.314  17.944  0.00  0.00    +0.000 A 
ATOM      4  C   UNL     1       1.392   9.600  19.179  0.00  0.00    +0.000 A 
ATOM      5  C   UNL     1       1.291   8.585  20.144  0.00  0.00    +0.000 A 
ATOM      6 CL   UNL     1       0.358   8.721  21.593  0.00  0.00    +0.000 Cl
ATOM      7  C   UNL     1       1.910   7.350  19.925  0.00  0.00    +0.000 A 
ENDROOT
BRANCH   1   9
ATOM      8  O   UNL     1       4.183   5.694  17.267  0.00  0.00    +0.000 OA
ATOM      9  S   UNL     1       3.361   5.529  18.455  0.00  0.00    +0.000 S 
ATOM     10  O   UNL     1       4.002   5.221  19.726  0.00  0.00    +0.000 OA
BRANCH   9  11
ATOM     11  C   UNL     1       1.973   4.378  18.128  0.00  0.00    +0.000 C 
ATOM     12  F   UNL     1       1.292   4.047  19.265  0.00  0.00    +0.000 F 
ATOM     13  F   UNL     1       1.049   4.904  17.274  0.00  0.00    +0.000 F 
ATOM     14  F   UNL     1       2.385   3.201  17.578  0.00  0.00    +0.000 F 
ENDBRANCH   9  11
ENDBRANCH   1   9
BRANCH   4  15
ATOM     15  O   UNL     1       0.877  10.877  19.264  0.00  0.00    +0.000 OA
BRANCH  15  16
ATOM     16  C   UNL     1      -0.446  11.121  18.973  0.00  0.00    +0.000 A 
ATOM     17  C   UNL     1      -1.277  11.987  19.685  0.00  0.00    +0.000 A 
ATOM     18  C   UNL     1      -2.636  12.027  19.378  0.00  0.00    +0.000 A 
ATOM     19  F   UNL     1      -3.454  12.778  20.127  0.00  0.00    +0.000 F 
ATOM     20  C   UNL     1      -3.165  11.282  18.332  0.00  0.00    +0.000 A 
ATOM     21  C   UNL     1      -2.309  10.503  17.561  0.00  0.00    +0.000 A 
ATOM     22 CL   UNL     1      -2.931   9.612  16.228  0.00  0.00    +0.000 Cl
ATOM     23  C   UNL     1      -0.952  10.421  17.874  0.00  0.00    +0.000 A 
ENDBRANCH  15  16
ENDBRANCH   4  15
TORSDOF 4
ENDMDL
MODEL 8
REMARK VINA RESULT:      -7.2      3.227      3.740
REMARK  Name = 
REMARK  4 active torsions:
REMARK  status: ('A' for Active; 'I' for Inactive)
REMARK    1  A    between atoms: S_2  and  C_4
REMARK    2  A    between atoms: S_2  and  C_20
REMARK    3  A    between atoms: C_7  and  O_8
REMARK    4  A    between atoms: O_8  and  C_9
REMARK                            x       y       z     vdW  Elec       q    Type
REMARK                         _______ _______ _______ _____ _____    ______ ____
ROOT
ATOM      1  C   UNL     1       1.728   9.013  18.992  0.00  0.00    +0.000 A 
ATOM      2  C   UNL     1       2.446   8.781  17.819  0.00  0.00    +0.000 A 
ATOM      3  C   UNL     1       2.957   7.505  17.573  0.00  0.00    +0.000 A 
ATOM      4  C   UNL     1       2.760   6.463  18.492  0.00  0.00    +0.000 A 
ATOM      5  C   UNL     1       2.113   6.735  19.708  0.00  0.00    +0.000 A 
ATOM      6 CL   UNL     1       2.030   5.619  21.027  0.00  0.00    +0.000 Cl
ATOM      7  C   UNL     1       1.550   7.996  19.933  0.00  0.00    +0.000 A 
ENDROOT
BRANCH   1   9
ATOM      8  O   UNL     1       0.780  10.710  20.711  0.00  0.00    +0.000 OA
ATOM      9  S   UNL     1       0.964  10.603  19.272  0.00  0.00    +0.000 S 
ATOM     10  O   UNL     1       1.813  11.571  18.590  0.00  0.00    +0.000 OA
BRANCH   9  11
ATOM     11  C   UNL     1      -0.651  10.439  18.422  0.00  0.00    +0.000 C 
ATOM     12  F   UNL     1      -0.591   9.601  17.345  0.00  0.00    +0.000 F 
ATOM     13  F   UNL     1      -1.622   9.936  19.238  0.00  0.00    +0.000 F 
ATOM     14  F   UNL     1      -1.120  11.628  17.950  0.00  0.00    +0.000 F 
ENDBRANCH   9  11
ENDBRANCH   1   9
BRANCH   4  15
ATOM     15  O   UNL     1       3.325   5.265  18.104  0.00  0.00    +0.000 OA
BRANCH  15  16
ATOM     16  C   UNL     1       4.689   5.144  17.970  0.00  0.00    +0.000 A 
ATOM     17  C   UNL     1       5.613   5.301  19.003  0.00  0.00    +0.000 A 
ATOM     18  C   UNL     1       6.973   5.301  18.701  0.00  0.00    +0.000 A 
ATOM     19  F   UNL     1       7.859   5.556  19.673  0.00  0.00    +0.000 F 
ATOM     20  C   UNL     1       7.429   5.073  17.410  0.00  0.00    +0.000 A 
ATOM     21  C   UNL     1       6.503   4.812  16.406  0.00  0.00    +0.000 A 
ATOM     22 CL   UNL     1       7.043   4.474  14.809  0.00  0.00    +0.000 Cl
ATOM     23  C   UNL     1       5.135   4.842  16.680  0.00  0.00    +0.000 A 
ENDBRANCH  15  16
ENDBRANCH   4  15
TORSDOF 4
ENDMDL
MODEL 9
REMARK VINA RESULT:      -7.2      1.544      2.010
REMARK  Name = 
REMARK  4 active torsions:
REMARK  status: ('A' for Active; 'I' for Inactive)
REMARK    1  A    between atoms: S_2  and  C_4
REMARK    2  A    between atoms: S_2  and  C_20
REMARK    3  A    between atoms: C_7  and  O_8
REMARK    4  A    between atoms: O_8  and  C_9
REMARK                            x       y       z     vdW  Elec       q    Type
REMARK                         _______ _______ _______ _____ _____    ______ ____
ROOT
ATOM      1  C   UNL     1      -0.267  10.344  18.892  0.00  0.00    +0.000 A 
ATOM      2  C   UNL     1       0.593   9.862  17.906  0.00  0.00    +0.000 A 
ATOM      3  C   UNL     1       1.548   8.901  18.244  0.00  0.00    +0.000 A 
ATOM      4  C   UNL     1       1.653   8.424  19.560  0.00  0.00    +0.000 A 
ATOM      5  C   UNL     1       0.840   8.985  20.558  0.00  0.00    +0.000 A 
ATOM      6 CL   UNL     1       1.039   8.678  22.249  0.00  0.00    +0.000 Cl
ATOM      7  C   UNL     1      -0.156   9.904  20.214  0.00  0.00    +0.000 A 
ENDROOT
BRANCH   1   9
ATOM      8  O   UNL     1      -2.295  11.751  19.693  0.00  0.00    +0.000 OA
ATOM      9  S   UNL     1      -1.574  11.482  18.459  0.00  0.00    +0.000 S 
ATOM     10  O   UNL     1      -0.920  12.582  17.764  0.00  0.00    +0.000 OA
BRANCH   9  11
ATOM     11  C   UNL     1      -2.607  10.503  17.304  0.00  0.00    +0.000 C 
ATOM     12  F   UNL     1      -3.284  11.288  16.417  0.00  0.00    +0.000 F 
ATOM     13  F   UNL     1      -1.870   9.634  16.554  0.00  0.00    +0.000 F 
ATOM     14  F   UNL     1      -3.550   9.758  17.947  0.00  0.00    +0.000 F 
ENDBRANCH   9  11
ENDBRANCH   1   9
BRANCH   4  15
ATOM     15  O   UNL     1       2.644   7.479  19.732  0.00  0.00    +0.000 OA
BRANCH  15  16
ATOM     16  C   UNL     1       2.409   6.156  19.437  0.00  0.00    +0.000 A 
ATOM     17  C   UNL     1       2.472   5.596  18.161  0.00  0.00    +0.000 A 
ATOM     18  C   UNL     1       2.064   4.276  17.979  0.00  0.00    +0.000 A 
ATOM     19  F   UNL     1       2.024   3.768  16.740  0.00  0.00    +0.000 F 
ATOM     20  C   UNL     1       1.671   3.485  19.051  0.00  0.00    +0.000 A 
ATOM     21  C   UNL     1       1.714   4.021  20.333  0.00  0.00    +0.000 A 
ATOM     22 CL   UNL     1       1.281   3.046  21.682  0.00  0.00    +0.000 Cl
ATOM     23  C   UNL     1       2.085   5.351  20.532  0.00  0.00    +0.000 A 
ENDBRANCH  15  16
ENDBRANCH   4  15
TORSDOF 4
ENDMDL
