MODEL 1
REMARK VINA RESULT:      -8.7      0.000      0.000
REMARK  Name = 
REMARK  10 active torsions:
REMARK  status: ('A' for Active; 'I' for Inactive)
REMARK    1  A    between atoms: C_1  and  C_2
REMARK    2  A    between atoms: C_2  and  C_3
REMARK    3  A    between atoms: C_2  and  N_4
REMARK    4  A    between atoms: C_5  and  C_7
REMARK    5  A    between atoms: C_12  and  C_13
REMARK    6  A    between atoms: C_16  and  C_17
REMARK    7  A    between atoms: C_21  and  C_22
REMARK    8  A    between atoms: N_24  and  C_25
REMARK    9  A    between atoms: C_25  and  C_26
REMARK   10  A    between atoms: C_25  and  C_27
REMARK                            x       y       z     vdW  Elec       q    Type
REMARK                         _______ _______ _______ _____ _____    ______ ____
ROOT
ATOM      1  C   UNL     1       1.765   8.380  19.318  0.00  0.00    +0.000 A 
ATOM      2  C   UNL     1       1.506   8.273  20.692  0.00  0.00    +0.000 A 
ATOM      3  C   UNL     1       0.789   9.265  21.372  0.00  0.00    +0.000 A 
ATOM      4  C   UNL     1       0.312  10.393  20.694  0.00  0.00    +0.000 A 
ATOM      5  C   UNL     1       0.576  10.509  19.324  0.00  0.00    +0.000 A 
ATOM      6  C   UNL     1       1.289   9.512  18.645  0.00  0.00    +0.000 A 
ENDROOT
BRANCH   1  12
ATOM      7  C   UNL     1       5.278   4.656  16.220  0.00  0.00    +0.000 A 
ATOM      8  C   UNL     1       4.526   3.660  16.868  0.00  0.00    +0.000 A 
ATOM      9  C   UNL     1       3.483   3.984  17.745  0.00  0.00    +0.000 A 
ATOM     10  C   UNL     1       3.242   5.341  17.943  0.00  0.00    +0.000 A 
ATOM     11  N   UNL     1       2.341   6.005  18.730  0.00  0.00    +0.000 N 
ATOM     12  C   UNL     1       2.527   7.361  18.587  0.00  0.00    +0.000 A 
ATOM     13  N   UNL     1       3.492   7.586  17.707  0.00  0.00    +0.000 NA
ATOM     14  C   UNL     1       3.948   6.350  17.310  0.00  0.00    +0.000 A 
ATOM     15  C   UNL     1       4.977   6.015  16.420  0.00  0.00    +0.000 A 
ATOM     16  H   UNL     1       1.662   5.566  19.330  0.00  0.00    +0.000 HD
BRANCH   7  18
ATOM     17  N   UNL     1       6.186   3.615  14.159  0.00  0.00    +0.000 N 
ATOM     18  C   UNL     1       6.438   4.246  15.358  0.00  0.00    +0.000 C 
ATOM     19  N   UNL     1       7.636   4.527  15.765  0.00  0.00    +0.000 NA
ATOM     20  H   UNL     1       5.204   3.545  13.914  0.00  0.00    +0.000 HD
ATOM     21  H   UNL     1       8.313   4.165  15.094  0.00  0.00    +0.000 HD
BRANCH  17  23
ATOM     22  C   UNL     1       6.309   3.064  11.796  0.00  0.00    +0.000 C 
ATOM     23  C   UNL     1       7.038   3.708  12.975  0.00  0.00    +0.000 C 
ATOM     24  C   UNL     1       7.358   5.165  12.649  0.00  0.00    +0.000 C 
ENDBRANCH  17  23
ENDBRANCH   7  18
ENDBRANCH   1  12
BRANCH   4  25
ATOM     25  C   UNL     1      -0.425  11.453  21.383  0.00  0.00    +0.000 A 
ATOM     26  N   UNL     1      -1.719  11.455  21.651  0.00  0.00    +0.000 NA
ATOM     27  C   UNL     1      -1.977  12.645  22.285  0.00  0.00    +0.000 A 
ATOM     28  C   UNL     1      -3.194  13.170  22.743  0.00  0.00    +0.000 A 
ATOM     29  C   UNL     1      -3.210  14.430  23.370  0.00  0.00    +0.000 A 
ATOM     30  C   UNL     1      -2.000  15.133  23.524  0.00  0.00    +0.000 A 
ATOM     31  C   UNL     1      -0.776  14.627  23.061  0.00  0.00    +0.000 A 
ATOM     32  C   UNL     1      -0.813  13.382  22.441  0.00  0.00    +0.000 A 
ATOM     33  N   UNL     1       0.156  12.605  21.865  0.00  0.00    +0.000 N 
ATOM     34  H   UNL     1       1.137  12.834  21.809  0.00  0.00    +0.000 HD
BRANCH  29  35
ATOM     35  C   UNL     1      -4.534  15.041  23.776  0.00  0.00    +0.000 C 
ATOM     36  N   UNL     1      -5.536  14.324  24.185  0.00  0.00    +0.000 NA
ATOM     37  N   UNL     1      -4.683  16.408  23.754  0.00  0.00    +0.000 N 
ATOM     38  H   UNL     1      -5.356  13.325  24.172  0.00  0.00    +0.000 HD
ATOM     39  H   UNL     1      -4.230  16.936  23.020  0.00  0.00    +0.000 HD
BRANCH  37  40
ATOM     40  C   UNL     1      -5.696  17.121  24.518  0.00  0.00    +0.000 C 
ATOM     41  C   UNL     1      -4.994  18.053  25.504  0.00  0.00    +0.000 C 
ATOM     42  C   UNL     1      -6.626  17.913  23.606  0.00  0.00    +0.000 C 
ENDBRANCH  37  40
ENDBRANCH  29  35
ENDBRANCH   4  25
TORSDOF 6
ENDMDL
MODEL 2
REMARK VINA RESULT:      -8.6      1.428     13.948
REMARK  Name = 
REMARK  10 active torsions:
REMARK  status: ('A' for Active; 'I' for Inactive)
REMARK    1  A    between atoms: C_1  and  C_2
REMARK    2  A    between atoms: C_2  and  C_3
REMARK    3  A    between atoms: C_2  and  N_4
REMARK    4  A    between atoms: C_5  and  C_7
REMARK    5  A    between atoms: C_12  and  C_13
REMARK    6  A    between atoms: C_16  and  C_17
REMARK    7  A    between atoms: C_21  and  C_22
REMARK    8  A    between atoms: N_24  and  C_25
REMARK    9  A    between atoms: C_25  and  C_26
REMARK   10  A    between atoms: C_25  and  C_27
REMARK                            x       y       z     vdW  Elec       q    Type
REMARK                         _______ _______ _______ _____ _____    ______ ____
ROOT
ATOM      1  C   UNL     1      -0.188  10.534  20.612  0.00  0.00    +0.000 A 
ATOM      2  C   UNL     1       0.293   9.429  21.330  0.00  0.00    +0.000 A 
ATOM      3  C   UNL     1       1.151   8.498  20.732  0.00  0.00    +0.000 A 
ATOM      4  C   UNL     1       1.549   8.646  19.398  0.00  0.00    +0.000 A 
ATOM      5  C   UNL     1       1.062   9.741  18.675  0.00  0.00    +0.000 A 
ATOM      6  C   UNL     1       0.209  10.675  19.277  0.00  0.00    +0.000 A 
ENDROOT
BRANCH   1  12
ATOM      7  C   UNL     1      -4.298  14.391  22.622  0.00  0.00    +0.000 A 
ATOM      8  C   UNL     1      -3.524  14.360  23.796  0.00  0.00    +0.000 A 
ATOM      9  C   UNL     1      -2.356  13.593  23.882  0.00  0.00    +0.000 A 
ATOM     10  C   UNL     1      -2.012  12.861  22.748  0.00  0.00    +0.000 A 
ATOM     11  N   UNL     1      -0.976  12.006  22.491  0.00  0.00    +0.000 N 
ATOM     12  C   UNL     1      -1.100  11.515  21.211  0.00  0.00    +0.000 A 
ATOM     13  N   UNL     1      -2.160  12.056  20.630  0.00  0.00    +0.000 NA
ATOM     14  C   UNL     1      -2.737  12.880  21.569  0.00  0.00    +0.000 A 
ATOM     15  C   UNL     1      -3.895  13.666  21.486  0.00  0.00    +0.000 A 
ATOM     16  H   UNL     1      -0.249  11.764  23.144  0.00  0.00    +0.000 HD
BRANCH   7  18
ATOM     17  N   UNL     1      -6.078  15.635  21.421  0.00  0.00    +0.000 N 
ATOM     18  C   UNL     1      -5.586  15.165  22.620  0.00  0.00    +0.000 C 
ATOM     19  N   UNL     1      -6.201  15.338  23.747  0.00  0.00    +0.000 NA
ATOM     20  H   UNL     1      -5.552  15.345  20.604  0.00  0.00    +0.000 HD
ATOM     21  H   UNL     1      -7.037  15.900  23.592  0.00  0.00    +0.000 HD
BRANCH  17  23
ATOM     22  C   UNL     1      -7.772  17.319  20.977  0.00  0.00    +0.000 C 
ATOM     23  C   UNL     1      -7.495  15.822  21.120  0.00  0.00    +0.000 C 
ATOM     24  C   UNL     1      -7.875  15.103  19.827  0.00  0.00    +0.000 C 
ENDBRANCH  17  23
ENDBRANCH   7  18
ENDBRANCH   1  12
BRANCH   4  25
ATOM     25  C   UNL     1       2.431   7.678  18.744  0.00  0.00    +0.000 A 
ATOM     26  N   UNL     1       3.293   7.937  17.778  0.00  0.00    +0.000 NA
ATOM     27  C   UNL     1       3.883   6.740  17.459  0.00  0.00    +0.000 A 
ATOM     28  C   UNL     1       4.837   6.446  16.473  0.00  0.00    +0.000 A 
ATOM     29  C   UNL     1       5.298   5.124  16.331  0.00  0.00    +0.000 A 
ATOM     30  C   UNL     1       4.792   4.127  17.187  0.00  0.00    +0.000 A 
ATOM     31  C   UNL     1       3.829   4.402  18.170  0.00  0.00    +0.000 A 
ATOM     32  C   UNL     1       3.399   5.722  18.266  0.00  0.00    +0.000 A 
ATOM     33  N   UNL     1       2.482   6.341  19.073  0.00  0.00    +0.000 N 
ATOM     34  H   UNL     1       1.939   5.894  19.796  0.00  0.00    +0.000 HD
BRANCH  29  35
ATOM     35  C   UNL     1       6.252   4.786  15.206  0.00  0.00    +0.000 C 
ATOM     36  N   UNL     1       7.535   4.696  15.384  0.00  0.00    +0.000 NA
ATOM     37  N   UNL     1       5.753   4.524  13.952  0.00  0.00    +0.000 N 
ATOM     38  H   UNL     1       7.832   4.906  16.331  0.00  0.00    +0.000 HD
ATOM     39  H   UNL     1       4.951   5.048  13.626  0.00  0.00    +0.000 HD
BRANCH  37  40
ATOM     40  C   UNL     1       6.476   3.773  12.936  0.00  0.00    +0.000 C 
ATOM     41  C   UNL     1       5.462   3.107  12.008  0.00  0.00    +0.000 C 
ATOM     42  C   UNL     1       7.414   4.674  12.141  0.00  0.00    +0.000 C 
ENDBRANCH  37  40
ENDBRANCH  29  35
ENDBRANCH   4  25
TORSDOF 6
ENDMDL
MODEL 3
REMARK VINA RESULT:      -8.6      0.524     14.236
REMARK  Name = 
REMARK  10 active torsions:
REMARK  status: ('A' for Active; 'I' for Inactive)
REMARK    1  A    between atoms: C_1  and  C_2
REMARK    2  A    between atoms: C_2  and  C_3
REMARK    3  A    between atoms: C_2  and  N_4
REMARK    4  A    between atoms: C_5  and  C_7
REMARK    5  A    between atoms: C_12  and  C_13
REMARK    6  A    between atoms: C_16  and  C_17
REMARK    7  A    between atoms: C_21  and  C_22
REMARK    8  A    between atoms: N_24  and  C_25
REMARK    9  A    between atoms: C_25  and  C_26
REMARK   10  A    between atoms: C_25  and  C_27
REMARK                            x       y       z     vdW  Elec       q    Type
REMARK                         _______ _______ _______ _____ _____    ______ ____
ROOT
ATOM      1  C   UNL     1       0.246  10.745  20.739  0.00  0.00    +0.000 A 
ATOM      2  C   UNL     1       0.533   9.523  21.364  0.00  0.00    +0.000 A 
ATOM      3  C   UNL     1       1.255   8.524  20.699  0.00  0.00    +0.000 A 
ATOM      4  C   UNL     1       1.708   8.722  19.389  0.00  0.00    +0.000 A 
ATOM      5  C   UNL     1       1.415   9.936  18.759  0.00  0.00    +0.000 A 
ATOM      6  C   UNL     1       0.697  10.937  19.428  0.00  0.00    +0.000 A 
ENDROOT
BRANCH   1  12
ATOM      7  C   UNL     1      -3.344  14.658  23.499  0.00  0.00    +0.000 A 
ATOM      8  C   UNL     1      -2.140  15.338  23.759  0.00  0.00    +0.000 A 
ATOM      9  C   UNL     1      -0.912  14.855  23.293  0.00  0.00    +0.000 A 
ATOM     10  C   UNL     1      -0.949  13.666  22.569  0.00  0.00    +0.000 A 
ATOM     11  N   UNL     1       0.039  12.912  21.996  0.00  0.00    +0.000 N 
ATOM     12  C   UNL     1      -0.522  11.800  21.409  0.00  0.00    +0.000 A 
ATOM     13  N   UNL     1      -1.839  11.839  21.555  0.00  0.00    +0.000 NA
ATOM     14  C   UNL     1      -2.114  12.978  22.277  0.00  0.00    +0.000 A 
ATOM     15  C   UNL     1      -3.342  13.479  22.732  0.00  0.00    +0.000 A 
ATOM     16  H   UNL     1       1.021  13.131  22.019  0.00  0.00    +0.000 HD
BRANCH   7  18
ATOM     17  N   UNL     1      -4.593  16.380  24.775  0.00  0.00    +0.000 N 
ATOM     18  C   UNL     1      -4.619  15.180  24.099  0.00  0.00    +0.000 C 
ATOM     19  N   UNL     1      -5.703  14.492  23.931  0.00  0.00    +0.000 NA
ATOM     20  H   UNL     1      -3.702  16.865  24.747  0.00  0.00    +0.000 HD
ATOM     21  H   UNL     1      -6.473  14.954  24.414  0.00  0.00    +0.000 HD
BRANCH  17  23
ATOM     22  C   UNL     1      -5.310  18.487  25.749  0.00  0.00    +0.000 C 
ATOM     23  C   UNL     1      -5.717  17.310  24.863  0.00  0.00    +0.000 C 
ATOM     24  C   UNL     1      -6.109  17.819  23.478  0.00  0.00    +0.000 C 
ENDBRANCH  17  23
ENDBRANCH   7  18
ENDBRANCH   1  12
BRANCH   4  25
ATOM     25  C   UNL     1       2.450   7.688  18.666  0.00  0.00    +0.000 A 
ATOM     26  N   UNL     1       3.457   7.889  17.834  0.00  0.00    +0.000 NA
ATOM     27  C   UNL     1       3.829   6.650  17.377  0.00  0.00    +0.000 A 
ATOM     28  C   UNL     1       4.816   6.299  16.443  0.00  0.00    +0.000 A 
ATOM     29  C   UNL     1       5.017   4.942  16.128  0.00  0.00    +0.000 A 
ATOM     30  C   UNL     1       4.222   3.968  16.762  0.00  0.00    +0.000 A 
ATOM     31  C   UNL     1       3.224   4.303  17.689  0.00  0.00    +0.000 A 
ATOM     32  C   UNL     1       3.059   5.657  17.961  0.00  0.00    +0.000 A 
ATOM     33  N   UNL     1       2.194   6.339  18.776  0.00  0.00    +0.000 N 
ATOM     34  H   UNL     1       1.490   5.923  19.365  0.00  0.00    +0.000 HD
BRANCH  29  35
ATOM     35  C   UNL     1       6.011   4.569  15.050  0.00  0.00    +0.000 C 
ATOM     36  N   UNL     1       7.284   4.463  15.283  0.00  0.00    +0.000 NA
ATOM     37  N   UNL     1       5.560   4.289  13.781  0.00  0.00    +0.000 N 
ATOM     38  H   UNL     1       7.545   4.688  16.238  0.00  0.00    +0.000 HD
ATOM     39  H   UNL     1       4.781   4.818  13.413  0.00  0.00    +0.000 HD
BRANCH  37  40
ATOM     40  C   UNL     1       6.314   3.508  12.811  0.00  0.00    +0.000 C 
ATOM     41  C   UNL     1       5.328   2.736  11.936  0.00  0.00    +0.000 C 
ATOM     42  C   UNL     1       7.204   4.399  11.952  0.00  0.00    +0.000 C 
ENDBRANCH  37  40
ENDBRANCH  29  35
ENDBRANCH   4  25
TORSDOF 6
ENDMDL
MODEL 4
REMARK VINA RESULT:      -8.4      0.930      1.282
REMARK  Name = 
REMARK  10 active torsions:
REMARK  status: ('A' for Active; 'I' for Inactive)
REMARK    1  A    between atoms: C_1  and  C_2
REMARK    2  A    between atoms: C_2  and  C_3
REMARK    3  A    between atoms: C_2  and  N_4
REMARK    4  A    between atoms: C_5  and  C_7
REMARK    5  A    between atoms: C_12  and  C_13
REMARK    6  A    between atoms: C_16  and  C_17
REMARK    7  A    between atoms: C_21  and  C_22
REMARK    8  A    between atoms: N_24  and  C_25
REMARK    9  A    between atoms: C_25  and  C_26
REMARK   10  A    between atoms: C_25  and  C_27
REMARK                            x       y       z     vdW  Elec       q    Type
REMARK                         _______ _______ _______ _____ _____    ______ ____
ROOT
ATOM      1  C   UNL     1       1.737   8.497  19.309  0.00  0.00    +0.000 A 
ATOM      2  C   UNL     1       1.390   8.398  20.665  0.00  0.00    +0.000 A 
ATOM      3  C   UNL     1       0.691   9.427  21.308  0.00  0.00    +0.000 A 
ATOM      4  C   UNL     1       0.322  10.584  20.612  0.00  0.00    +0.000 A 
ATOM      5  C   UNL     1       0.675  10.691  19.262  0.00  0.00    +0.000 A 
ATOM      6  C   UNL     1       1.369   9.658  18.618  0.00  0.00    +0.000 A 
ENDROOT
BRANCH   1  12
ATOM      7  C   UNL     1       5.197   4.600  16.368  0.00  0.00    +0.000 A 
ATOM      8  C   UNL     1       4.404   3.642  17.025  0.00  0.00    +0.000 A 
ATOM      9  C   UNL     1       3.355   4.017  17.873  0.00  0.00    +0.000 A 
ATOM     10  C   UNL     1       3.150   5.385  18.035  0.00  0.00    +0.000 A 
ATOM     11  N   UNL     1       2.254   6.093  18.788  0.00  0.00    +0.000 N 
ATOM     12  C   UNL     1       2.482   7.440  18.617  0.00  0.00    +0.000 A 
ATOM     13  N   UNL     1       3.470   7.615  17.751  0.00  0.00    +0.000 NA
ATOM     14  C   UNL     1       3.897   6.358  17.393  0.00  0.00    +0.000 A 
ATOM     15  C   UNL     1       4.933   5.972  16.530  0.00  0.00    +0.000 A 
ATOM     16  H   UNL     1       1.552   5.688  19.385  0.00  0.00    +0.000 HD
BRANCH   7  18
ATOM     17  N   UNL     1       6.136   3.745  14.237  0.00  0.00    +0.000 N 
ATOM     18  C   UNL     1       6.361   4.136  15.539  0.00  0.00    +0.000 C 
ATOM     19  N   UNL     1       7.540   4.148  16.074  0.00  0.00    +0.000 NA
ATOM     20  H   UNL     1       5.183   3.877  13.912  0.00  0.00    +0.000 HD
ATOM     21  H   UNL     1       8.217   3.784  15.405  0.00  0.00    +0.000 HD
BRANCH  17  23
ATOM     22  C   UNL     1       6.512   3.239  11.891  0.00  0.00    +0.000 C 
ATOM     23  C   UNL     1       7.105   3.870  13.151  0.00  0.00    +0.000 C 
ATOM     24  C   UNL     1       7.436   5.337  12.885  0.00  0.00    +0.000 C 
ENDBRANCH  17  23
ENDBRANCH   7  18
ENDBRANCH   1  12
BRANCH   4  25
ATOM     25  C   UNL     1      -0.394  11.681  21.265  0.00  0.00    +0.000 A 
ATOM     26  N   UNL     1      -1.694  11.737  21.494  0.00  0.00    +0.000 NA
ATOM     27  C   UNL     1      -1.924  12.945  22.103  0.00  0.00    +0.000 A 
ATOM     28  C   UNL     1      -3.134  13.523  22.517  0.00  0.00    +0.000 A 
ATOM     29  C   UNL     1      -3.120  14.792  23.126  0.00  0.00    +0.000 A 
ATOM     30  C   UNL     1      -1.889  15.451  23.306  0.00  0.00    +0.000 A 
ATOM     31  C   UNL     1      -0.671  14.892  22.887  0.00  0.00    +0.000 A 
ATOM     32  C   UNL     1      -0.739  13.639  22.284  0.00  0.00    +0.000 A 
ATOM     33  N   UNL     1       0.217  12.818  21.747  0.00  0.00    +0.000 N 
ATOM     34  H   UNL     1       1.206  13.009  21.717  0.00  0.00    +0.000 HD
BRANCH  29  35
ATOM     35  C   UNL     1      -4.430  15.459  23.484  0.00  0.00    +0.000 C 
ATOM     36  N   UNL     1      -4.527  16.737  23.690  0.00  0.00    +0.000 NA
ATOM     37  N   UNL     1      -5.576  14.703  23.559  0.00  0.00    +0.000 N 
ATOM     38  H   UNL     1      -3.642  17.231  23.623  0.00  0.00    +0.000 HD
ATOM     39  H   UNL     1      -5.516  13.762  23.925  0.00  0.00    +0.000 HD
BRANCH  37  40
ATOM     40  C   UNL     1      -6.917  15.258  23.447  0.00  0.00    +0.000 C 
ATOM     41  C   UNL     1      -7.347  15.197  21.982  0.00  0.00    +0.000 C 
ATOM     42  C   UNL     1      -7.907  14.501  24.325  0.00  0.00    +0.000 C 
ENDBRANCH  37  40
ENDBRANCH  29  35
ENDBRANCH   4  25
TORSDOF 6
ENDMDL
MODEL 5
REMARK VINA RESULT:      -8.3      1.077     14.029
REMARK  Name = 
REMARK  10 active torsions:
REMARK  status: ('A' for Active; 'I' for Inactive)
REMARK    1  A    between atoms: C_1  and  C_2
REMARK    2  A    between atoms: C_2  and  C_3
REMARK    3  A    between atoms: C_2  and  N_4
REMARK    4  A    between atoms: C_5  and  C_7
REMARK    5  A    between atoms: C_12  and  C_13
REMARK    6  A    between atoms: C_16  and  C_17
REMARK    7  A    between atoms: C_21  and  C_22
REMARK    8  A    between atoms: N_24  and  C_25
REMARK    9  A    between atoms: C_25  and  C_26
REMARK   10  A    between atoms: C_25  and  C_27
REMARK                            x       y       z     vdW  Elec       q    Type
REMARK                         _______ _______ _______ _____ _____    ______ ____
ROOT
ATOM      1  C   UNL     1      -0.146  10.418  20.803  0.00  0.00    +0.000 A 
ATOM      2  C   UNL     1       0.256  10.675  19.484  0.00  0.00    +0.000 A 
ATOM      3  C   UNL     1       1.099   9.789  18.801  0.00  0.00    +0.000 A 
ATOM      4  C   UNL     1       1.565   8.624  19.421  0.00  0.00    +0.000 A 
ATOM      5  C   UNL     1       1.174   8.369  20.741  0.00  0.00    +0.000 A 
ATOM      6  C   UNL     1       0.326   9.253  21.421  0.00  0.00    +0.000 A 
ENDROOT
BRANCH   1  12
ATOM      7  C   UNL     1      -3.742  14.486  23.320  0.00  0.00    +0.000 A 
ATOM      8  C   UNL     1      -3.910  13.496  24.305  0.00  0.00    +0.000 A 
ATOM      9  C   UNL     1      -3.239  12.270  24.232  0.00  0.00    +0.000 A 
ATOM     10  C   UNL     1      -2.407  12.084  23.130  0.00  0.00    +0.000 A 
ATOM     11  N   UNL     1      -1.636  11.026  22.734  0.00  0.00    +0.000 N 
ATOM     12  C   UNL     1      -1.016  11.337  21.545  0.00  0.00    +0.000 A 
ATOM     13  N   UNL     1      -1.337  12.572  21.188  0.00  0.00    +0.000 NA
ATOM     14  C   UNL     1      -2.202  13.040  22.151  0.00  0.00    +0.000 A 
ATOM     15  C   UNL     1      -2.863  14.273  22.242  0.00  0.00    +0.000 A 
ATOM     16  H   UNL     1      -1.552  10.154  23.229  0.00  0.00    +0.000 HD
BRANCH   7  18
ATOM     17  N   UNL     1      -4.462  16.671  22.391  0.00  0.00    +0.000 N 
ATOM     18  C   UNL     1      -4.554  15.747  23.410  0.00  0.00    +0.000 C 
ATOM     19  N   UNL     1      -5.333  15.904  24.432  0.00  0.00    +0.000 NA
ATOM     20  H   UNL     1      -3.892  16.380  21.604  0.00  0.00    +0.000 HD
ATOM     21  H   UNL     1      -5.794  16.811  24.368  0.00  0.00    +0.000 HD
BRANCH  17  23
ATOM     22  C   UNL     1      -6.807  16.743  21.761  0.00  0.00    +0.000 C 
ATOM     23  C   UNL     1      -5.540  17.568  21.983  0.00  0.00    +0.000 C 
ATOM     24  C   UNL     1      -5.797  18.629  23.052  0.00  0.00    +0.000 C 
ENDBRANCH  17  23
ENDBRANCH   7  18
ENDBRANCH   1  12
BRANCH   4  25
ATOM     25  C   UNL     1       2.460   7.691  18.735  0.00  0.00    +0.000 A 
ATOM     26  N   UNL     1       3.282   7.986  17.745  0.00  0.00    +0.000 NA
ATOM     27  C   UNL     1       3.905   6.812  17.402  0.00  0.00    +0.000 A 
ATOM     28  C   UNL     1       4.838   6.557  16.385  0.00  0.00    +0.000 A 
ATOM     29  C   UNL     1       5.342   5.253  16.222  0.00  0.00    +0.000 A 
ATOM     30  C   UNL     1       4.899   4.235  17.088  0.00  0.00    +0.000 A 
ATOM     31  C   UNL     1       3.959   4.471  18.102  0.00  0.00    +0.000 A 
ATOM     32  C   UNL     1       3.484   5.774  18.218  0.00  0.00    +0.000 A 
ATOM     33  N   UNL     1       2.571   6.356  19.056  0.00  0.00    +0.000 N 
ATOM     34  H   UNL     1       2.067   5.887  19.793  0.00  0.00    +0.000 HD
BRANCH  29  35
ATOM     35  C   UNL     1       6.272   4.954  15.066  0.00  0.00    +0.000 C 
ATOM     36  N   UNL     1       7.560   5.091  15.156  0.00  0.00    +0.000 NA
ATOM     37  N   UNL     1       5.752   4.483  13.884  0.00  0.00    +0.000 N 
ATOM     38  H   UNL     1       7.873   5.446  16.054  0.00  0.00    +0.000 HD
ATOM     39  H   UNL     1       4.857   4.834  13.571  0.00  0.00    +0.000 HD
BRANCH  37  40
ATOM     40  C   UNL     1       6.531   3.754  12.893  0.00  0.00    +0.000 C 
ATOM     41  C   UNL     1       5.579   2.903  12.056  0.00  0.00    +0.000 C 
ATOM     42  C   UNL     1       7.323   4.703  12.001  0.00  0.00    +0.000 C 
ENDBRANCH  37  40
ENDBRANCH  29  35
ENDBRANCH   4  25
TORSDOF 6
ENDMDL
MODEL 6
REMARK VINA RESULT:      -8.1      1.264     14.063
REMARK  Name = 
REMARK  10 active torsions:
REMARK  status: ('A' for Active; 'I' for Inactive)
REMARK    1  A    between atoms: C_1  and  C_2
REMARK    2  A    between atoms: C_2  and  C_3
REMARK    3  A    between atoms: C_2  and  N_4
REMARK    4  A    between atoms: C_5  and  C_7
REMARK    5  A    between atoms: C_12  and  C_13
REMARK    6  A    between atoms: C_16  and  C_17
REMARK    7  A    between atoms: C_21  and  C_22
REMARK    8  A    between atoms: N_24  and  C_25
REMARK    9  A    between atoms: C_25  and  C_26
REMARK   10  A    between atoms: C_25  and  C_27
REMARK                            x       y       z     vdW  Elec       q    Type
REMARK                         _______ _______ _______ _____ _____    ______ ____
ROOT
ATOM      1  C   UNL     1      -0.159  10.594  20.267  0.00  0.00    +0.000 A 
ATOM      2  C   UNL     1       0.751   9.853  21.036  0.00  0.00    +0.000 A 
ATOM      3  C   UNL     1       1.595   8.906  20.441  0.00  0.00    +0.000 A 
ATOM      4  C   UNL     1       1.549   8.674  19.062  0.00  0.00    +0.000 A 
ATOM      5  C   UNL     1       0.635   9.403  18.293  0.00  0.00    +0.000 A 
ATOM      6  C   UNL     1      -0.204  10.355  18.888  0.00  0.00    +0.000 A 
ENDROOT
BRANCH   1  12
ATOM      7  C   UNL     1      -3.394  14.765  23.085  0.00  0.00    +0.000 A 
ATOM      8  C   UNL     1      -4.230  14.651  21.960  0.00  0.00    +0.000 A 
ATOM      9  C   UNL     1      -3.950  13.746  20.929  0.00  0.00    +0.000 A 
ATOM     10  C   UNL     1      -2.799  12.977  21.077  0.00  0.00    +0.000 A 
ATOM     11  N   UNL     1      -2.219  12.032  20.275  0.00  0.00    +0.000 N 
ATOM     12  C   UNL     1      -1.063  11.580  20.869  0.00  0.00    +0.000 A 
ATOM     13  N   UNL     1      -0.905  12.177  22.041  0.00  0.00    +0.000 NA
ATOM     14  C   UNL     1      -1.961  13.047  22.177  0.00  0.00    +0.000 A 
ATOM     15  C   UNL     1      -2.260  13.943  23.213  0.00  0.00    +0.000 A 
ATOM     16  H   UNL     1      -2.578  11.732  19.383  0.00  0.00    +0.000 HD
BRANCH   7  18
ATOM     17  N   UNL     1      -2.700  16.219  24.973  0.00  0.00    +0.000 N 
ATOM     18  C   UNL     1      -3.701  15.814  24.116  0.00  0.00    +0.000 C 
ATOM     19  N   UNL     1      -4.894  16.319  24.142  0.00  0.00    +0.000 NA
ATOM     20  H   UNL     1      -1.789  15.816  24.781  0.00  0.00    +0.000 HD
ATOM     21  H   UNL     1      -4.958  16.992  24.906  0.00  0.00    +0.000 HD
BRANCH  17  23
ATOM     22  C   UNL     1      -1.258  17.662  26.290  0.00  0.00    +0.000 C 
ATOM     23  C   UNL     1      -2.595  17.553  25.558  0.00  0.00    +0.000 C 
ATOM     24  C   UNL     1      -2.679  18.628  24.477  0.00  0.00    +0.000 C 
ENDBRANCH  17  23
ENDBRANCH   7  18
ENDBRANCH   1  12
BRANCH   4  25
ATOM     25  C   UNL     1       2.407   7.678  18.419  0.00  0.00    +0.000 A 
ATOM     26  N   UNL     1       3.356   7.922  17.533  0.00  0.00    +0.000 NA
ATOM     27  C   UNL     1       3.883   6.702  17.189  0.00  0.00    +0.000 A 
ATOM     28  C   UNL     1       4.885   6.390  16.259  0.00  0.00    +0.000 A 
ATOM     29  C   UNL     1       5.262   5.046  16.075  0.00  0.00    +0.000 A 
ATOM     30  C   UNL     1       4.624   4.047  16.834  0.00  0.00    +0.000 A 
ATOM     31  C   UNL     1       3.611   4.341  17.760  0.00  0.00    +0.000 A 
ATOM     32  C   UNL     1       3.270   5.683  17.900  0.00  0.00    +0.000 A 
ATOM     33  N   UNL     1       2.340   6.326  18.674  0.00  0.00    +0.000 N 
ATOM     34  H   UNL     1       1.714   5.884  19.329  0.00  0.00    +0.000 HD
BRANCH  29  35
ATOM     35  C   UNL     1       6.271   4.697  15.003  0.00  0.00    +0.000 C 
ATOM     36  N   UNL     1       7.545   4.625  15.243  0.00  0.00    +0.000 NA
ATOM     37  N   UNL     1       5.835   4.404  13.732  0.00  0.00    +0.000 N 
ATOM     38  H   UNL     1       7.795   4.857  16.199  0.00  0.00    +0.000 HD
ATOM     39  H   UNL     1       5.044   4.913  13.359  0.00  0.00    +0.000 HD
BRANCH  37  40
ATOM     40  C   UNL     1       6.614   3.642  12.767  0.00  0.00    +0.000 C 
ATOM     41  C   UNL     1       5.652   2.859  11.875  0.00  0.00    +0.000 C 
ATOM     42  C   UNL     1       7.500   4.552  11.925  0.00  0.00    +0.000 C 
ENDBRANCH  37  40
ENDBRANCH  29  35
ENDBRANCH   4  25
TORSDOF 6
ENDMDL
MODEL 7
REMARK VINA RESULT:      -8.1      1.586      1.894
REMARK  Name = 
REMARK  10 active torsions:
REMARK  status: ('A' for Active; 'I' for Inactive)
REMARK    1  A    between atoms: C_1  and  C_2
REMARK    2  A    between atoms: C_2  and  C_3
REMARK    3  A    between atoms: C_2  and  N_4
REMARK    4  A    between atoms: C_5  and  C_7
REMARK    5  A    between atoms: C_12  and  C_13
REMARK    6  A    between atoms: C_16  and  C_17
REMARK    7  A    between atoms: C_21  and  C_22
REMARK    8  A    between atoms: N_24  and  C_25
REMARK    9  A    between atoms: C_25  and  C_26
REMARK   10  A    between atoms: C_25  and  C_27
REMARK                            x       y       z     vdW  Elec       q    Type
REMARK                         _______ _______ _______ _____ _____    ______ ____
ROOT
ATOM      1  C   UNL     1       1.511   8.555  19.795  0.00  0.00    +0.000 A 
ATOM      2  C   UNL     1       0.929   8.442  21.066  0.00  0.00    +0.000 A 
ATOM      3  C   UNL     1       0.100   9.450  21.573  0.00  0.00    +0.000 A 
ATOM      4  C   UNL     1      -0.168  10.600  20.822  0.00  0.00    +0.000 A 
ATOM      5  C   UNL     1       0.419  10.722  19.558  0.00  0.00    +0.000 A 
ATOM      6  C   UNL     1       1.244   9.710  19.049  0.00  0.00    +0.000 A 
ENDROOT
BRANCH   1  12
ATOM      7  C   UNL     1       5.352   4.762  17.213  0.00  0.00    +0.000 A 
ATOM      8  C   UNL     1       5.050   3.950  18.321  0.00  0.00    +0.000 A 
ATOM      9  C   UNL     1       4.131   4.355  19.296  0.00  0.00    +0.000 A 
ATOM     10  C   UNL     1       3.543   5.604  19.111  0.00  0.00    +0.000 A 
ATOM     11  N   UNL     1       2.641   6.311  19.859  0.00  0.00    +0.000 N 
ATOM     12  C   UNL     1       2.395   7.520  19.248  0.00  0.00    +0.000 A 
ATOM     13  N   UNL     1       3.081   7.593  18.117  0.00  0.00    +0.000 NA
ATOM     14  C   UNL     1       3.800   6.424  18.025  0.00  0.00    +0.000 A 
ATOM     15  C   UNL     1       4.708   6.001  17.044  0.00  0.00    +0.000 A 
ATOM     16  H   UNL     1       2.238   5.999  20.726  0.00  0.00    +0.000 HD
BRANCH   7  18
ATOM     17  N   UNL     1       6.022   3.783  15.034  0.00  0.00    +0.000 N 
ATOM     18  C   UNL     1       6.410   4.310  16.247  0.00  0.00    +0.000 C 
ATOM     19  N   UNL     1       7.652   4.458  16.582  0.00  0.00    +0.000 NA
ATOM     20  H   UNL     1       5.023   3.815  14.858  0.00  0.00    +0.000 HD
ATOM     21  H   UNL     1       8.248   4.084  15.844  0.00  0.00    +0.000 HD
BRANCH  17  23
ATOM     22  C   UNL     1       5.903   3.471  12.627  0.00  0.00    +0.000 C 
ATOM     23  C   UNL     1       6.797   3.878  13.799  0.00  0.00    +0.000 C 
ATOM     24  C   UNL     1       7.309   5.301  13.588  0.00  0.00    +0.000 C 
ENDBRANCH  17  23
ENDBRANCH   7  18
ENDBRANCH   1  12
BRANCH   4  25
ATOM     25  C   UNL     1      -1.017  11.676  21.336  0.00  0.00    +0.000 A 
ATOM     26  N   UNL     1      -1.962  12.311  20.665  0.00  0.00    +0.000 NA
ATOM     27  C   UNL     1      -2.480  13.246  21.526  0.00  0.00    +0.000 A 
ATOM     28  C   UNL     1      -3.475  14.210  21.307  0.00  0.00    +0.000 A 
ATOM     29  C   UNL     1      -3.843  15.073  22.357  0.00  0.00    +0.000 A 
ATOM     30  C   UNL     1      -3.204  14.944  23.604  0.00  0.00    +0.000 A 
ATOM     31  C   UNL     1      -2.199  13.992  23.836  0.00  0.00    +0.000 A 
ATOM     32  C   UNL     1      -1.865  13.168  22.766  0.00  0.00    +0.000 A 
ATOM     33  N   UNL     1      -0.944  12.166  22.621  0.00  0.00    +0.000 N 
ATOM     34  H   UNL     1      -0.319  11.833  23.340  0.00  0.00    +0.000 HD
BRANCH  29  35
ATOM     35  C   UNL     1      -4.844  16.177  22.095  0.00  0.00    +0.000 C 
ATOM     36  N   UNL     1      -4.751  17.348  22.650  0.00  0.00    +0.000 NA
ATOM     37  N   UNL     1      -5.873  15.962  21.209  0.00  0.00    +0.000 N 
ATOM     38  H   UNL     1      -3.971  17.434  23.294  0.00  0.00    +0.000 HD
ATOM     39  H   UNL     1      -6.299  15.046  21.170  0.00  0.00    +0.000 HD
BRANCH  37  40
ATOM     40  C   UNL     1      -6.604  17.032  20.545  0.00  0.00    +0.000 C 
ATOM     41  C   UNL     1      -5.667  17.720  19.555  0.00  0.00    +0.000 C 
ATOM     42  C   UNL     1      -7.839  16.500  19.828  0.00  0.00    +0.000 C 
ENDBRANCH  37  40
ENDBRANCH  29  35
ENDBRANCH   4  25
TORSDOF 6
ENDMDL
MODEL 8
REMARK VINA RESULT:      -8.0      1.502      1.957
REMARK  Name = 
REMARK  10 active torsions:
REMARK  status: ('A' for Active; 'I' for Inactive)
REMARK    1  A    between atoms: C_1  and  C_2
REMARK    2  A    between atoms: C_2  and  C_3
REMARK    3  A    between atoms: C_2  and  N_4
REMARK    4  A    between atoms: C_5  and  C_7
REMARK    5  A    between atoms: C_12  and  C_13
REMARK    6  A    between atoms: C_16  and  C_17
REMARK    7  A    between atoms: C_21  and  C_22
REMARK    8  A    between atoms: N_24  and  C_25
REMARK    9  A    between atoms: C_25  and  C_26
REMARK   10  A    between atoms: C_25  and  C_27
REMARK                            x       y       z     vdW  Elec       q    Type
REMARK                         _______ _______ _______ _____ _____    ______ ____
ROOT
ATOM      1  C   UNL     1       1.883   8.389  19.118  0.00  0.00    +0.000 A 
ATOM      2  C   UNL     1       1.388   9.512  18.439  0.00  0.00    +0.000 A 
ATOM      3  C   UNL     1       0.485  10.388  19.055  0.00  0.00    +0.000 A 
ATOM      4  C   UNL     1       0.053  10.164  20.367  0.00  0.00    +0.000 A 
ATOM      5  C   UNL     1       0.537   9.039  21.045  0.00  0.00    +0.000 A 
ATOM      6  C   UNL     1       1.444   8.166  20.429  0.00  0.00    +0.000 A 
ENDROOT
BRANCH   1  12
ATOM      7  C   UNL     1       5.760   4.958  16.117  0.00  0.00    +0.000 A 
ATOM      8  C   UNL     1       5.857   4.272  17.341  0.00  0.00    +0.000 A 
ATOM      9  C   UNL     1       5.101   4.653  18.456  0.00  0.00    +0.000 A 
ATOM     10  C   UNL     1       4.258   5.749  18.286  0.00  0.00    +0.000 A 
ATOM     11  N   UNL     1       3.413   6.395  19.146  0.00  0.00    +0.000 N 
ATOM     12  C   UNL     1       2.817   7.448  18.490  0.00  0.00    +0.000 A 
ATOM     13  N   UNL     1       3.224   7.472  17.229  0.00  0.00    +0.000 NA
ATOM     14  C   UNL     1       4.120   6.437  17.093  0.00  0.00    +0.000 A 
ATOM     15  C   UNL     1       4.868   6.037  15.977  0.00  0.00    +0.000 A 
ATOM     16  H   UNL     1       3.267   6.146  20.110  0.00  0.00    +0.000 HD
BRANCH   7  18
ATOM     17  N   UNL     1       6.233   3.577  14.110  0.00  0.00    +0.000 N 
ATOM     18  C   UNL     1       6.660   4.555  14.984  0.00  0.00    +0.000 C 
ATOM     19  N   UNL     1       7.795   5.164  14.854  0.00  0.00    +0.000 NA
ATOM     20  H   UNL     1       5.284   3.253  14.267  0.00  0.00    +0.000 HD
ATOM     21  H   UNL     1       8.303   4.767  14.064  0.00  0.00    +0.000 HD
BRANCH  17  23
ATOM     22  C   UNL     1       5.379   3.115  11.884  0.00  0.00    +0.000 C 
ATOM     23  C   UNL     1       6.612   3.497  12.702  0.00  0.00    +0.000 C 
ATOM     24  C   UNL     1       7.163   4.834  12.211  0.00  0.00    +0.000 C 
ENDBRANCH  17  23
ENDBRANCH   7  18
ENDBRANCH   1  12
BRANCH   4  25
ATOM     25  C   UNL     1      -0.902  11.054  21.027  0.00  0.00    +0.000 A 
ATOM     26  N   UNL     1      -1.592  12.022  20.451  0.00  0.00    +0.000 NA
ATOM     27  C   UNL     1      -2.339  12.604  21.445  0.00  0.00    +0.000 A 
ATOM     28  C   UNL     1      -3.211  13.701  21.384  0.00  0.00    +0.000 A 
ATOM     29  C   UNL     1      -3.873  14.123  22.552  0.00  0.00    +0.000 A 
ATOM     30  C   UNL     1      -3.646  13.428  23.755  0.00  0.00    +0.000 A 
ATOM     31  C   UNL     1      -2.769  12.336  23.836  0.00  0.00    +0.000 A 
ATOM     32  C   UNL     1      -2.132  11.963  22.656  0.00  0.00    +0.000 A 
ATOM     33  N   UNL     1      -1.220  10.983  22.366  0.00  0.00    +0.000 N 
ATOM     34  H   UNL     1      -0.848  10.314  23.022  0.00  0.00    +0.000 HD
BRANCH  29  35
ATOM     35  C   UNL     1      -4.737  15.365  22.511  0.00  0.00    +0.000 C 
ATOM     36  N   UNL     1      -4.526  16.385  23.286  0.00  0.00    +0.000 NA
ATOM     37  N   UNL     1      -5.760  15.447  21.597  0.00  0.00    +0.000 N 
ATOM     38  H   UNL     1      -3.759  16.253  23.936  0.00  0.00    +0.000 HD
ATOM     39  H   UNL     1      -6.286  14.611  21.377  0.00  0.00    +0.000 HD
BRANCH  37  40
ATOM     40  C   UNL     1      -6.349  16.703  21.155  0.00  0.00    +0.000 C 
ATOM     41  C   UNL     1      -6.091  16.862  19.658  0.00  0.00    +0.000 C 
ATOM     42  C   UNL     1      -7.845  16.748  21.446  0.00  0.00    +0.000 C 
ENDBRANCH  37  40
ENDBRANCH  29  35
ENDBRANCH   4  25
TORSDOF 6
ENDMDL
MODEL 9
REMARK VINA RESULT:      -8.0      1.726      2.028
REMARK  Name = 
REMARK  10 active torsions:
REMARK  status: ('A' for Active; 'I' for Inactive)
REMARK    1  A    between atoms: C_1  and  C_2
REMARK    2  A    between atoms: C_2  and  C_3
REMARK    3  A    between atoms: C_2  and  N_4
REMARK    4  A    between atoms: C_5  and  C_7
REMARK    5  A    between atoms: C_12  and  C_13
REMARK    6  A    between atoms: C_16  and  C_17
REMARK    7  A    between atoms: C_21  and  C_22
REMARK    8  A    between atoms: N_24  and  C_25
REMARK    9  A    between atoms: C_25  and  C_26
REMARK   10  A    between atoms: C_25  and  C_27
REMARK                            x       y       z     vdW  Elec       q    Type
REMARK                         _______ _______ _______ _____ _____    ______ ____
ROOT
ATOM      1  C   UNL     1       2.227   8.143  18.935  0.00  0.00    +0.000 A 
ATOM      2  C   UNL     1       1.797   7.862  20.240  0.00  0.00    +0.000 A 
ATOM      3  C   UNL     1       0.883   8.697  20.895  0.00  0.00    +0.000 A 
ATOM      4  C   UNL     1       0.377   9.838  20.261  0.00  0.00    +0.000 A 
ATOM      5  C   UNL     1       0.811  10.128  18.963  0.00  0.00    +0.000 A 
ATOM      6  C   UNL     1       1.721   9.288  18.307  0.00  0.00    +0.000 A 
ENDROOT
BRANCH   1  12
ATOM      7  C   UNL     1       6.068   5.006  15.586  0.00  0.00    +0.000 A 
ATOM      8  C   UNL     1       6.551   4.567  16.832  0.00  0.00    +0.000 A 
ATOM      9  C   UNL     1       5.968   4.989  18.033  0.00  0.00    +0.000 A 
ATOM     10  C   UNL     1       4.895   5.870  17.922  0.00  0.00    +0.000 A 
ATOM     11  N   UNL     1       4.120   6.491  18.864  0.00  0.00    +0.000 N 
ATOM     12  C   UNL     1       3.196   7.292  18.234  0.00  0.00    +0.000 A 
ATOM     13  N   UNL     1       3.330   7.176  16.921  0.00  0.00    +0.000 NA
ATOM     14  C   UNL     1       4.379   6.311  16.715  0.00  0.00    +0.000 A 
ATOM     15  C   UNL     1       4.958   5.868  15.518  0.00  0.00    +0.000 A 
ATOM     16  H   UNL     1       4.225   6.387  19.860  0.00  0.00    +0.000 HD
BRANCH   7  18
ATOM     17  N   UNL     1       6.254   3.574  13.568  0.00  0.00    +0.000 N 
ATOM     18  C   UNL     1       6.789   4.585  14.337  0.00  0.00    +0.000 C 
ATOM     19  N   UNL     1       7.877   5.210  14.015  0.00  0.00    +0.000 NA
ATOM     20  H   UNL     1       5.348   3.238  13.880  0.00  0.00    +0.000 HD
ATOM     21  H   UNL     1       8.264   4.798  13.166  0.00  0.00    +0.000 HD
BRANCH  17  23
ATOM     22  C   UNL     1       7.358   2.295  11.823  0.00  0.00    +0.000 C 
ATOM     23  C   UNL     1       6.411   3.458  12.120  0.00  0.00    +0.000 C 
ATOM     24  C   UNL     1       5.063   3.209  11.447  0.00  0.00    +0.000 C 
ENDBRANCH  17  23
ENDBRANCH   7  18
ENDBRANCH   1  12
BRANCH   4  25
ATOM     25  C   UNL     1      -0.566  10.737  20.929  0.00  0.00    +0.000 A 
ATOM     26  N   UNL     1      -1.294  11.673  20.349  0.00  0.00    +0.000 NA
ATOM     27  C   UNL     1      -2.010  12.278  21.352  0.00  0.00    +0.000 A 
ATOM     28  C   UNL     1      -2.902  13.359  21.289  0.00  0.00    +0.000 A 
ATOM     29  C   UNL     1      -3.524  13.810  22.468  0.00  0.00    +0.000 A 
ATOM     30  C   UNL     1      -3.237  13.162  23.684  0.00  0.00    +0.000 A 
ATOM     31  C   UNL     1      -2.339  12.087  23.766  0.00  0.00    +0.000 A 
ATOM     32  C   UNL     1      -1.744  11.683  22.575  0.00  0.00    +0.000 A 
ATOM     33  N   UNL     1      -0.828  10.708  22.281  0.00  0.00    +0.000 N 
ATOM     34  H   UNL     1      -0.419  10.068  22.944  0.00  0.00    +0.000 HD
BRANCH  29  35
ATOM     35  C   UNL     1      -4.409  15.037  22.419  0.00  0.00    +0.000 C 
ATOM     36  N   UNL     1      -4.013  16.199  22.843  0.00  0.00    +0.000 NA
ATOM     37  N   UNL     1      -5.667  14.942  21.872  0.00  0.00    +0.000 N 
ATOM     38  H   UNL     1      -3.078  16.193  23.236  0.00  0.00    +0.000 HD
ATOM     39  H   UNL     1      -6.200  14.095  22.018  0.00  0.00    +0.000 HD
BRANCH  37  40
ATOM     40  C   UNL     1      -6.415  16.084  21.366  0.00  0.00    +0.000 C 
ATOM     41  C   UNL     1      -6.179  16.191  19.861  0.00  0.00    +0.000 C 
ATOM     42  C   UNL     1      -7.904  15.950  21.664  0.00  0.00    +0.000 C 
ENDBRANCH  37  40
ENDBRANCH  29  35
ENDBRANCH   4  25
TORSDOF 6
ENDMDL
