MODEL 1
REMARK VINA RESULT:      -7.5      0.000      0.000
REMARK  Name = 
REMARK  12 active torsions:
REMARK  status: ('A' for Active; 'I' for Inactive)
REMARK    1  A    between atoms: C_1  and  O_2
REMARK    2  A    between atoms: O_2  and  C_3
REMARK    3  A    between atoms: C_6  and  S_7
REMARK    4  A    between atoms: S_7  and  N_10
REMARK    5  A    between atoms: N_10  and  C_11
REMARK    6  A    between atoms: N_10  and  C_22
REMARK    7  A    between atoms: C_11  and  C_12
REMARK    8  A    between atoms: N_14  and  C_15
REMARK    9  A    between atoms: C_18  and  C_19
REMARK   10  A    between atoms: C_25  and  C_26
REMARK   11  A    between atoms: C_30  and  O_31
REMARK   12  A    between atoms: O_31  and  C_32
REMARK                            x       y       z     vdW  Elec       q    Type
REMARK                         _______ _______ _______ _____ _____    ______ ____
ROOT
ATOM      1  N   UNL     1       0.760  10.549  20.082  0.00  0.00    +0.000 N 
ENDROOT
BRANCH   1   2
ATOM      2  C   UNL     1      -0.448  10.756  19.303  0.00  0.00    +0.000 A 
ATOM      3  C   UNL     1      -1.482  11.599  19.752  0.00  0.00    +0.000 A 
ATOM      4  C   UNL     1      -2.662  11.743  19.014  0.00  0.00    +0.000 A 
ATOM      5  C   UNL     1      -2.835  11.052  17.813  0.00  0.00    +0.000 A 
ATOM      6  C   UNL     1      -4.088  11.214  16.993  0.00  0.00    +0.000 C 
ATOM      7  C   UNL     1      -1.812  10.205  17.372  0.00  0.00    +0.000 A 
ATOM      8  C   UNL     1      -0.633  10.043  18.118  0.00  0.00    +0.000 A 
ENDBRANCH   1   2
BRANCH   1   9
ATOM      9  S   UNL     1       0.744   9.171  21.118  0.00  0.00    +0.000 S 
ATOM     10  O   UNL     1      -0.626   8.694  21.174  0.00  0.00    +0.000 OA
ATOM     11  O   UNL     1       1.477   9.481  22.323  0.00  0.00    +0.000 OA
BRANCH   9  15
ATOM     12  C   UNL     1       2.777   5.766  18.827  0.00  0.00    +0.000 A 
ATOM     13  C   UNL     1       2.679   7.036  18.235  0.00  0.00    +0.000 A 
ATOM     14  C   UNL     1       2.098   8.108  18.923  0.00  0.00    +0.000 A 
ATOM     15  C   UNL     1       1.675   7.917  20.239  0.00  0.00    +0.000 A 
ATOM     16  C   UNL     1       1.907   6.705  20.884  0.00  0.00    +0.000 A 
ATOM     17  C   UNL     1       2.361   5.595  20.161  0.00  0.00    +0.000 A 
BRANCH  12  19
ATOM     18  C   UNL     1       2.346   3.985  17.267  0.00  0.00    +0.000 C 
ATOM     19  O   UNL     1       3.269   4.809  17.970  0.00  0.00    +0.000 OA
ENDBRANCH  12  19
BRANCH  17  20
ATOM     20  O   UNL     1       2.327   4.331  20.673  0.00  0.00    +0.000 OA
ATOM     21  C   UNL     1       1.103   3.615  20.651  0.00  0.00    +0.000 C 
ENDBRANCH  17  20
ENDBRANCH   9  15
ENDBRANCH   1   9
BRANCH   1  22
ATOM     22  C   UNL     1       1.471  11.764  20.559  0.00  0.00    +0.000 C 
BRANCH  22  23
ATOM     23  C   UNL     1       1.774  12.897  19.556  0.00  0.00    +0.000 C 
ATOM     24  O   UNL     1       2.184  12.628  18.428  0.00  0.00    +0.000 OA
ATOM     25  N   UNL     1       1.433  14.174  19.984  0.00  0.00    +0.000 N 
ATOM     26  H   UNL     1       1.427  14.316  20.990  0.00  0.00    +0.000 HD
BRANCH  25  27
ATOM     27  C   UNL     1       1.218  15.341  19.188  0.00  0.00    +0.000 A 
ATOM     28  C   UNL     1       2.229  16.111  18.604  0.00  0.00    +0.000 A 
ATOM     29  C   UNL     1       1.927  17.194  17.749  0.00  0.00    +0.000 A 
ATOM     30  C   UNL     1       0.604  17.521  17.445  0.00  0.00    +0.000 A 
ATOM     31  C   UNL     1       0.266  18.630  16.483  0.00  0.00    +0.000 C 
ATOM     32  C   UNL     1      -0.414  16.787  18.059  0.00  0.00    +0.000 A 
ATOM     33  C   UNL     1      -0.109  15.710  18.916  0.00  0.00    +0.000 A 
ENDBRANCH  25  27
ENDBRANCH  22  23
ENDBRANCH   1  22
TORSDOF 8
ENDMDL
MODEL 2
REMARK VINA RESULT:      -7.0      2.665      8.489
REMARK  Name = 
REMARK  12 active torsions:
REMARK  status: ('A' for Active; 'I' for Inactive)
REMARK    1  A    between atoms: C_1  and  O_2
REMARK    2  A    between atoms: O_2  and  C_3
REMARK    3  A    between atoms: C_6  and  S_7
REMARK    4  A    between atoms: S_7  and  N_10
REMARK    5  A    between atoms: N_10  and  C_11
REMARK    6  A    between atoms: N_10  and  C_22
REMARK    7  A    between atoms: C_11  and  C_12
REMARK    8  A    between atoms: N_14  and  C_15
REMARK    9  A    between atoms: C_18  and  C_19
REMARK   10  A    between atoms: C_25  and  C_26
REMARK   11  A    between atoms: C_30  and  O_31
REMARK   12  A    between atoms: O_31  and  C_32
REMARK                            x       y       z     vdW  Elec       q    Type
REMARK                         _______ _______ _______ _____ _____    ______ ____
ROOT
ATOM      1  N   UNL     1       0.611  11.066  21.402  0.00  0.00    +0.000 N 
ENDROOT
BRANCH   1   2
ATOM      2  C   UNL     1      -0.408  11.794  22.139  0.00  0.00    +0.000 A 
ATOM      3  C   UNL     1      -1.503  11.138  22.732  0.00  0.00    +0.000 A 
ATOM      4  C   UNL     1      -2.503  11.862  23.391  0.00  0.00    +0.000 A 
ATOM      5  C   UNL     1      -2.430  13.254  23.474  0.00  0.00    +0.000 A 
ATOM      6  C   UNL     1      -3.485  14.048  24.199  0.00  0.00    +0.000 C 
ATOM      7  C   UNL     1      -1.348  13.907  22.873  0.00  0.00    +0.000 A 
ATOM      8  C   UNL     1      -0.351  13.187  22.196  0.00  0.00    +0.000 A 
ENDBRANCH   1   2
BRANCH   1   9
ATOM      9  S   UNL     1       0.397  11.024  19.692  0.00  0.00    +0.000 S 
ATOM     10  O   UNL     1      -1.032  10.977  19.440  0.00  0.00    +0.000 OA
ATOM     11  O   UNL     1       1.287  10.035  19.131  0.00  0.00    +0.000 OA
BRANCH   9  15
ATOM     12  C   UNL     1       1.725  15.265  18.580  0.00  0.00    +0.000 A 
ATOM     13  C   UNL     1       2.686  14.248  18.702  0.00  0.00    +0.000 A 
ATOM     14  C   UNL     1       2.311  12.933  19.002  0.00  0.00    +0.000 A 
ATOM     15  C   UNL     1       0.954  12.627  19.115  0.00  0.00    +0.000 A 
ATOM     16  C   UNL     1      -0.011  13.594  18.846  0.00  0.00    +0.000 A 
ATOM     17  C   UNL     1       0.360  14.935  18.679  0.00  0.00    +0.000 A 
BRANCH  12  19
ATOM     18  C   UNL     1       3.611  16.598  17.905  0.00  0.00    +0.000 C 
ATOM     19  O   UNL     1       2.278  16.511  18.395  0.00  0.00    +0.000 OA
ENDBRANCH  12  19
BRANCH  17  20
ATOM     20  O   UNL     1      -0.553  15.949  18.704  0.00  0.00    +0.000 OA
ATOM     21  C   UNL     1      -0.920  16.511  19.953  0.00  0.00    +0.000 C 
ENDBRANCH  17  20
ENDBRANCH   9  15
ENDBRANCH   1   9
BRANCH   1  22
ATOM     22  C   UNL     1       1.183   9.860  22.056  0.00  0.00    +0.000 C 
BRANCH  22  23
ATOM     23  C   UNL     1       0.847   8.467  21.482  0.00  0.00    +0.000 C 
ATOM     24  O   UNL     1      -0.326   8.123  21.343  0.00  0.00    +0.000 OA
ATOM     25  N   UNL     1       1.939   7.729  21.041  0.00  0.00    +0.000 N 
ATOM     26  H   UNL     1       2.826   7.942  21.489  0.00  0.00    +0.000 HD
BRANCH  25  27
ATOM     27  C   UNL     1       1.947   6.626  20.133  0.00  0.00    +0.000 A 
ATOM     28  C   UNL     1       2.361   6.689  18.799  0.00  0.00    +0.000 A 
ATOM     29  C   UNL     1       2.431   5.528  17.996  0.00  0.00    +0.000 A 
ATOM     30  C   UNL     1       2.104   4.274  18.517  0.00  0.00    +0.000 A 
ATOM     31  C   UNL     1       2.237   3.019  17.695  0.00  0.00    +0.000 C 
ATOM     32  C   UNL     1       1.646   4.208  19.836  0.00  0.00    +0.000 A 
ATOM     33  C   UNL     1       1.573   5.368  20.633  0.00  0.00    +0.000 A 
ENDBRANCH  25  27
ENDBRANCH  22  23
ENDBRANCH   1  22
TORSDOF 8
ENDMDL
MODEL 3
REMARK VINA RESULT:      -6.9      2.802      4.709
REMARK  Name = 
REMARK  12 active torsions:
REMARK  status: ('A' for Active; 'I' for Inactive)
REMARK    1  A    between atoms: C_1  and  O_2
REMARK    2  A    between atoms: O_2  and  C_3
REMARK    3  A    between atoms: C_6  and  S_7
REMARK    4  A    between atoms: S_7  and  N_10
REMARK    5  A    between atoms: N_10  and  C_11
REMARK    6  A    between atoms: N_10  and  C_22
REMARK    7  A    between atoms: C_11  and  C_12
REMARK    8  A    between atoms: N_14  and  C_15
REMARK    9  A    between atoms: C_18  and  C_19
REMARK   10  A    between atoms: C_25  and  C_26
REMARK   11  A    between atoms: C_30  and  O_31
REMARK   12  A    between atoms: O_31  and  C_32
REMARK                            x       y       z     vdW  Elec       q    Type
REMARK                         _______ _______ _______ _____ _____    ______ ____
ROOT
ATOM      1  N   UNL     1       1.007  10.433  19.736  0.00  0.00    +0.000 N 
ENDROOT
BRANCH   1   2
ATOM      2  C   UNL     1       0.949  11.884  19.733  0.00  0.00    +0.000 A 
ATOM      3  C   UNL     1       0.000  12.585  18.964  0.00  0.00    +0.000 A 
ATOM      4  C   UNL     1      -0.005  13.984  18.931  0.00  0.00    +0.000 A 
ATOM      5  C   UNL     1       0.933  14.712  19.664  0.00  0.00    +0.000 A 
ATOM      6  C   UNL     1       0.928  16.219  19.659  0.00  0.00    +0.000 C 
ATOM      7  C   UNL     1       1.884  14.016  20.419  0.00  0.00    +0.000 A 
ATOM      8  C   UNL     1       1.905  12.612  20.442  0.00  0.00    +0.000 A 
ENDBRANCH   1   2
BRANCH   1   9
ATOM      9  S   UNL     1       1.305   9.702  18.204  0.00  0.00    +0.000 S 
ATOM     10  O   UNL     1       2.195  10.586  17.473  0.00  0.00    +0.000 OA
ATOM     11  O   UNL     1       0.049   9.271  17.636  0.00  0.00    +0.000 OA
BRANCH   9  15
ATOM     12  C   UNL     1       3.408   5.719  19.039  0.00  0.00    +0.000 A 
ATOM     13  C   UNL     1       3.822   6.505  17.951  0.00  0.00    +0.000 A 
ATOM     14  C   UNL     1       3.227   7.745  17.690  0.00  0.00    +0.000 A 
ATOM     15  C   UNL     1       2.255   8.227  18.570  0.00  0.00    +0.000 A 
ATOM     16  C   UNL     1       1.948   7.525  19.732  0.00  0.00    +0.000 A 
ATOM     17  C   UNL     1       2.439   6.228  19.925  0.00  0.00    +0.000 A 
BRANCH  12  19
ATOM     18  C   UNL     1       5.425   4.418  18.874  0.00  0.00    +0.000 C 
ATOM     19  O   UNL     1       4.019   4.487  19.077  0.00  0.00    +0.000 OA
ENDBRANCH  12  19
BRANCH  17  20
ATOM     20  O   UNL     1       1.943   5.399  20.889  0.00  0.00    +0.000 OA
ATOM     21  C   UNL     1       1.089   4.334  20.505  0.00  0.00    +0.000 C 
ENDBRANCH  17  20
ENDBRANCH   9  15
ENDBRANCH   1   9
BRANCH   1  22
ATOM     22  C   UNL     1       0.097   9.725  20.674  0.00  0.00    +0.000 C 
BRANCH  22  23
ATOM     23  C   UNL     1      -0.317  10.423  21.986  0.00  0.00    +0.000 C 
ATOM     24  O   UNL     1       0.353  10.266  23.006  0.00  0.00    +0.000 OA
ATOM     25  N   UNL     1      -1.389  11.302  21.878  0.00  0.00    +0.000 N 
ATOM     26  H   UNL     1      -2.044  11.108  21.126  0.00  0.00    +0.000 HD
BRANCH  25  27
ATOM     27  C   UNL     1      -1.752  12.360  22.766  0.00  0.00    +0.000 A 
ATOM     28  C   UNL     1      -0.977  13.497  23.017  0.00  0.00    +0.000 A 
ATOM     29  C   UNL     1      -1.455  14.546  23.835  0.00  0.00    +0.000 A 
ATOM     30  C   UNL     1      -2.728  14.487  24.406  0.00  0.00    +0.000 A 
ATOM     31  C   UNL     1      -3.278  15.625  25.226  0.00  0.00    +0.000 C 
ATOM     32  C   UNL     1      -3.491  13.335  24.199  0.00  0.00    +0.000 A 
ATOM     33  C   UNL     1      -3.009  12.288  23.386  0.00  0.00    +0.000 A 
ENDBRANCH  25  27
ENDBRANCH  22  23
ENDBRANCH   1  22
TORSDOF 8
ENDMDL
MODEL 4
REMARK VINA RESULT:      -6.8      3.431      8.756
REMARK  Name = 
REMARK  12 active torsions:
REMARK  status: ('A' for Active; 'I' for Inactive)
REMARK    1  A    between atoms: C_1  and  O_2
REMARK    2  A    between atoms: O_2  and  C_3
REMARK    3  A    between atoms: C_6  and  S_7
REMARK    4  A    between atoms: S_7  and  N_10
REMARK    5  A    between atoms: N_10  and  C_11
REMARK    6  A    between atoms: N_10  and  C_22
REMARK    7  A    between atoms: C_11  and  C_12
REMARK    8  A    between atoms: N_14  and  C_15
REMARK    9  A    between atoms: C_18  and  C_19
REMARK   10  A    between atoms: C_25  and  C_26
REMARK   11  A    between atoms: C_30  and  O_31
REMARK   12  A    between atoms: O_31  and  C_32
REMARK                            x       y       z     vdW  Elec       q    Type
REMARK                         _______ _______ _______ _____ _____    ______ ____
ROOT
ATOM      1  N   UNL     1      -0.266  11.197  20.737  0.00  0.00    +0.000 N 
ENDROOT
BRANCH   1   2
ATOM      2  C   UNL     1      -0.940  10.828  19.504  0.00  0.00    +0.000 A 
ATOM      3  C   UNL     1      -0.274  10.131  18.478  0.00  0.00    +0.000 A 
ATOM      4  C   UNL     1      -0.924   9.833  17.275  0.00  0.00    +0.000 A 
ATOM      5  C   UNL     1      -2.249  10.221  17.071  0.00  0.00    +0.000 A 
ATOM      6  C   UNL     1      -2.972   9.888  15.792  0.00  0.00    +0.000 C 
ATOM      7  C   UNL     1      -2.907  10.926  18.086  0.00  0.00    +0.000 A 
ATOM      8  C   UNL     1      -2.254  11.243  19.289  0.00  0.00    +0.000 A 
ENDBRANCH   1   2
BRANCH   1   9
ATOM      9  S   UNL     1      -0.291  12.878  21.118  0.00  0.00    +0.000 S 
ATOM     10  O   UNL     1      -0.646  13.588  19.902  0.00  0.00    +0.000 OA
ATOM     11  O   UNL     1       0.905  13.211  21.855  0.00  0.00    +0.000 OA
BRANCH   9  15
ATOM     12  C   UNL     1      -4.070  13.397  23.655  0.00  0.00    +0.000 A 
ATOM     13  C   UNL     1      -3.354  12.190  23.719  0.00  0.00    +0.000 A 
ATOM     14  C   UNL     1      -2.174  12.012  22.987  0.00  0.00    +0.000 A 
ATOM     15  C   UNL     1      -1.676  13.080  22.237  0.00  0.00    +0.000 A 
ATOM     16  C   UNL     1      -2.297  14.326  22.289  0.00  0.00    +0.000 A 
ATOM     17  C   UNL     1      -3.545  14.469  22.908  0.00  0.00    +0.000 A 
BRANCH  12  19
ATOM     18  C   UNL     1      -6.469  13.212  23.610  0.00  0.00    +0.000 C 
ATOM     19  O   UNL     1      -5.259  13.355  24.345  0.00  0.00    +0.000 OA
ENDBRANCH  12  19
BRANCH  17  20
ATOM     20  O   UNL     1      -4.318  15.579  22.736  0.00  0.00    +0.000 OA
ATOM     21  C   UNL     1      -4.295  16.245  21.484  0.00  0.00    +0.000 C 
ENDBRANCH  17  20
ENDBRANCH   9  15
ENDBRANCH   1   9
BRANCH   1  22
ATOM     22  C   UNL     1       0.952  10.426  21.096  0.00  0.00    +0.000 C 
BRANCH  22  23
ATOM     23  C   UNL     1       0.879   8.884  21.135  0.00  0.00    +0.000 C 
ATOM     24  O   UNL     1      -0.113   8.326  21.602  0.00  0.00    +0.000 OA
ATOM     25  N   UNL     1       1.928   8.225  20.505  0.00  0.00    +0.000 N 
ATOM     26  H   UNL     1       2.806   8.733  20.461  0.00  0.00    +0.000 HD
BRANCH  25  27
ATOM     27  C   UNL     1       1.962   6.877  20.031  0.00  0.00    +0.000 A 
ATOM     28  C   UNL     1       1.556   5.759  20.766  0.00  0.00    +0.000 A 
ATOM     29  C   UNL     1       1.530   4.470  20.187  0.00  0.00    +0.000 A 
ATOM     30  C   UNL     1       1.894   4.275  18.853  0.00  0.00    +0.000 A 
ATOM     31  C   UNL     1       1.809   2.919  18.201  0.00  0.00    +0.000 C 
ATOM     32  C   UNL     1       2.346   5.379  18.125  0.00  0.00    +0.000 A 
ATOM     33  C   UNL     1       2.375   6.663  18.707  0.00  0.00    +0.000 A 
ENDBRANCH  25  27
ENDBRANCH  22  23
ENDBRANCH   1  22
TORSDOF 8
ENDMDL
MODEL 5
REMARK VINA RESULT:      -6.7      2.125      8.347
REMARK  Name = 
REMARK  12 active torsions:
REMARK  status: ('A' for Active; 'I' for Inactive)
REMARK    1  A    between atoms: C_1  and  O_2
REMARK    2  A    between atoms: O_2  and  C_3
REMARK    3  A    between atoms: C_6  and  S_7
REMARK    4  A    between atoms: S_7  and  N_10
REMARK    5  A    between atoms: N_10  and  C_11
REMARK    6  A    between atoms: N_10  and  C_22
REMARK    7  A    between atoms: C_11  and  C_12
REMARK    8  A    between atoms: N_14  and  C_15
REMARK    9  A    between atoms: C_18  and  C_19
REMARK   10  A    between atoms: C_25  and  C_26
REMARK   11  A    between atoms: C_30  and  O_31
REMARK   12  A    between atoms: O_31  and  C_32
REMARK                            x       y       z     vdW  Elec       q    Type
REMARK                         _______ _______ _______ _____ _____    ______ ____
ROOT
ATOM      1  N   UNL     1      -0.513  11.517  20.502  0.00  0.00    +0.000 N 
ENDROOT
BRANCH   1   2
ATOM      2  C   UNL     1      -1.305  11.172  19.334  0.00  0.00    +0.000 A 
ATOM      3  C   UNL     1      -0.860  10.225  18.392  0.00  0.00    +0.000 A 
ATOM      4  C   UNL     1      -1.612   9.946  17.245  0.00  0.00    +0.000 A 
ATOM      5  C   UNL     1      -2.822  10.603  17.015  0.00  0.00    +0.000 A 
ATOM      6  C   UNL     1      -3.656  10.299  15.797  0.00  0.00    +0.000 C 
ATOM      7  C   UNL     1      -3.258  11.554  17.945  0.00  0.00    +0.000 A 
ATOM      8  C   UNL     1      -2.499  11.850  19.089  0.00  0.00    +0.000 A 
ENDBRANCH   1   2
BRANCH   1   9
ATOM      9  S   UNL     1       0.964  12.344  20.175  0.00  0.00    +0.000 S 
ATOM     10  O   UNL     1       1.418  11.908  18.866  0.00  0.00    +0.000 OA
ATOM     11  O   UNL     1       1.822  12.249  21.332  0.00  0.00    +0.000 OA
BRANCH   9  15
ATOM     12  C   UNL     1       0.176  16.828  19.670  0.00  0.00    +0.000 A 
ATOM     13  C   UNL     1      -0.250  15.935  18.674  0.00  0.00    +0.000 A 
ATOM     14  C   UNL     1      -0.059  14.554  18.814  0.00  0.00    +0.000 A 
ATOM     15  C   UNL     1       0.503  14.066  19.995  0.00  0.00    +0.000 A 
ATOM     16  C   UNL     1       0.787  14.931  21.049  0.00  0.00    +0.000 A 
ATOM     17  C   UNL     1       0.724  16.317  20.863  0.00  0.00    +0.000 A 
BRANCH  12  19
ATOM     18  C   UNL     1      -0.428  18.449  17.998  0.00  0.00    +0.000 C 
ATOM     19  O   UNL     1       0.012  18.147  19.317  0.00  0.00    +0.000 OA
ENDBRANCH  12  19
BRANCH  17  20
ATOM     20  O   UNL     1       1.265  17.196  21.756  0.00  0.00    +0.000 OA
ATOM     21  C   UNL     1       2.286  16.744  22.630  0.00  0.00    +0.000 C 
ENDBRANCH  17  20
ENDBRANCH   9  15
ENDBRANCH   1   9
BRANCH   1  22
ATOM     22  C   UNL     1      -0.530  10.556  21.635  0.00  0.00    +0.000 C 
BRANCH  22  23
ATOM     23  C   UNL     1      -0.071   9.102  21.391  0.00  0.00    +0.000 C 
ATOM     24  O   UNL     1      -0.849   8.169  21.584  0.00  0.00    +0.000 OA
ATOM     25  N   UNL     1       1.196   8.966  20.837  0.00  0.00    +0.000 N 
ATOM     26  H   UNL     1       1.845   9.724  21.027  0.00  0.00    +0.000 HD
BRANCH  25  27
ATOM     27  C   UNL     1       1.739   7.839  20.146  0.00  0.00    +0.000 A 
ATOM     28  C   UNL     1       1.794   6.538  20.656  0.00  0.00    +0.000 A 
ATOM     29  C   UNL     1       2.257   5.460  19.869  0.00  0.00    +0.000 A 
ATOM     30  C   UNL     1       2.660   5.658  18.546  0.00  0.00    +0.000 A 
ATOM     31  C   UNL     1       3.093   4.510  17.672  0.00  0.00    +0.000 C 
ATOM     32  C   UNL     1       2.651   6.962  18.043  0.00  0.00    +0.000 A 
ATOM     33  C   UNL     1       2.194   8.036  18.833  0.00  0.00    +0.000 A 
ENDBRANCH  25  27
ENDBRANCH  22  23
ENDBRANCH   1  22
TORSDOF 8
ENDMDL
MODEL 6
REMARK VINA RESULT:      -6.7      1.954      2.605
REMARK  Name = 
REMARK  12 active torsions:
REMARK  status: ('A' for Active; 'I' for Inactive)
REMARK    1  A    between atoms: C_1  and  O_2
REMARK    2  A    between atoms: O_2  and  C_3
REMARK    3  A    between atoms: C_6  and  S_7
REMARK    4  A    between atoms: S_7  and  N_10
REMARK    5  A    between atoms: N_10  and  C_11
REMARK    6  A    between atoms: N_10  and  C_22
REMARK    7  A    between atoms: C_11  and  C_12
REMARK    8  A    between atoms: N_14  and  C_15
REMARK    9  A    between atoms: C_18  and  C_19
REMARK   10  A    between atoms: C_25  and  C_26
REMARK   11  A    between atoms: C_30  and  O_31
REMARK   12  A    between atoms: O_31  and  C_32
REMARK                            x       y       z     vdW  Elec       q    Type
REMARK                         _______ _______ _______ _____ _____    ______ ____
ROOT
ATOM      1  N   UNL     1       0.225  11.288  19.801  0.00  0.00    +0.000 N 
ENDROOT
BRANCH   1   2
ATOM      2  C   UNL     1      -1.048  11.284  19.102  0.00  0.00    +0.000 A 
ATOM      3  C   UNL     1      -2.156  12.011  19.577  0.00  0.00    +0.000 A 
ATOM      4  C   UNL     1      -3.390  11.951  18.920  0.00  0.00    +0.000 A 
ATOM      5  C   UNL     1      -3.545  11.166  17.777  0.00  0.00    +0.000 A 
ATOM      6  C   UNL     1      -4.859  11.108  17.042  0.00  0.00    +0.000 C 
ATOM      7  C   UNL     1      -2.447  10.433  17.311  0.00  0.00    +0.000 A 
ATOM      8  C   UNL     1      -1.211  10.476  17.976  0.00  0.00    +0.000 A 
ENDBRANCH   1   2
BRANCH   1   9
ATOM      9  S   UNL     1       0.479   9.969  20.882  0.00  0.00    +0.000 S 
ATOM     10  O   UNL     1      -0.810   9.338  21.097  0.00  0.00    +0.000 OA
ATOM     11  O   UNL     1       1.285  10.419  21.992  0.00  0.00    +0.000 OA
BRANCH   9  15
ATOM     12  C   UNL     1       2.664   6.732  18.488  0.00  0.00    +0.000 A 
ATOM     13  C   UNL     1       2.425   7.984  17.899  0.00  0.00    +0.000 A 
ATOM     14  C   UNL     1       1.794   9.009  18.616  0.00  0.00    +0.000 A 
ATOM     15  C   UNL     1       1.463   8.792  19.955  0.00  0.00    +0.000 A 
ATOM     16  C   UNL     1       1.833   7.609  20.589  0.00  0.00    +0.000 A 
ATOM     17  C   UNL     1       2.340   6.537  19.844  0.00  0.00    +0.000 A 
BRANCH  12  19
ATOM     18  C   UNL     1       4.571   5.888  17.287  0.00  0.00    +0.000 C 
ATOM     19  O   UNL     1       3.187   5.814  17.607  0.00  0.00    +0.000 OA
ENDBRANCH  12  19
BRANCH  17  20
ATOM     20  O   UNL     1       2.442   5.278  20.360  0.00  0.00    +0.000 OA
ATOM     21  C   UNL     1       1.346   4.389  20.223  0.00  0.00    +0.000 C 
ENDBRANCH  17  20
ENDBRANCH   9  15
ENDBRANCH   1   9
BRANCH   1  22
ATOM     22  C   UNL     1       0.777  12.613  20.187  0.00  0.00    +0.000 C 
BRANCH  22  23
ATOM     23  C   UNL     1       2.191  13.004  19.708  0.00  0.00    +0.000 C 
ATOM     24  O   UNL     1       2.610  12.595  18.625  0.00  0.00    +0.000 OA
ATOM     25  N   UNL     1       2.859  13.918  20.513  0.00  0.00    +0.000 N 
ATOM     26  H   UNL     1       2.588  13.925  21.493  0.00  0.00    +0.000 HD
BRANCH  25  27
ATOM     27  C   UNL     1       3.963  14.755  20.167  0.00  0.00    +0.000 A 
ATOM     28  C   UNL     1       5.201  14.759  20.818  0.00  0.00    +0.000 A 
ATOM     29  C   UNL     1       6.275  15.549  20.350  0.00  0.00    +0.000 A 
ATOM     30  C   UNL     1       6.139  16.340  19.207  0.00  0.00    +0.000 A 
ATOM     31  C   UNL     1       7.293  17.137  18.656  0.00  0.00    +0.000 C 
ATOM     32  C   UNL     1       4.892  16.378  18.576  0.00  0.00    +0.000 A 
ATOM     33  C   UNL     1       3.821  15.593  19.049  0.00  0.00    +0.000 A 
ENDBRANCH  25  27
ENDBRANCH  22  23
ENDBRANCH   1  22
TORSDOF 8
ENDMDL
MODEL 7
REMARK VINA RESULT:      -6.7      1.958      8.503
REMARK  Name = 
REMARK  12 active torsions:
REMARK  status: ('A' for Active; 'I' for Inactive)
REMARK    1  A    between atoms: C_1  and  O_2
REMARK    2  A    between atoms: O_2  and  C_3
REMARK    3  A    between atoms: C_6  and  S_7
REMARK    4  A    between atoms: S_7  and  N_10
REMARK    5  A    between atoms: N_10  and  C_11
REMARK    6  A    between atoms: N_10  and  C_22
REMARK    7  A    between atoms: C_11  and  C_12
REMARK    8  A    between atoms: N_14  and  C_15
REMARK    9  A    between atoms: C_18  and  C_19
REMARK   10  A    between atoms: C_25  and  C_26
REMARK   11  A    between atoms: C_30  and  O_31
REMARK   12  A    between atoms: O_31  and  C_32
REMARK                            x       y       z     vdW  Elec       q    Type
REMARK                         _______ _______ _______ _____ _____    ______ ____
ROOT
ATOM      1  N   UNL     1       0.217  10.271  19.591  0.00  0.00    +0.000 N 
ENDROOT
BRANCH   1   2
ATOM      2  C   UNL     1      -0.971  10.480  18.781  0.00  0.00    +0.000 A 
ATOM      3  C   UNL     1      -1.114   9.891  17.511  0.00  0.00    +0.000 A 
ATOM      4  C   UNL     1      -2.241  10.149  16.723  0.00  0.00    +0.000 A 
ATOM      5  C   UNL     1      -3.249  10.996  17.186  0.00  0.00    +0.000 A 
ATOM      6  C   UNL     1      -4.481  11.267  16.361  0.00  0.00    +0.000 C 
ATOM      7  C   UNL     1      -3.101  11.592  18.444  0.00  0.00    +0.000 A 
ATOM      8  C   UNL     1      -1.964  11.351  19.231  0.00  0.00    +0.000 A 
ENDBRANCH   1   2
BRANCH   1   9
ATOM      9  S   UNL     1       0.544  11.500  20.754  0.00  0.00    +0.000 S 
ATOM     10  O   UNL     1       1.705  11.072  21.515  0.00  0.00    +0.000 OA
ATOM     11  O   UNL     1      -0.688  11.865  21.413  0.00  0.00    +0.000 OA
BRANCH   9  15
ATOM     12  C   UNL     1       2.004  15.297  18.648  0.00  0.00    +0.000 A 
ATOM     13  C   UNL     1       2.701  14.092  18.462  0.00  0.00    +0.000 A 
ATOM     14  C   UNL     1       2.260  12.905  19.060  0.00  0.00    +0.000 A 
ATOM     15  C   UNL     1       1.072  12.919  19.794  0.00  0.00    +0.000 A 
ATOM     16  C   UNL     1       0.297  14.074  19.856  0.00  0.00    +0.000 A 
ATOM     17  C   UNL     1       0.799  15.290  19.377  0.00  0.00    +0.000 A 
BRANCH  12  19
ATOM     18  C   UNL     1       4.062  16.420  18.104  0.00  0.00    +0.000 C 
ATOM     19  O   UNL     1       2.640  16.379  18.084  0.00  0.00    +0.000 OA
ENDBRANCH  12  19
BRANCH  17  20
ATOM     20  O   UNL     1       0.212  16.485  19.672  0.00  0.00    +0.000 OA
ATOM     21  C   UNL     1      -0.839  16.956  18.846  0.00  0.00    +0.000 C 
ENDBRANCH  17  20
ENDBRANCH   9  15
ENDBRANCH   1   9
BRANCH   1  22
ATOM     22  C   UNL     1       1.377   9.621  18.928  0.00  0.00    +0.000 C 
BRANCH  22  23
ATOM     23  C   UNL     1       1.853   8.242  19.434  0.00  0.00    +0.000 C 
ATOM     24  O   UNL     1       1.431   7.798  20.501  0.00  0.00    +0.000 OA
ATOM     25  N   UNL     1       2.659   7.532  18.552  0.00  0.00    +0.000 N 
ATOM     26  H   UNL     1       3.194   8.093  17.895  0.00  0.00    +0.000 HD
BRANCH  25  27
ATOM     27  C   UNL     1       2.927   6.129  18.539  0.00  0.00    +0.000 A 
ATOM     28  C   UNL     1       4.013   5.515  19.171  0.00  0.00    +0.000 A 
ATOM     29  C   UNL     1       4.152   4.109  19.192  0.00  0.00    +0.000 A 
ATOM     30  C   UNL     1       3.196   3.285  18.595  0.00  0.00    +0.000 A 
ATOM     31  C   UNL     1       3.294   1.783  18.666  0.00  0.00    +0.000 C 
ATOM     32  C   UNL     1       2.132   3.891  17.922  0.00  0.00    +0.000 A 
ATOM     33  C   UNL     1       1.999   5.294  17.898  0.00  0.00    +0.000 A 
ENDBRANCH  25  27
ENDBRANCH  22  23
ENDBRANCH   1  22
TORSDOF 8
ENDMDL
MODEL 8
REMARK VINA RESULT:      -6.7      3.312      8.590
REMARK  Name = 
REMARK  12 active torsions:
REMARK  status: ('A' for Active; 'I' for Inactive)
REMARK    1  A    between atoms: C_1  and  O_2
REMARK    2  A    between atoms: O_2  and  C_3
REMARK    3  A    between atoms: C_6  and  S_7
REMARK    4  A    between atoms: S_7  and  N_10
REMARK    5  A    between atoms: N_10  and  C_11
REMARK    6  A    between atoms: N_10  and  C_22
REMARK    7  A    between atoms: C_11  and  C_12
REMARK    8  A    between atoms: N_14  and  C_15
REMARK    9  A    between atoms: C_18  and  C_19
REMARK   10  A    between atoms: C_25  and  C_26
REMARK   11  A    between atoms: C_30  and  O_31
REMARK   12  A    between atoms: O_31  and  C_32
REMARK                            x       y       z     vdW  Elec       q    Type
REMARK                         _______ _______ _______ _____ _____    ______ ____
ROOT
ATOM      1  N   UNL     1      -0.294  11.376  20.792  0.00  0.00    +0.000 N 
ENDROOT
BRANCH   1   2
ATOM      2  C   UNL     1      -0.917  10.969  19.544  0.00  0.00    +0.000 A 
ATOM      3  C   UNL     1      -2.292  11.155  19.308  0.00  0.00    +0.000 A 
ATOM      4  C   UNL     1      -2.884  10.706  18.122  0.00  0.00    +0.000 A 
ATOM      5  C   UNL     1      -2.118  10.065  17.148  0.00  0.00    +0.000 A 
ATOM      6  C   UNL     1      -2.733   9.596  15.855  0.00  0.00    +0.000 C 
ATOM      7  C   UNL     1      -0.753   9.868  17.388  0.00  0.00    +0.000 A 
ATOM      8  C   UNL     1      -0.157  10.301  18.583  0.00  0.00    +0.000 A 
ENDBRANCH   1   2
BRANCH   1   9
ATOM      9  S   UNL     1      -0.147  13.079  21.021  0.00  0.00    +0.000 S 
ATOM     10  O   UNL     1      -0.211  13.695  19.708  0.00  0.00    +0.000 OA
ATOM     11  O   UNL     1       0.957  13.338  21.915  0.00  0.00    +0.000 OA
BRANCH   9  15
ATOM     12  C   UNL     1      -4.148  13.985  23.058  0.00  0.00    +0.000 A 
ATOM     13  C   UNL     1      -3.033  13.651  23.842  0.00  0.00    +0.000 A 
ATOM     14  C   UNL     1      -1.786  13.405  23.256  0.00  0.00    +0.000 A 
ATOM     15  C   UNL     1      -1.646  13.564  21.875  0.00  0.00    +0.000 A 
ATOM     16  C   UNL     1      -2.706  14.042  21.111  0.00  0.00    +0.000 A 
ATOM     17  C   UNL     1      -3.985  14.158  21.670  0.00  0.00    +0.000 A 
BRANCH  12  19
ATOM     18  C   UNL     1      -6.094  12.907  23.974  0.00  0.00    +0.000 C 
ATOM     19  O   UNL     1      -5.312  14.079  23.786  0.00  0.00    +0.000 OA
ENDBRANCH  12  19
BRANCH  17  20
ATOM     20  O   UNL     1      -5.099  14.339  20.903  0.00  0.00    +0.000 OA
ATOM     21  C   UNL     1      -5.609  13.241  20.164  0.00  0.00    +0.000 C 
ENDBRANCH  17  20
ENDBRANCH   9  15
ENDBRANCH   1   9
BRANCH   1  22
ATOM     22  C   UNL     1       0.796  10.512  21.315  0.00  0.00    +0.000 C 
BRANCH  22  23
ATOM     23  C   UNL     1       0.663   8.979  21.187  0.00  0.00    +0.000 C 
ATOM     24  O   UNL     1      -0.429   8.439  21.360  0.00  0.00    +0.000 OA
ATOM     25  N   UNL     1       1.806   8.320  20.752  0.00  0.00    +0.000 N 
ATOM     26  H   UNL     1       2.688   8.781  20.958  0.00  0.00    +0.000 HD
BRANCH  25  27
ATOM     27  C   UNL     1       1.904   7.018  20.170  0.00  0.00    +0.000 A 
ATOM     28  C   UNL     1       1.515   5.829  20.796  0.00  0.00    +0.000 A 
ATOM     29  C   UNL     1       1.553   4.593  20.113  0.00  0.00    +0.000 A 
ATOM     30  C   UNL     1       1.966   4.522  18.781  0.00  0.00    +0.000 A 
ATOM     31  C   UNL     1       1.951   3.224  18.018  0.00  0.00    +0.000 C 
ATOM     32  C   UNL     1       2.401   5.698  18.162  0.00  0.00    +0.000 A 
ATOM     33  C   UNL     1       2.366   6.928  18.848  0.00  0.00    +0.000 A 
ENDBRANCH  25  27
ENDBRANCH  22  23
ENDBRANCH   1  22
TORSDOF 8
ENDMDL
MODEL 9
REMARK VINA RESULT:      -6.6      3.260      8.138
REMARK  Name = 
REMARK  12 active torsions:
REMARK  status: ('A' for Active; 'I' for Inactive)
REMARK    1  A    between atoms: C_1  and  O_2
REMARK    2  A    between atoms: O_2  and  C_3
REMARK    3  A    between atoms: C_6  and  S_7
REMARK    4  A    between atoms: S_7  and  N_10
REMARK    5  A    between atoms: N_10  and  C_11
REMARK    6  A    between atoms: N_10  and  C_22
REMARK    7  A    between atoms: C_11  and  C_12
REMARK    8  A    between atoms: N_14  and  C_15
REMARK    9  A    between atoms: C_18  and  C_19
REMARK   10  A    between atoms: C_25  and  C_26
REMARK   11  A    between atoms: C_30  and  O_31
REMARK   12  A    between atoms: O_31  and  C_32
REMARK                            x       y       z     vdW  Elec       q    Type
REMARK                         _______ _______ _______ _____ _____    ______ ____
ROOT
ATOM      1  N   UNL     1       0.093  11.214  20.903  0.00  0.00    +0.000 N 
ENDROOT
BRANCH   1   2
ATOM      2  C   UNL     1      -0.529  12.099  21.874  0.00  0.00    +0.000 A 
ATOM      3  C   UNL     1      -1.632  11.690  22.647  0.00  0.00    +0.000 A 
ATOM      4  C   UNL     1      -2.252  12.574  23.537  0.00  0.00    +0.000 A 
ATOM      5  C   UNL     1      -1.784  13.882  23.675  0.00  0.00    +0.000 A 
ATOM      6  C   UNL     1      -2.423  14.841  24.646  0.00  0.00    +0.000 C 
ATOM      7  C   UNL     1      -0.695  14.293  22.897  0.00  0.00    +0.000 A 
ATOM      8  C   UNL     1      -0.080  13.414  21.990  0.00  0.00    +0.000 A 
ENDBRANCH   1   2
BRANCH   1   9
ATOM      9  S   UNL     1       0.184  11.829  19.295  0.00  0.00    +0.000 S 
ATOM     10  O   UNL     1       0.993  10.899  18.527  0.00  0.00    +0.000 OA
ATOM     11  O   UNL     1       0.507  13.235  19.347  0.00  0.00    +0.000 OA
BRANCH   9  15
ATOM     12  C   UNL     1      -4.069  11.090  17.760  0.00  0.00    +0.000 A 
ATOM     13  C   UNL     1      -3.870  11.924  18.872  0.00  0.00    +0.000 A 
ATOM     14  C   UNL     1      -2.581  12.202  19.344  0.00  0.00    +0.000 A 
ATOM     15  C   UNL     1      -1.483  11.690  18.650  0.00  0.00    +0.000 A 
ATOM     16  C   UNL     1      -1.666  10.990  17.461  0.00  0.00    +0.000 A 
ATOM     17  C   UNL     1      -2.950  10.597  17.062  0.00  0.00    +0.000 A 
BRANCH  12  19
ATOM     18  C   UNL     1      -6.368  11.770  17.965  0.00  0.00    +0.000 C 
ATOM     19  O   UNL     1      -5.397  10.836  17.508  0.00  0.00    +0.000 OA
ENDBRANCH  12  19
BRANCH  17  20
ATOM     20  O   UNL     1      -3.154   9.674  16.078  0.00  0.00    +0.000 OA
ATOM     21  C   UNL     1      -3.277  10.117  14.737  0.00  0.00    +0.000 C 
ENDBRANCH  17  20
ENDBRANCH   9  15
ENDBRANCH   1   9
BRANCH   1  22
ATOM     22  C   UNL     1      -0.143   9.756  21.073  0.00  0.00    +0.000 C 
BRANCH  22  23
ATOM     23  C   UNL     1       1.069   8.801  21.104  0.00  0.00    +0.000 C 
ATOM     24  O   UNL     1       1.648   8.573  22.165  0.00  0.00    +0.000 OA
ATOM     25  N   UNL     1       1.346   8.156  19.904  0.00  0.00    +0.000 N 
ATOM     26  H   UNL     1       1.049   8.642  19.063  0.00  0.00    +0.000 HD
BRANCH  25  27
ATOM     27  C   UNL     1       2.108   6.965  19.701  0.00  0.00    +0.000 A 
ATOM     28  C   UNL     1       3.194   6.848  18.827  0.00  0.00    +0.000 A 
ATOM     29  C   UNL     1       3.956   5.660  18.757  0.00  0.00    +0.000 A 
ATOM     30  C   UNL     1       3.658   4.568  19.575  0.00  0.00    +0.000 A 
ATOM     31  C   UNL     1       4.500   3.319  19.561  0.00  0.00    +0.000 C 
ATOM     32  C   UNL     1       2.547   4.659  20.417  0.00  0.00    +0.000 A 
ATOM     33  C   UNL     1       1.786   5.843  20.480  0.00  0.00    +0.000 A 
ENDBRANCH  25  27
ENDBRANCH  22  23
ENDBRANCH   1  22
TORSDOF 8
ENDMDL
