MODEL 1
REMARK VINA RESULT:      -7.9      0.000      0.000
REMARK  Name = 
REMARK  9 active torsions:
REMARK  status: ('A' for Active; 'I' for Inactive)
REMARK    1  A    between atoms: C_1  and  O_2
REMARK    2  A    between atoms: O_2  and  C_3
REMARK    3  A    between atoms: C_9  and  N_10
REMARK    4  A    between atoms: C_11  and  C_13
REMARK    5  A    between atoms: C_14  and  C_15
REMARK    6  A    between atoms: C_18  and  S_19
REMARK    7  A    between atoms: S_19  and  N_20
REMARK    8  A    between atoms: C_25  and  C_26
REMARK    9  A    between atoms: C_25  and  C_27
REMARK                            x       y       z     vdW  Elec       q    Type
REMARK                         _______ _______ _______ _____ _____    ______ ____
ROOT
ATOM      1  C   UNL     1       3.484   5.185  19.375  0.00  0.00    +0.000 C 
ATOM      2  C   UNL     1       2.233   5.884  18.830  0.00  0.00    +0.000 C 
ATOM      3  C   UNL     1       2.114   4.523  19.501  0.00  0.00    +0.000 C 
ATOM      4  C   UNL     1       1.746   3.356  18.609  0.00  0.00    +0.000 C 
ATOM      5  C   UNL     1       1.538   4.389  20.889  0.00  0.00    +0.000 C 
ENDROOT
BRANCH   2   6
ATOM      6  C   UNL     1       1.806   7.191  19.466  0.00  0.00    +0.000 A 
ATOM      7  C   UNL     1       1.667   8.342  18.667  0.00  0.00    +0.000 A 
ATOM      8  C   UNL     1       1.254   9.562  19.206  0.00  0.00    +0.000 A 
ATOM      9  C   UNL     1       0.954   9.642  20.564  0.00  0.00    +0.000 A 
ATOM     10  C   UNL     1       1.082   8.524  21.388  0.00  0.00    +0.000 A 
ATOM     11  C   UNL     1       1.481   7.307  20.829  0.00  0.00    +0.000 A 
BRANCH   9  12
ATOM     12  S   UNL     1       0.367  11.167  21.233  0.00  0.00    +0.000 S 
ATOM     13  O   UNL     1       1.462  12.098  21.341  0.00  0.00    +0.000 OA
ATOM     14  O   UNL     1      -0.890  11.512  20.606  0.00  0.00    +0.000 OA
BRANCH  12  15
ATOM     15  N   UNL     1      -0.009  10.696  22.798  0.00  0.00    +0.000 NA
ATOM     16  H   UNL     1       0.549   9.888  23.070  0.00  0.00    +0.000 HD
ATOM     17  H   UNL     1       0.044  11.489  23.435  0.00  0.00    +0.000 HD
ENDBRANCH  12  15
ENDBRANCH   9  12
ENDBRANCH   2   6
BRANCH   1  19
ATOM     18  N   UNL     1       4.471   5.215  17.150  0.00  0.00    +0.000 N 
ATOM     19  C   UNL     1       4.526   4.679  18.427  0.00  0.00    +0.000 C 
ATOM     20  O   UNL     1       5.326   3.835  18.814  0.00  0.00    +0.000 OA
ATOM     21  H   UNL     1       3.646   5.732  16.871  0.00  0.00    +0.000 HD
BRANCH  18  28
ATOM     22  C   UNL     1       6.759   5.523  16.320  0.00  0.00    +0.000 A 
ATOM     23  C   UNL     1       7.731   5.306  15.329  0.00  0.00    +0.000 A 
ATOM     24  C   UNL     1       7.410   4.638  14.148  0.00  0.00    +0.000 A 
ATOM     25  C   UNL     1       6.118   4.166  13.959  0.00  0.00    +0.000 A 
ATOM     26 CL   UNL     1       5.725   3.329  12.508  0.00  0.00    +0.000 Cl
ATOM     27  C   UNL     1       5.146   4.353  14.939  0.00  0.00    +0.000 A 
ATOM     28  C   UNL     1       5.445   5.035  16.127  0.00  0.00    +0.000 A 
BRANCH  22  30
ATOM     29  C   UNL     1       7.503   7.542  17.324  0.00  0.00    +0.000 C 
ATOM     30  O   UNL     1       7.017   6.205  17.488  0.00  0.00    +0.000 OA
ENDBRANCH  22  30
ENDBRANCH  18  28
ENDBRANCH   1  19
TORSDOF 6
ENDMDL
MODEL 2
REMARK VINA RESULT:      -7.8      0.395      1.001
REMARK  Name = 
REMARK  9 active torsions:
REMARK  status: ('A' for Active; 'I' for Inactive)
REMARK    1  A    between atoms: C_1  and  O_2
REMARK    2  A    between atoms: O_2  and  C_3
REMARK    3  A    between atoms: C_9  and  N_10
REMARK    4  A    between atoms: C_11  and  C_13
REMARK    5  A    between atoms: C_14  and  C_15
REMARK    6  A    between atoms: C_18  and  S_19
REMARK    7  A    between atoms: S_19  and  N_20
REMARK    8  A    between atoms: C_25  and  C_26
REMARK    9  A    between atoms: C_25  and  C_27
REMARK                            x       y       z     vdW  Elec       q    Type
REMARK                         _______ _______ _______ _____ _____    ______ ____
ROOT
ATOM      1  C   UNL     1       3.784   5.131  19.524  0.00  0.00    +0.000 C 
ATOM      2  C   UNL     1       2.372   5.554  19.103  0.00  0.00    +0.000 C 
ATOM      3  C   UNL     1       2.571   4.323  19.975  0.00  0.00    +0.000 C 
ATOM      4  C   UNL     1       2.266   2.983  19.339  0.00  0.00    +0.000 C 
ATOM      5  C   UNL     1       2.232   4.351  21.446  0.00  0.00    +0.000 C 
ENDROOT
BRANCH   2   6
ATOM      6  C   UNL     1       1.840   6.881  19.605  0.00  0.00    +0.000 A 
ATOM      7  C   UNL     1       1.282   6.966  20.895  0.00  0.00    +0.000 A 
ATOM      8  C   UNL     1       0.801   8.172  21.406  0.00  0.00    +0.000 A 
ATOM      9  C   UNL     1       0.887   9.326  20.632  0.00  0.00    +0.000 A 
ATOM     10  C   UNL     1       1.431   9.282  19.348  0.00  0.00    +0.000 A 
ATOM     11  C   UNL     1       1.923   8.069  18.857  0.00  0.00    +0.000 A 
BRANCH   9  12
ATOM     12  S   UNL     1       0.340  10.864  21.304  0.00  0.00    +0.000 S 
ATOM     13  O   UNL     1       1.430  11.807  21.297  0.00  0.00    +0.000 OA
ATOM     14  O   UNL     1      -0.968  11.181  20.773  0.00  0.00    +0.000 OA
BRANCH  12  15
ATOM     15  N   UNL     1       0.098  10.434  22.907  0.00  0.00    +0.000 NA
ATOM     16  H   UNL     1      -0.008   9.425  22.994  0.00  0.00    +0.000 HD
ATOM     17  H   UNL     1       0.818  10.843  23.502  0.00  0.00    +0.000 HD
ENDBRANCH  12  15
ENDBRANCH   9  12
ENDBRANCH   2   6
BRANCH   1  19
ATOM     18  N   UNL     1       4.620   5.184  17.237  0.00  0.00    +0.000 N 
ATOM     19  C   UNL     1       4.743   4.616  18.495  0.00  0.00    +0.000 C 
ATOM     20  O   UNL     1       5.540   3.739  18.809  0.00  0.00    +0.000 OA
ATOM     21  H   UNL     1       3.795   5.733  17.027  0.00  0.00    +0.000 HD
BRANCH  18  28
ATOM     22  C   UNL     1       6.851   5.452  16.255  0.00  0.00    +0.000 A 
ATOM     23  C   UNL     1       7.748   5.229  15.196  0.00  0.00    +0.000 A 
ATOM     24  C   UNL     1       7.329   4.589  14.031  0.00  0.00    +0.000 A 
ATOM     25  C   UNL     1       6.016   4.150  13.925  0.00  0.00    +0.000 A 
ATOM     26 CL   UNL     1       5.504   3.346  12.492  0.00  0.00    +0.000 Cl
ATOM     27  C   UNL     1       5.119   4.344  14.973  0.00  0.00    +0.000 A 
ATOM     28  C   UNL     1       5.516   4.998  16.146  0.00  0.00    +0.000 A 
BRANCH  22  30
ATOM     29  C   UNL     1       7.314   7.532  17.304  0.00  0.00    +0.000 C 
ATOM     30  O   UNL     1       7.206   6.108  17.413  0.00  0.00    +0.000 OA
ENDBRANCH  22  30
ENDBRANCH  18  28
ENDBRANCH   1  19
TORSDOF 6
ENDMDL
MODEL 3
REMARK VINA RESULT:      -7.6      1.211      1.384
REMARK  Name = 
REMARK  9 active torsions:
REMARK  status: ('A' for Active; 'I' for Inactive)
REMARK    1  A    between atoms: C_1  and  O_2
REMARK    2  A    between atoms: O_2  and  C_3
REMARK    3  A    between atoms: C_9  and  N_10
REMARK    4  A    between atoms: C_11  and  C_13
REMARK    5  A    between atoms: C_14  and  C_15
REMARK    6  A    between atoms: C_18  and  S_19
REMARK    7  A    between atoms: S_19  and  N_20
REMARK    8  A    between atoms: C_25  and  C_26
REMARK    9  A    between atoms: C_25  and  C_27
REMARK                            x       y       z     vdW  Elec       q    Type
REMARK                         _______ _______ _______ _____ _____    ______ ____
ROOT
ATOM      1  C   UNL     1       3.453   5.506  18.751  0.00  0.00    +0.000 C 
ATOM      2  C   UNL     1       2.145   6.168  18.302  0.00  0.00    +0.000 C 
ATOM      3  C   UNL     1       2.109   4.934  19.192  0.00  0.00    +0.000 C 
ATOM      4  C   UNL     1       1.579   3.660  18.567  0.00  0.00    +0.000 C 
ATOM      5  C   UNL     1       1.761   5.042  20.656  0.00  0.00    +0.000 C 
ENDROOT
BRANCH   2   6
ATOM      6  C   UNL     1       1.851   7.575  18.780  0.00  0.00    +0.000 A 
ATOM      7  C   UNL     1       1.897   8.645  17.866  0.00  0.00    +0.000 A 
ATOM      8  C   UNL     1       1.611   9.954  18.257  0.00  0.00    +0.000 A 
ATOM      9  C   UNL     1       1.255  10.211  19.579  0.00  0.00    +0.000 A 
ATOM     10  C   UNL     1       1.201   9.177  20.514  0.00  0.00    +0.000 A 
ATOM     11  C   UNL     1       1.474   7.869  20.102  0.00  0.00    +0.000 A 
BRANCH   9  12
ATOM     12  S   UNL     1       0.828  11.856  20.058  0.00  0.00    +0.000 S 
ATOM     13  O   UNL     1      -0.457  12.199  19.506  0.00  0.00    +0.000 OA
ATOM     14  O   UNL     1       1.153  12.046  21.455  0.00  0.00    +0.000 OA
BRANCH  12  15
ATOM     15  N   UNL     1       1.964  12.736  19.194  0.00  0.00    +0.000 NA
ATOM     16  H   UNL     1       1.504  13.392  18.565  0.00  0.00    +0.000 HD
ATOM     17  H   UNL     1       2.650  13.153  19.821  0.00  0.00    +0.000 HD
ENDBRANCH  12  15
ENDBRANCH   9  12
ENDBRANCH   2   6
BRANCH   1  19
ATOM     18  N   UNL     1       4.541   5.520  16.572  0.00  0.00    +0.000 N 
ATOM     19  C   UNL     1       4.319   4.814  17.744  0.00  0.00    +0.000 C 
ATOM     20  O   UNL     1       4.749   3.694  17.996  0.00  0.00    +0.000 OA
ATOM     21  H   UNL     1       3.967   6.330  16.373  0.00  0.00    +0.000 HD
BRANCH  18  28
ATOM     22  C   UNL     1       6.795   5.627  15.611  0.00  0.00    +0.000 A 
ATOM     23  C   UNL     1       7.714   5.240  14.621  0.00  0.00    +0.000 A 
ATOM     24  C   UNL     1       7.319   4.424  13.562  0.00  0.00    +0.000 A 
ATOM     25  C   UNL     1       6.007   3.975  13.497  0.00  0.00    +0.000 A 
ATOM     26 CL   UNL     1       5.523   2.956  12.197  0.00  0.00    +0.000 Cl
ATOM     27  C   UNL     1       5.087   4.332  14.480  0.00  0.00    +0.000 A 
ATOM     28  C   UNL     1       5.461   5.164  15.545  0.00  0.00    +0.000 A 
BRANCH  22  30
ATOM     29  C   UNL     1       7.630   5.802  17.828  0.00  0.00    +0.000 C 
ATOM     30  O   UNL     1       7.127   6.458  16.659  0.00  0.00    +0.000 OA
ENDBRANCH  22  30
ENDBRANCH  18  28
ENDBRANCH   1  19
TORSDOF 6
ENDMDL
MODEL 4
REMARK VINA RESULT:      -7.5      1.208      1.271
REMARK  Name = 
REMARK  9 active torsions:
REMARK  status: ('A' for Active; 'I' for Inactive)
REMARK    1  A    between atoms: C_1  and  O_2
REMARK    2  A    between atoms: O_2  and  C_3
REMARK    3  A    between atoms: C_9  and  N_10
REMARK    4  A    between atoms: C_11  and  C_13
REMARK    5  A    between atoms: C_14  and  C_15
REMARK    6  A    between atoms: C_18  and  S_19
REMARK    7  A    between atoms: S_19  and  N_20
REMARK    8  A    between atoms: C_25  and  C_26
REMARK    9  A    between atoms: C_25  and  C_27
REMARK                            x       y       z     vdW  Elec       q    Type
REMARK                         _______ _______ _______ _____ _____    ______ ____
ROOT
ATOM      1  C   UNL     1       3.589   4.798  18.526  0.00  0.00    +0.000 C 
ATOM      2  C   UNL     1       2.192   5.395  18.326  0.00  0.00    +0.000 C 
ATOM      3  C   UNL     1       2.368   4.131  19.153  0.00  0.00    +0.000 C 
ATOM      4  C   UNL     1       1.811   2.851  18.566  0.00  0.00    +0.000 C 
ATOM      5  C   UNL     1       2.260   4.166  20.658  0.00  0.00    +0.000 C 
ENDROOT
BRANCH   2   6
ATOM      6  C   UNL     1       1.906   6.765  18.907  0.00  0.00    +0.000 A 
ATOM      7  C   UNL     1       1.885   7.891  18.062  0.00  0.00    +0.000 A 
ATOM      8  C   UNL     1       1.604   9.168  18.550  0.00  0.00    +0.000 A 
ATOM      9  C   UNL     1       1.320   9.335  19.903  0.00  0.00    +0.000 A 
ATOM     10  C   UNL     1       1.333   8.244  20.773  0.00  0.00    +0.000 A 
ATOM     11  C   UNL     1       1.601   6.969  20.264  0.00  0.00    +0.000 A 
BRANCH   9  12
ATOM     12  S   UNL     1       0.899  10.939  20.509  0.00  0.00    +0.000 S 
ATOM     13  O   UNL     1       1.005  10.953  21.946  0.00  0.00    +0.000 OA
ATOM     14  O   UNL     1       1.516  11.944  19.672  0.00  0.00    +0.000 OA
BRANCH  12  15
ATOM     15  N   UNL     1      -0.740  10.984  20.156  0.00  0.00    +0.000 NA
ATOM     16  H   UNL     1      -1.046  11.943  20.003  0.00  0.00    +0.000 HD
ATOM     17  H   UNL     1      -0.964  10.336  19.401  0.00  0.00    +0.000 HD
ENDBRANCH  12  15
ENDBRANCH   9  12
ENDBRANCH   2   6
BRANCH   1  19
ATOM     18  N   UNL     1       4.633   5.078  16.344  0.00  0.00    +0.000 N 
ATOM     19  C   UNL     1       4.314   4.194  17.362  0.00  0.00    +0.000 C 
ATOM     20  O   UNL     1       4.555   2.993  17.367  0.00  0.00    +0.000 OA
ATOM     21  H   UNL     1       4.199   5.994  16.336  0.00  0.00    +0.000 HD
BRANCH  18  28
ATOM     22  C   UNL     1       6.804   5.253  15.216  0.00  0.00    +0.000 A 
ATOM     23  C   UNL     1       7.639   4.936  14.131  0.00  0.00    +0.000 A 
ATOM     24  C   UNL     1       7.156   4.198  13.052  0.00  0.00    +0.000 A 
ATOM     25  C   UNL     1       5.839   3.756  13.060  0.00  0.00    +0.000 A 
ATOM     26 CL   UNL     1       5.247   2.832  11.734  0.00  0.00    +0.000 Cl
ATOM     27  C   UNL     1       5.003   4.043  14.136  0.00  0.00    +0.000 A 
ATOM     28  C   UNL     1       5.466   4.796  15.224  0.00  0.00    +0.000 A 
BRANCH  22  30
ATOM     29  C   UNL     1       7.654   5.261  17.434  0.00  0.00    +0.000 C 
ATOM     30  O   UNL     1       7.223   6.007  16.290  0.00  0.00    +0.000 OA
ENDBRANCH  22  30
ENDBRANCH  18  28
ENDBRANCH   1  19
TORSDOF 6
ENDMDL
MODEL 5
REMARK VINA RESULT:      -7.5      1.469      1.746
REMARK  Name = 
REMARK  9 active torsions:
REMARK  status: ('A' for Active; 'I' for Inactive)
REMARK    1  A    between atoms: C_1  and  O_2
REMARK    2  A    between atoms: O_2  and  C_3
REMARK    3  A    between atoms: C_9  and  N_10
REMARK    4  A    between atoms: C_11  and  C_13
REMARK    5  A    between atoms: C_14  and  C_15
REMARK    6  A    between atoms: C_18  and  S_19
REMARK    7  A    between atoms: S_19  and  N_20
REMARK    8  A    between atoms: C_25  and  C_26
REMARK    9  A    between atoms: C_25  and  C_27
REMARK                            x       y       z     vdW  Elec       q    Type
REMARK                         _______ _______ _______ _____ _____    ______ ____
ROOT
ATOM      1  C   UNL     1       3.549   6.730  18.340  0.00  0.00    +0.000 C 
ATOM      2  C   UNL     1       2.083   7.165  18.234  0.00  0.00    +0.000 C 
ATOM      3  C   UNL     1       2.428   5.747  18.665  0.00  0.00    +0.000 C 
ATOM      4  C   UNL     1       2.079   4.639  17.694  0.00  0.00    +0.000 C 
ATOM      5  C   UNL     1       2.285   5.316  20.104  0.00  0.00    +0.000 C 
ENDROOT
BRANCH   2   6
ATOM      6  C   UNL     1       1.586   8.246  19.172  0.00  0.00    +0.000 A 
ATOM      7  C   UNL     1       1.137   9.473  18.646  0.00  0.00    +0.000 A 
ATOM      8  C   UNL     1       0.649  10.488  19.470  0.00  0.00    +0.000 A 
ATOM      9  C   UNL     1       0.587  10.282  20.846  0.00  0.00    +0.000 A 
ATOM     10  C   UNL     1       1.025   9.081  21.405  0.00  0.00    +0.000 A 
ATOM     11  C   UNL     1       1.495   8.068  20.564  0.00  0.00    +0.000 A 
BRANCH   9  12
ATOM     12  S   UNL     1      -0.092  11.540  21.882  0.00  0.00    +0.000 S 
ATOM     13  O   UNL     1      -0.423  10.977  23.167  0.00  0.00    +0.000 OA
ATOM     14  O   UNL     1       0.687  12.750  21.739  0.00  0.00    +0.000 OA
BRANCH  12  15
ATOM     15  N   UNL     1      -1.549  11.830  21.104  0.00  0.00    +0.000 NA
ATOM     16  H   UNL     1      -1.587  12.791  20.766  0.00  0.00    +0.000 HD
ATOM     17  H   UNL     1      -1.727  11.119  20.396  0.00  0.00    +0.000 HD
ENDBRANCH  12  15
ENDBRANCH   9  12
ENDBRANCH   2   6
BRANCH   1  19
ATOM     18  N   UNL     1       4.840   5.329  16.823  0.00  0.00    +0.000 N 
ATOM     19  C   UNL     1       4.379   6.606  17.099  0.00  0.00    +0.000 C 
ATOM     20  O   UNL     1       4.611   7.609  16.434  0.00  0.00    +0.000 OA
ATOM     21  H   UNL     1       4.779   4.620  17.545  0.00  0.00    +0.000 HD
BRANCH  18  28
ATOM     22  C   UNL     1       6.902   4.990  15.538  0.00  0.00    +0.000 A 
ATOM     23  C   UNL     1       7.548   4.542  14.374  0.00  0.00    +0.000 A 
ATOM     24  C   UNL     1       6.814   4.052  13.295  0.00  0.00    +0.000 A 
ATOM     25  C   UNL     1       5.429   3.988  13.382  0.00  0.00    +0.000 A 
ATOM     26 CL   UNL     1       4.524   3.369  12.055  0.00  0.00    +0.000 Cl
ATOM     27  C   UNL     1       4.773   4.408  14.536  0.00  0.00    +0.000 A 
ATOM     28  C   UNL     1       5.492   4.917  15.626  0.00  0.00    +0.000 A 
BRANCH  22  30
ATOM     29  C   UNL     1       7.783   4.611  17.711  0.00  0.00    +0.000 C 
ATOM     30  O   UNL     1       7.579   5.513  16.618  0.00  0.00    +0.000 OA
ENDBRANCH  22  30
ENDBRANCH  18  28
ENDBRANCH   1  19
TORSDOF 6
ENDMDL
MODEL 6
REMARK VINA RESULT:      -7.3      5.485     10.656
REMARK  Name = 
REMARK  9 active torsions:
REMARK  status: ('A' for Active; 'I' for Inactive)
REMARK    1  A    between atoms: C_1  and  O_2
REMARK    2  A    between atoms: O_2  and  C_3
REMARK    3  A    between atoms: C_9  and  N_10
REMARK    4  A    between atoms: C_11  and  C_13
REMARK    5  A    between atoms: C_14  and  C_15
REMARK    6  A    between atoms: C_18  and  S_19
REMARK    7  A    between atoms: S_19  and  N_20
REMARK    8  A    between atoms: C_25  and  C_26
REMARK    9  A    between atoms: C_25  and  C_27
REMARK                            x       y       z     vdW  Elec       q    Type
REMARK                         _______ _______ _______ _____ _____    ______ ____
ROOT
ATOM      1  C   UNL     1       0.653  11.268  20.994  0.00  0.00    +0.000 C 
ATOM      2  C   UNL     1       0.135  10.250  19.972  0.00  0.00    +0.000 C 
ATOM      3  C   UNL     1       0.241  11.720  19.596  0.00  0.00    +0.000 C 
ATOM      4  C   UNL     1      -1.061  12.464  19.388  0.00  0.00    +0.000 C 
ATOM      5  C   UNL     1       1.335  12.212  18.680  0.00  0.00    +0.000 C 
ENDROOT
BRANCH   2   6
ATOM      6  C   UNL     1       1.084   9.173  19.486  0.00  0.00    +0.000 A 
ATOM      7  C   UNL     1       1.465   8.135  20.357  0.00  0.00    +0.000 A 
ATOM      8  C   UNL     1       2.318   7.110  19.946  0.00  0.00    +0.000 A 
ATOM      9  C   UNL     1       2.794   7.100  18.637  0.00  0.00    +0.000 A 
ATOM     10  C   UNL     1       2.441   8.113  17.745  0.00  0.00    +0.000 A 
ATOM     11  C   UNL     1       1.573   9.123  18.168  0.00  0.00    +0.000 A 
BRANCH   9  12
ATOM     12  S   UNL     1       3.819   5.768  18.096  0.00  0.00    +0.000 S 
ATOM     13  O   UNL     1       4.802   5.477  19.108  0.00  0.00    +0.000 OA
ATOM     14  O   UNL     1       2.995   4.744  17.493  0.00  0.00    +0.000 OA
BRANCH  12  15
ATOM     15  N   UNL     1       4.644   6.503  16.834  0.00  0.00    +0.000 NA
ATOM     16  H   UNL     1       4.098   7.274  16.453  0.00  0.00    +0.000 HD
ATOM     17  H   UNL     1       5.592   6.747  17.117  0.00  0.00    +0.000 HD
ENDBRANCH  12  15
ENDBRANCH   9  12
ENDBRANCH   2   6
BRANCH   1  19
ATOM     18  N   UNL     1      -0.661  12.880  22.260  0.00  0.00    +0.000 N 
ATOM     19  C   UNL     1      -0.166  11.587  22.207  0.00  0.00    +0.000 C 
ATOM     20  O   UNL     1      -0.328  10.723  23.061  0.00  0.00    +0.000 OA
ATOM     21  H   UNL     1      -0.290  13.573  21.621  0.00  0.00    +0.000 HD
BRANCH  18  28
ATOM     22  C   UNL     1      -1.316  14.559  23.923  0.00  0.00    +0.000 A 
ATOM     23  C   UNL     1      -2.264  15.071  24.825  0.00  0.00    +0.000 A 
ATOM     24  C   UNL     1      -3.474  14.411  25.039  0.00  0.00    +0.000 A 
ATOM     25  C   UNL     1      -3.749  13.244  24.339  0.00  0.00    +0.000 A 
ATOM     26 CL   UNL     1      -5.248  12.437  24.592  0.00  0.00    +0.000 Cl
ATOM     27  C   UNL     1      -2.830  12.733  23.426  0.00  0.00    +0.000 A 
ATOM     28  C   UNL     1      -1.603  13.374  23.207  0.00  0.00    +0.000 A 
BRANCH  22  30
ATOM     29  C   UNL     1      -0.146  16.500  23.211  0.00  0.00    +0.000 C 
ATOM     30  O   UNL     1      -0.094  15.155  23.701  0.00  0.00    +0.000 OA
ENDBRANCH  22  30
ENDBRANCH  18  28
ENDBRANCH   1  19
TORSDOF 6
ENDMDL
MODEL 7
REMARK VINA RESULT:      -7.3      1.110      1.611
REMARK  Name = 
REMARK  9 active torsions:
REMARK  status: ('A' for Active; 'I' for Inactive)
REMARK    1  A    between atoms: C_1  and  O_2
REMARK    2  A    between atoms: O_2  and  C_3
REMARK    3  A    between atoms: C_9  and  N_10
REMARK    4  A    between atoms: C_11  and  C_13
REMARK    5  A    between atoms: C_14  and  C_15
REMARK    6  A    between atoms: C_18  and  S_19
REMARK    7  A    between atoms: S_19  and  N_20
REMARK    8  A    between atoms: C_25  and  C_26
REMARK    9  A    between atoms: C_25  and  C_27
REMARK                            x       y       z     vdW  Elec       q    Type
REMARK                         _______ _______ _______ _____ _____    ______ ____
ROOT
ATOM      1  C   UNL     1       3.406   5.643  18.879  0.00  0.00    +0.000 C 
ATOM      2  C   UNL     1       2.118   6.274  18.339  0.00  0.00    +0.000 C 
ATOM      3  C   UNL     1       2.049   5.031  19.213  0.00  0.00    +0.000 C 
ATOM      4  C   UNL     1       1.603   3.750  18.540  0.00  0.00    +0.000 C 
ATOM      5  C   UNL     1       1.589   5.115  20.648  0.00  0.00    +0.000 C 
ENDROOT
BRANCH   2   6
ATOM      6  C   UNL     1       1.751   7.668  18.804  0.00  0.00    +0.000 A 
ATOM      7  C   UNL     1       1.467   7.898  20.164  0.00  0.00    +0.000 A 
ATOM      8  C   UNL     1       1.146   9.170  20.641  0.00  0.00    +0.000 A 
ATOM      9  C   UNL     1       1.122  10.245  19.757  0.00  0.00    +0.000 A 
ATOM     10  C   UNL     1       1.396  10.058  18.402  0.00  0.00    +0.000 A 
ATOM     11  C   UNL     1       1.730   8.780  17.943  0.00  0.00    +0.000 A 
BRANCH   9  12
ATOM     12  S   UNL     1       0.783  11.865  20.371  0.00  0.00    +0.000 S 
ATOM     13  O   UNL     1      -0.550  11.903  20.917  0.00  0.00    +0.000 OA
ATOM     14  O   UNL     1       1.936  12.353  21.095  0.00  0.00    +0.000 OA
BRANCH  12  15
ATOM     15  N   UNL     1       0.732  12.736  18.939  0.00  0.00    +0.000 NA
ATOM     16  H   UNL     1       1.559  12.546  18.376  0.00  0.00    +0.000 HD
ATOM     17  H   UNL     1      -0.156  12.590  18.460  0.00  0.00    +0.000 HD
ENDBRANCH  12  15
ENDBRANCH   9  12
ENDBRANCH   2   6
BRANCH   1  19
ATOM     18  N   UNL     1       4.488   5.596  16.698  0.00  0.00    +0.000 N 
ATOM     19  C   UNL     1       4.364   4.984  17.935  0.00  0.00    +0.000 C 
ATOM     20  O   UNL     1       4.946   3.966  18.290  0.00  0.00    +0.000 OA
ATOM     21  H   UNL     1       3.806   6.295  16.427  0.00  0.00    +0.000 HD
BRANCH  18  28
ATOM     22  C   UNL     1       6.755   5.816  15.788  0.00  0.00    +0.000 A 
ATOM     23  C   UNL     1       7.718   5.463  14.828  0.00  0.00    +0.000 A 
ATOM     24  C   UNL     1       7.397   4.605  13.777  0.00  0.00    +0.000 A 
ATOM     25  C   UNL     1       6.114   4.080  13.690  0.00  0.00    +0.000 A 
ATOM     26 CL   UNL     1       5.721   3.010  12.401  0.00  0.00    +0.000 Cl
ATOM     27  C   UNL     1       5.152   4.403  14.644  0.00  0.00    +0.000 A 
ATOM     28  C   UNL     1       5.451   5.274  15.700  0.00  0.00    +0.000 A 
BRANCH  22  30
ATOM     29  C   UNL     1       7.692   6.114  17.950  0.00  0.00    +0.000 C 
ATOM     30  O   UNL     1       7.013   6.684  16.826  0.00  0.00    +0.000 OA
ENDBRANCH  22  30
ENDBRANCH  18  28
ENDBRANCH   1  19
TORSDOF 6
ENDMDL
MODEL 8
REMARK VINA RESULT:      -7.3      5.493     10.599
REMARK  Name = 
REMARK  9 active torsions:
REMARK  status: ('A' for Active; 'I' for Inactive)
REMARK    1  A    between atoms: C_1  and  O_2
REMARK    2  A    between atoms: O_2  and  C_3
REMARK    3  A    between atoms: C_9  and  N_10
REMARK    4  A    between atoms: C_11  and  C_13
REMARK    5  A    between atoms: C_14  and  C_15
REMARK    6  A    between atoms: C_18  and  S_19
REMARK    7  A    between atoms: S_19  and  N_20
REMARK    8  A    between atoms: C_25  and  C_26
REMARK    9  A    between atoms: C_25  and  C_27
REMARK                            x       y       z     vdW  Elec       q    Type
REMARK                         _______ _______ _______ _____ _____    ______ ____
ROOT
ATOM      1  C   UNL     1       0.706  11.217  21.003  0.00  0.00    +0.000 C 
ATOM      2  C   UNL     1       0.165  10.244  19.949  0.00  0.00    +0.000 C 
ATOM      3  C   UNL     1       0.348  11.716  19.606  0.00  0.00    +0.000 C 
ATOM      4  C   UNL     1      -0.914  12.523  19.384  0.00  0.00    +0.000 C 
ATOM      5  C   UNL     1       1.484  12.172  18.724  0.00  0.00    +0.000 C 
ENDROOT
BRANCH   2   6
ATOM      6  C   UNL     1       1.074   9.134  19.463  0.00  0.00    +0.000 A 
ATOM      7  C   UNL     1       1.559   9.158  18.142  0.00  0.00    +0.000 A 
ATOM      8  C   UNL     1       2.416   8.169  17.658  0.00  0.00    +0.000 A 
ATOM      9  C   UNL     1       2.818   7.139  18.505  0.00  0.00    +0.000 A 
ATOM     10  C   UNL     1       2.356   7.079  19.820  0.00  0.00    +0.000 A 
ATOM     11  C   UNL     1       1.511   8.087  20.293  0.00  0.00    +0.000 A 
BRANCH   9  12
ATOM     12  S   UNL     1       3.955   5.924  17.914  0.00  0.00    +0.000 S 
ATOM     13  O   UNL     1       3.226   4.781  17.425  0.00  0.00    +0.000 OA
ATOM     14  O   UNL     1       4.993   6.574  17.144  0.00  0.00    +0.000 OA
BRANCH  12  15
ATOM     15  N   UNL     1       4.674   5.446  19.352  0.00  0.00    +0.000 NA
ATOM     16  H   UNL     1       4.006   4.944  19.935  0.00  0.00    +0.000 HD
ATOM     17  H   UNL     1       5.545   4.949  19.171  0.00  0.00    +0.000 HD
ENDBRANCH  12  15
ENDBRANCH   9  12
ENDBRANCH   2   6
BRANCH   1  19
ATOM     18  N   UNL     1      -0.597  12.853  22.250  0.00  0.00    +0.000 N 
ATOM     19  C   UNL     1      -0.125  11.551  22.203  0.00  0.00    +0.000 C 
ATOM     20  O   UNL     1      -0.315  10.691  23.055  0.00  0.00    +0.000 OA
ATOM     21  H   UNL     1      -0.205  13.539  21.616  0.00  0.00    +0.000 HD
BRANCH  18  28
ATOM     22  C   UNL     1      -1.268  14.571  23.867  0.00  0.00    +0.000 A 
ATOM     23  C   UNL     1      -2.221  15.099  24.754  0.00  0.00    +0.000 A 
ATOM     24  C   UNL     1      -3.424  14.434  24.986  0.00  0.00    +0.000 A 
ATOM     25  C   UNL     1      -3.689  13.246  24.318  0.00  0.00    +0.000 A 
ATOM     26 CL   UNL     1      -5.180  12.432  24.594  0.00  0.00    +0.000 Cl
ATOM     27  C   UNL     1      -2.765  12.719  23.419  0.00  0.00    +0.000 A 
ATOM     28  C   UNL     1      -1.544  13.364  23.183  0.00  0.00    +0.000 A 
BRANCH  22  30
ATOM     29  C   UNL     1      -0.027  16.595  23.789  0.00  0.00    +0.000 C 
ATOM     30  O   UNL     1      -0.052  15.172  23.628  0.00  0.00    +0.000 OA
ENDBRANCH  22  30
ENDBRANCH  18  28
ENDBRANCH   1  19
TORSDOF 6
ENDMDL
MODEL 9
REMARK VINA RESULT:      -7.2      3.445      5.141
REMARK  Name = 
REMARK  9 active torsions:
REMARK  status: ('A' for Active; 'I' for Inactive)
REMARK    1  A    between atoms: C_1  and  O_2
REMARK    2  A    between atoms: O_2  and  C_3
REMARK    3  A    between atoms: C_9  and  N_10
REMARK    4  A    between atoms: C_11  and  C_13
REMARK    5  A    between atoms: C_14  and  C_15
REMARK    6  A    between atoms: C_18  and  S_19
REMARK    7  A    between atoms: S_19  and  N_20
REMARK    8  A    between atoms: C_25  and  C_26
REMARK    9  A    between atoms: C_25  and  C_27
REMARK                            x       y       z     vdW  Elec       q    Type
REMARK                         _______ _______ _______ _____ _____    ______ ____
ROOT
ATOM      1  C   UNL     1       1.751   8.955  20.044  0.00  0.00    +0.000 C 
ATOM      2  C   UNL     1       0.478   9.731  19.684  0.00  0.00    +0.000 C 
ATOM      3  C   UNL     1       0.583   9.019  21.025  0.00  0.00    +0.000 C 
ATOM      4  C   UNL     1      -0.311   7.814  21.226  0.00  0.00    +0.000 C 
ATOM      5  C   UNL     1       0.797   9.795  22.301  0.00  0.00    +0.000 C 
ENDROOT
BRANCH   2   6
ATOM      6  C   UNL     1       0.579  11.231  19.502  0.00  0.00    +0.000 A 
ATOM      7  C   UNL     1      -0.425  12.066  20.028  0.00  0.00    +0.000 A 
ATOM      8  C   UNL     1      -0.362  13.455  19.905  0.00  0.00    +0.000 A 
ATOM      9  C   UNL     1       0.728  14.035  19.260  0.00  0.00    +0.000 A 
ATOM     10  C   UNL     1       1.742  13.241  18.723  0.00  0.00    +0.000 A 
ATOM     11  C   UNL     1       1.671  11.852  18.870  0.00  0.00    +0.000 A 
BRANCH   9  12
ATOM     12  S   UNL     1       0.842  15.794  19.162  0.00  0.00    +0.000 S 
ATOM     13  O   UNL     1       0.769  16.355  20.487  0.00  0.00    +0.000 OA
ATOM     14  O   UNL     1       1.879  16.154  18.220  0.00  0.00    +0.000 OA
BRANCH  12  15
ATOM     15  N   UNL     1      -0.613  16.159  18.413  0.00  0.00    +0.000 NA
ATOM     16  H   UNL     1      -1.216  15.338  18.387  0.00  0.00    +0.000 HD
ATOM     17  H   UNL     1      -1.034  16.988  18.829  0.00  0.00    +0.000 HD
ENDBRANCH  12  15
ENDBRANCH   9  12
ENDBRANCH   2   6
BRANCH   1  19
ATOM     18  N   UNL     1       2.515   6.644  20.087  0.00  0.00    +0.000 N 
ATOM     19  C   UNL     1       2.094   7.702  19.298  0.00  0.00    +0.000 C 
ATOM     20  O   UNL     1       2.007   7.693  18.076  0.00  0.00    +0.000 OA
ATOM     21  H   UNL     1       2.762   6.821  21.053  0.00  0.00    +0.000 HD
BRANCH  18  28
ATOM     22  C   UNL     1       4.048   4.832  19.467  0.00  0.00    +0.000 A 
ATOM     23  C   UNL     1       4.259   3.500  19.073  0.00  0.00    +0.000 A 
ATOM     24  C   UNL     1       3.181   2.649  18.832  0.00  0.00    +0.000 A 
ATOM     25  C   UNL     1       1.886   3.120  19.001  0.00  0.00    +0.000 A 
ATOM     26 CL   UNL     1       0.556   2.065  18.718  0.00  0.00    +0.000 Cl
ATOM     27  C   UNL     1       1.658   4.431  19.411  0.00  0.00    +0.000 A 
ATOM     28  C   UNL     1       2.728   5.306  19.644  0.00  0.00    +0.000 A 
BRANCH  22  30
ATOM     29  C   UNL     1       6.302   5.422  19.007  0.00  0.00    +0.000 C 
ATOM     30  O   UNL     1       5.077   5.721  19.685  0.00  0.00    +0.000 OA
ENDBRANCH  22  30
ENDBRANCH  18  28
ENDBRANCH   1  19
TORSDOF 6
ENDMDL
