MODEL 1
REMARK VINA RESULT:      -7.8      0.000      0.000
REMARK  Name = 
REMARK  7 active torsions:
REMARK  status: ('A' for Active; 'I' for Inactive)
REMARK    1  A    between atoms: C_1  and  C_2
REMARK    2  A    between atoms: C_2  and  O_3
REMARK    3  A    between atoms: O_3  and  C_4
REMARK    4  A    between atoms: C_4  and  C_6
REMARK    5  A    between atoms: N_8  and  C_9
REMARK    6  A    between atoms: C_18  and  N_19
REMARK    7  A    between atoms: C_20  and  C_21
REMARK                            x       y       z     vdW  Elec       q    Type
REMARK                         _______ _______ _______ _____ _____    ______ ____
ROOT
ATOM      1  C   UNL     1       4.257   6.298  17.636  0.00  0.00    +0.000 A 
ATOM      2  N   UNL     1       3.461   7.307  17.883  0.00  0.00    +0.000 NA
ATOM      3  N   UNL     1       2.567   7.269  18.985  0.00  0.00    +0.000 N 
ATOM      4  C   UNL     1       2.325   6.086  19.752  0.00  0.00    +0.000 A 
ATOM      5  O   UNL     1       1.355   5.879  20.471  0.00  0.00    +0.000 OA
ATOM      6  C   UNL     1       3.342   5.070  19.599  0.00  0.00    +0.000 A 
ATOM      7  C   UNL     1       3.463   3.882  20.284  0.00  0.00    +0.000 A 
ATOM      8  S   UNL     1       4.672   2.879  19.633  0.00  0.00    +0.000 S 
ATOM      9  C   UNL     1       5.121   4.069  18.491  0.00  0.00    +0.000 A 
ATOM     10  C   UNL     1       4.283   5.166  18.539  0.00  0.00    +0.000 A 
ENDROOT
BRANCH   3  11
ATOM     11  C   UNL     1       1.763   8.454  19.155  0.00  0.00    +0.000 A 
ATOM     12  C   UNL     1       1.336   8.870  20.428  0.00  0.00    +0.000 A 
ATOM     13  C   UNL     1       0.446   9.932  20.602  0.00  0.00    +0.000 A 
ATOM     14  C   UNL     1       0.000  10.646  19.502  0.00  0.00    +0.000 A 
ATOM     15  C   UNL     1       0.484  10.325  18.236  0.00  0.00    +0.000 A 
ATOM     16  C   UNL     1       1.366   9.246  18.062  0.00  0.00    +0.000 A 
ENDBRANCH   3  11
BRANCH   7  17
ATOM     17  N   UNL     1       2.770   3.273  21.299  0.00  0.00    +0.000 N 
ATOM     18  C   UNL     1       1.565   2.640  21.235  0.00  0.00    +0.000 C 
ATOM     19  C   UNL     1       0.815   2.481  19.940  0.00  0.00    +0.000 C 
ATOM     20  O   UNL     1       1.048   2.269  22.295  0.00  0.00    +0.000 OA
ATOM     21  H   UNL     1       2.955   3.608  22.238  0.00  0.00    +0.000 HD
ENDBRANCH   7  17
BRANCH   1  22
ATOM     22  C   UNL     1       5.141   6.320  16.377  0.00  0.00    +0.000 C 
ATOM     23  O   UNL     1       5.021   5.473  15.508  0.00  0.00    +0.000 OA
BRANCH  22  24
ATOM     24  O   UNL     1       6.095   7.252  16.483  0.00  0.00    +0.000 OA
BRANCH  24  26
ATOM     25  C   UNL     1       7.907   8.171  17.704  0.00  0.00    +0.000 C 
ATOM     26  C   UNL     1       7.206   6.884  17.313  0.00  0.00    +0.000 C 
ENDBRANCH  24  26
ENDBRANCH  22  24
ENDBRANCH   1  22
TORSDOF 5
ENDMDL
MODEL 2
REMARK VINA RESULT:      -7.4      0.891      1.564
REMARK  Name = 
REMARK  7 active torsions:
REMARK  status: ('A' for Active; 'I' for Inactive)
REMARK    1  A    between atoms: C_1  and  C_2
REMARK    2  A    between atoms: C_2  and  O_3
REMARK    3  A    between atoms: O_3  and  C_4
REMARK    4  A    between atoms: C_4  and  C_6
REMARK    5  A    between atoms: N_8  and  C_9
REMARK    6  A    between atoms: C_18  and  N_19
REMARK    7  A    between atoms: C_20  and  C_21
REMARK                            x       y       z     vdW  Elec       q    Type
REMARK                         _______ _______ _______ _____ _____    ______ ____
ROOT
ATOM      1  C   UNL     1       4.407   6.158  17.677  0.00  0.00    +0.000 A 
ATOM      2  N   UNL     1       3.604   7.174  17.866  0.00  0.00    +0.000 NA
ATOM      3  N   UNL     1       2.665   7.165  18.930  0.00  0.00    +0.000 N 
ATOM      4  C   UNL     1       2.387   6.001  19.715  0.00  0.00    +0.000 A 
ATOM      5  O   UNL     1       1.387   5.814  20.397  0.00  0.00    +0.000 OA
ATOM      6  C   UNL     1       3.407   4.980  19.629  0.00  0.00    +0.000 A 
ATOM      7  C   UNL     1       3.496   3.809  20.347  0.00  0.00    +0.000 A 
ATOM      8  S   UNL     1       4.728   2.788  19.772  0.00  0.00    +0.000 S 
ATOM      9  C   UNL     1       5.227   3.949  18.622  0.00  0.00    +0.000 A 
ATOM     10  C   UNL     1       4.392   5.049  18.608  0.00  0.00    +0.000 A 
ENDROOT
BRANCH   3  11
ATOM     11  C   UNL     1       1.857   8.355  19.037  0.00  0.00    +0.000 A 
ATOM     12  C   UNL     1       1.444   8.846  20.287  0.00  0.00    +0.000 A 
ATOM     13  C   UNL     1       0.551   9.914  20.408  0.00  0.00    +0.000 A 
ATOM     14  C   UNL     1       0.089  10.557  19.271  0.00  0.00    +0.000 A 
ATOM     15  C   UNL     1       0.560  10.162  18.021  0.00  0.00    +0.000 A 
ATOM     16  C   UNL     1       1.444   9.077  17.903  0.00  0.00    +0.000 A 
ENDBRANCH   3  11
BRANCH   7  17
ATOM     17  N   UNL     1       2.758   3.226  21.347  0.00  0.00    +0.000 N 
ATOM     18  C   UNL     1       1.547   2.611  21.250  0.00  0.00    +0.000 C 
ATOM     19  C   UNL     1       0.839   2.443  19.933  0.00  0.00    +0.000 C 
ATOM     20  O   UNL     1       0.989   2.264  22.298  0.00  0.00    +0.000 OA
ATOM     21  H   UNL     1       2.916   3.572  22.286  0.00  0.00    +0.000 HD
ENDBRANCH   7  17
BRANCH   1  22
ATOM     22  C   UNL     1       5.343   6.148  16.456  0.00  0.00    +0.000 C 
ATOM     23  O   UNL     1       6.202   7.002  16.314  0.00  0.00    +0.000 OA
BRANCH  22  24
ATOM     24  O   UNL     1       4.963   5.216  15.575  0.00  0.00    +0.000 OA
BRANCH  24  26
ATOM     25  C   UNL     1       5.862   4.029  13.731  0.00  0.00    +0.000 C 
ATOM     26  C   UNL     1       5.983   4.270  15.223  0.00  0.00    +0.000 C 
ENDBRANCH  24  26
ENDBRANCH  22  24
ENDBRANCH   1  22
TORSDOF 5
ENDMDL
MODEL 3
REMARK VINA RESULT:      -7.4      1.944      5.010
REMARK  Name = 
REMARK  7 active torsions:
REMARK  status: ('A' for Active; 'I' for Inactive)
REMARK    1  A    between atoms: C_1  and  C_2
REMARK    2  A    between atoms: C_2  and  O_3
REMARK    3  A    between atoms: O_3  and  C_4
REMARK    4  A    between atoms: C_4  and  C_6
REMARK    5  A    between atoms: N_8  and  C_9
REMARK    6  A    between atoms: C_18  and  N_19
REMARK    7  A    between atoms: C_20  and  C_21
REMARK                            x       y       z     vdW  Elec       q    Type
REMARK                         _______ _______ _______ _____ _____    ______ ____
ROOT
ATOM      1  C   UNL     1       2.352   4.292  18.360  0.00  0.00    +0.000 A 
ATOM      2  N   UNL     1       1.833   5.390  18.846  0.00  0.00    +0.000 NA
ATOM      3  N   UNL     1       2.468   6.642  18.642  0.00  0.00    +0.000 N 
ATOM      4  C   UNL     1       3.784   6.769  18.094  0.00  0.00    +0.000 A 
ATOM      5  O   UNL     1       4.517   7.745  18.197  0.00  0.00    +0.000 OA
ATOM      6  C   UNL     1       4.241   5.592  17.389  0.00  0.00    +0.000 A 
ATOM      7  C   UNL     1       5.396   5.438  16.657  0.00  0.00    +0.000 A 
ATOM      8  S   UNL     1       5.656   3.825  16.187  0.00  0.00    +0.000 S 
ATOM      9  C   UNL     1       4.169   3.331  16.868  0.00  0.00    +0.000 A 
ATOM     10  C   UNL     1       3.544   4.364  17.539  0.00  0.00    +0.000 A 
ENDROOT
BRANCH   3  11
ATOM     11  C   UNL     1       1.778   7.773  19.212  0.00  0.00    +0.000 A 
ATOM     12  C   UNL     1       1.475   7.826  20.584  0.00  0.00    +0.000 A 
ATOM     13  C   UNL     1       0.690   8.843  21.132  0.00  0.00    +0.000 A 
ATOM     14  C   UNL     1       0.230   9.870  20.324  0.00  0.00    +0.000 A 
ATOM     15  C   UNL     1       0.598   9.902  18.981  0.00  0.00    +0.000 A 
ATOM     16  C   UNL     1       1.374   8.869  18.430  0.00  0.00    +0.000 A 
ENDBRANCH   3  11
BRANCH   7  17
ATOM     17  N   UNL     1       6.439   6.259  16.306  0.00  0.00    +0.000 N 
ATOM     18  C   UNL     1       7.474   6.684  17.084  0.00  0.00    +0.000 C 
ATOM     19  C   UNL     1       7.635   6.238  18.511  0.00  0.00    +0.000 C 
ATOM     20  O   UNL     1       8.243   7.530  16.612  0.00  0.00    +0.000 OA
ATOM     21  H   UNL     1       6.272   6.902  15.541  0.00  0.00    +0.000 HD
ENDBRANCH   7  17
BRANCH   1  22
ATOM     22  C   UNL     1       1.701   2.936  18.683  0.00  0.00    +0.000 C 
ATOM     23  O   UNL     1       0.569   2.677  18.311  0.00  0.00    +0.000 OA
BRANCH  22  24
ATOM     24  O   UNL     1       2.470   2.227  19.517  0.00  0.00    +0.000 OA
BRANCH  24  26
ATOM     25  C   UNL     1       1.516   2.647  21.646  0.00  0.00    +0.000 C 
ATOM     26  C   UNL     1       2.739   2.863  20.775  0.00  0.00    +0.000 C 
ENDBRANCH  24  26
ENDBRANCH  22  24
ENDBRANCH   1  22
TORSDOF 5
ENDMDL
MODEL 4
REMARK VINA RESULT:      -7.3      0.797      1.733
REMARK  Name = 
REMARK  7 active torsions:
REMARK  status: ('A' for Active; 'I' for Inactive)
REMARK    1  A    between atoms: C_1  and  C_2
REMARK    2  A    between atoms: C_2  and  O_3
REMARK    3  A    between atoms: O_3  and  C_4
REMARK    4  A    between atoms: C_4  and  C_6
REMARK    5  A    between atoms: N_8  and  C_9
REMARK    6  A    between atoms: C_18  and  N_19
REMARK    7  A    between atoms: C_20  and  C_21
REMARK                            x       y       z     vdW  Elec       q    Type
REMARK                         _______ _______ _______ _____ _____    ______ ____
ROOT
ATOM      1  C   UNL     1       4.380   6.391  17.788  0.00  0.00    +0.000 A 
ATOM      2  N   UNL     1       3.551   7.381  18.000  0.00  0.00    +0.000 NA
ATOM      3  N   UNL     1       2.598   7.313  19.050  0.00  0.00    +0.000 N 
ATOM      4  C   UNL     1       2.337   6.117  19.791  0.00  0.00    +0.000 A 
ATOM      5  O   UNL     1       1.333   5.883  20.452  0.00  0.00    +0.000 OA
ATOM      6  C   UNL     1       3.381   5.123  19.684  0.00  0.00    +0.000 A 
ATOM      7  C   UNL     1       3.488   3.930  20.362  0.00  0.00    +0.000 A 
ATOM      8  S   UNL     1       4.751   2.958  19.770  0.00  0.00    +0.000 S 
ATOM      9  C   UNL     1       5.239   4.169  18.668  0.00  0.00    +0.000 A 
ATOM     10  C   UNL     1       4.378   5.250  18.680  0.00  0.00    +0.000 A 
ENDROOT
BRANCH   3  11
ATOM     11  C   UNL     1       1.762   8.481  19.187  0.00  0.00    +0.000 A 
ATOM     12  C   UNL     1       1.417   9.265  18.073  0.00  0.00    +0.000 A 
ATOM     13  C   UNL     1       0.726  10.472  18.200  0.00  0.00    +0.000 A 
ATOM     14  C   UNL     1       0.311  10.901  19.450  0.00  0.00    +0.000 A 
ATOM     15  C   UNL     1       0.547  10.096  20.562  0.00  0.00    +0.000 A 
ATOM     16  C   UNL     1       1.257   8.891  20.433  0.00  0.00    +0.000 A 
ENDBRANCH   3  11
BRANCH   7  17
ATOM     17  N   UNL     1       2.751   3.296  21.332  0.00  0.00    +0.000 N 
ATOM     18  C   UNL     1       1.559   2.652  21.195  0.00  0.00    +0.000 C 
ATOM     19  C   UNL     1       0.877   2.507  19.863  0.00  0.00    +0.000 C 
ATOM     20  O   UNL     1       0.994   2.257  22.222  0.00  0.00    +0.000 OA
ATOM     21  H   UNL     1       2.885   3.616  22.284  0.00  0.00    +0.000 HD
ENDBRANCH   7  17
BRANCH   1  22
ATOM     22  C   UNL     1       5.332   6.444  16.581  0.00  0.00    +0.000 C 
ATOM     23  O   UNL     1       6.281   7.209  16.561  0.00  0.00    +0.000 OA
BRANCH  22  24
ATOM     24  O   UNL     1       4.869   5.689  15.578  0.00  0.00    +0.000 OA
BRANCH  24  26
ATOM     25  C   UNL     1       6.119   3.719  15.158  0.00  0.00    +0.000 C 
ATOM     26  C   UNL     1       5.881   5.150  14.715  0.00  0.00    +0.000 C 
ENDBRANCH  24  26
ENDBRANCH  22  24
ENDBRANCH   1  22
TORSDOF 5
ENDMDL
MODEL 5
REMARK VINA RESULT:      -7.1      1.736      5.050
REMARK  Name = 
REMARK  7 active torsions:
REMARK  status: ('A' for Active; 'I' for Inactive)
REMARK    1  A    between atoms: C_1  and  C_2
REMARK    2  A    between atoms: C_2  and  O_3
REMARK    3  A    between atoms: O_3  and  C_4
REMARK    4  A    between atoms: C_4  and  C_6
REMARK    5  A    between atoms: N_8  and  C_9
REMARK    6  A    between atoms: C_18  and  N_19
REMARK    7  A    between atoms: C_20  and  C_21
REMARK                            x       y       z     vdW  Elec       q    Type
REMARK                         _______ _______ _______ _____ _____    ______ ____
ROOT
ATOM      1  C   UNL     1       1.874   4.599  18.869  0.00  0.00    +0.000 A 
ATOM      2  N   UNL     1       1.496   5.815  19.173  0.00  0.00    +0.000 NA
ATOM      3  N   UNL     1       2.232   6.937  18.713  0.00  0.00    +0.000 N 
ATOM      4  C   UNL     1       3.514   6.826  18.086  0.00  0.00    +0.000 A 
ATOM      5  O   UNL     1       4.341   7.722  17.974  0.00  0.00    +0.000 OA
ATOM      6  C   UNL     1       3.808   5.502  17.585  0.00  0.00    +0.000 A 
ATOM      7  C   UNL     1       4.890   5.101  16.836  0.00  0.00    +0.000 A 
ATOM      8  S   UNL     1       4.963   3.411  16.655  0.00  0.00    +0.000 S 
ATOM      9  C   UNL     1       3.486   3.205  17.488  0.00  0.00    +0.000 A 
ATOM     10  C   UNL     1       3.009   4.400  17.990  0.00  0.00    +0.000 A 
ENDROOT
BRANCH   3  11
ATOM     11  C   UNL     1       1.693   8.217  19.103  0.00  0.00    +0.000 A 
ATOM     12  C   UNL     1       1.499   9.244  18.162  0.00  0.00    +0.000 A 
ATOM     13  C   UNL     1       1.110  10.531  18.538  0.00  0.00    +0.000 A 
ATOM     14  C   UNL     1       0.849  10.811  19.870  0.00  0.00    +0.000 A 
ATOM     15  C   UNL     1       0.931   9.789  20.813  0.00  0.00    +0.000 A 
ATOM     16  C   UNL     1       1.340   8.500  20.434  0.00  0.00    +0.000 A 
ENDBRANCH   3  11
BRANCH   7  17
ATOM     17  N   UNL     1       5.981   5.732  16.291  0.00  0.00    +0.000 N 
ATOM     18  C   UNL     1       7.138   6.098  16.909  0.00  0.00    +0.000 C 
ATOM     19  C   UNL     1       7.400   5.791  18.359  0.00  0.00    +0.000 C 
ATOM     20  O   UNL     1       7.948   6.777  16.267  0.00  0.00    +0.000 OA
ATOM     21  H   UNL     1       5.809   6.305  15.472  0.00  0.00    +0.000 HD
ENDBRANCH   7  17
BRANCH   1  22
ATOM     22  C   UNL     1       1.121   3.398  19.465  0.00  0.00    +0.000 C 
ATOM     23  O   UNL     1       0.671   2.519  18.749  0.00  0.00    +0.000 OA
BRANCH  22  24
ATOM     24  O   UNL     1       0.919   3.568  20.776  0.00  0.00    +0.000 OA
BRANCH  24  26
ATOM     25  C   UNL     1       2.967   2.557  21.412  0.00  0.00    +0.000 C 
ATOM     26  C   UNL     1       1.463   2.532  21.607  0.00  0.00    +0.000 C 
ENDBRANCH  24  26
ENDBRANCH  22  24
ENDBRANCH   1  22
TORSDOF 5
ENDMDL
MODEL 6
REMARK VINA RESULT:      -7.0      1.978      5.094
REMARK  Name = 
REMARK  7 active torsions:
REMARK  status: ('A' for Active; 'I' for Inactive)
REMARK    1  A    between atoms: C_1  and  C_2
REMARK    2  A    between atoms: C_2  and  O_3
REMARK    3  A    between atoms: O_3  and  C_4
REMARK    4  A    between atoms: C_4  and  C_6
REMARK    5  A    between atoms: N_8  and  C_9
REMARK    6  A    between atoms: C_18  and  N_19
REMARK    7  A    between atoms: C_20  and  C_21
REMARK                            x       y       z     vdW  Elec       q    Type
REMARK                         _______ _______ _______ _____ _____    ______ ____
ROOT
ATOM      1  C   UNL     1       1.967   4.474  18.763  0.00  0.00    +0.000 A 
ATOM      2  N   UNL     1       1.671   5.731  18.975  0.00  0.00    +0.000 NA
ATOM      3  N   UNL     1       2.490   6.765  18.450  0.00  0.00    +0.000 N 
ATOM      4  C   UNL     1       3.769   6.521  17.856  0.00  0.00    +0.000 A 
ATOM      5  O   UNL     1       4.658   7.348  17.697  0.00  0.00    +0.000 OA
ATOM      6  C   UNL     1       3.976   5.148  17.454  0.00  0.00    +0.000 A 
ATOM      7  C   UNL     1       5.037   4.621  16.754  0.00  0.00    +0.000 A 
ATOM      8  S   UNL     1       4.993   2.922  16.692  0.00  0.00    +0.000 S 
ATOM      9  C   UNL     1       3.494   2.877  17.511  0.00  0.00    +0.000 A 
ATOM     10  C   UNL     1       3.096   4.135  17.920  0.00  0.00    +0.000 A 
ENDROOT
BRANCH   3  11
ATOM     11  C   UNL     1       2.037   8.103  18.740  0.00  0.00    +0.000 A 
ATOM     12  C   UNL     1       1.540   8.446  20.009  0.00  0.00    +0.000 A 
ATOM     13  C   UNL     1       0.970   9.694  20.271  0.00  0.00    +0.000 A 
ATOM     14  C   UNL     1       0.933  10.657  19.277  0.00  0.00    +0.000 A 
ATOM     15  C   UNL     1       1.510  10.385  18.038  0.00  0.00    +0.000 A 
ATOM     16  C   UNL     1       2.067   9.123  17.773  0.00  0.00    +0.000 A 
ENDBRANCH   3  11
BRANCH   7  17
ATOM     17  N   UNL     1       6.176   5.135  16.186  0.00  0.00    +0.000 N 
ATOM     18  C   UNL     1       6.631   4.967  14.913  0.00  0.00    +0.000 C 
ATOM     19  C   UNL     1       5.865   4.177  13.889  0.00  0.00    +0.000 C 
ATOM     20  O   UNL     1       7.752   5.412  14.636  0.00  0.00    +0.000 OA
ATOM     21  H   UNL     1       6.936   5.358  16.818  0.00  0.00    +0.000 HD
ENDBRANCH   7  17
BRANCH   1  22
ATOM     22  C   UNL     1       1.123   3.373  19.427  0.00  0.00    +0.000 C 
ATOM     23  O   UNL     1       0.603   2.491  18.764  0.00  0.00    +0.000 OA
BRANCH  22  24
ATOM     24  O   UNL     1       0.941   3.634  20.726  0.00  0.00    +0.000 OA
BRANCH  24  26
ATOM     25  C   UNL     1       2.886   2.534  21.516  0.00  0.00    +0.000 C 
ATOM     26  C   UNL     1       1.374   2.595  21.616  0.00  0.00    +0.000 C 
ENDBRANCH  24  26
ENDBRANCH  22  24
ENDBRANCH   1  22
TORSDOF 5
ENDMDL
MODEL 7
REMARK VINA RESULT:      -6.6      2.577      6.564
REMARK  Name = 
REMARK  7 active torsions:
REMARK  status: ('A' for Active; 'I' for Inactive)
REMARK    1  A    between atoms: C_1  and  C_2
REMARK    2  A    between atoms: C_2  and  O_3
REMARK    3  A    between atoms: O_3  and  C_4
REMARK    4  A    between atoms: C_4  and  C_6
REMARK    5  A    between atoms: N_8  and  C_9
REMARK    6  A    between atoms: C_18  and  N_19
REMARK    7  A    between atoms: C_20  and  C_21
REMARK                            x       y       z     vdW  Elec       q    Type
REMARK                         _______ _______ _______ _____ _____    ______ ____
ROOT
ATOM      1  C   UNL     1       2.262   5.398  20.210  0.00  0.00    +0.000 A 
ATOM      2  N   UNL     1       3.170   5.236  19.282  0.00  0.00    +0.000 NA
ATOM      3  N   UNL     1       3.586   6.330  18.480  0.00  0.00    +0.000 N 
ATOM      4  C   UNL     1       2.918   7.596  18.479  0.00  0.00    +0.000 A 
ATOM      5  O   UNL     1       2.992   8.449  17.603  0.00  0.00    +0.000 OA
ATOM      6  C   UNL     1       2.073   7.813  19.632  0.00  0.00    +0.000 A 
ATOM      7  C   UNL     1       1.398   8.959  19.984  0.00  0.00    +0.000 A 
ATOM      8  S   UNL     1       0.339   8.712  21.291  0.00  0.00    +0.000 S 
ATOM      9  C   UNL     1       0.851   7.092  21.470  0.00  0.00    +0.000 A 
ATOM     10  C   UNL     1       1.733   6.720  20.474  0.00  0.00    +0.000 A 
ENDROOT
BRANCH   3  11
ATOM     11  C   UNL     1       4.608   6.018  17.511  0.00  0.00    +0.000 A 
ATOM     12  C   UNL     1       4.411   5.023  16.538  0.00  0.00    +0.000 A 
ATOM     13  C   UNL     1       5.433   4.609  15.681  0.00  0.00    +0.000 A 
ATOM     14  C   UNL     1       6.673   5.225  15.739  0.00  0.00    +0.000 A 
ATOM     15  C   UNL     1       6.870   6.285  16.621  0.00  0.00    +0.000 A 
ATOM     16  C   UNL     1       5.845   6.687  17.494  0.00  0.00    +0.000 A 
ENDBRANCH   3  11
BRANCH   7  17
ATOM     17  N   UNL     1       1.300  10.226  19.464  0.00  0.00    +0.000 N 
ATOM     18  C   UNL     1       0.375  10.706  18.588  0.00  0.00    +0.000 C 
ATOM     19  C   UNL     1      -0.761   9.859  18.081  0.00  0.00    +0.000 C 
ATOM     20  O   UNL     1       0.540  11.847  18.139  0.00  0.00    +0.000 OA
ATOM     21  H   UNL     1       2.158  10.764  19.419  0.00  0.00    +0.000 HD
ENDBRANCH   7  17
BRANCH   1  22
ATOM     22  C   UNL     1       1.753   4.177  20.995  0.00  0.00    +0.000 C 
ATOM     23  O   UNL     1       2.290   3.826  22.032  0.00  0.00    +0.000 OA
BRANCH  22  24
ATOM     24  O   UNL     1       0.808   3.529  20.304  0.00  0.00    +0.000 OA
BRANCH  24  26
ATOM     25  C   UNL     1       1.472   2.348  18.358  0.00  0.00    +0.000 C 
ATOM     26  C   UNL     1       1.188   2.224  19.843  0.00  0.00    +0.000 C 
ENDBRANCH  24  26
ENDBRANCH  22  24
ENDBRANCH   1  22
TORSDOF 5
ENDMDL
MODEL 8
REMARK VINA RESULT:      -6.6      1.519      5.070
REMARK  Name = 
REMARK  7 active torsions:
REMARK  status: ('A' for Active; 'I' for Inactive)
REMARK    1  A    between atoms: C_1  and  C_2
REMARK    2  A    between atoms: C_2  and  O_3
REMARK    3  A    between atoms: O_3  and  C_4
REMARK    4  A    between atoms: C_4  and  C_6
REMARK    5  A    between atoms: N_8  and  C_9
REMARK    6  A    between atoms: C_18  and  N_19
REMARK    7  A    between atoms: C_20  and  C_21
REMARK                            x       y       z     vdW  Elec       q    Type
REMARK                         _______ _______ _______ _____ _____    ______ ____
ROOT
ATOM      1  C   UNL     1       2.399   4.956  20.210  0.00  0.00    +0.000 A 
ATOM      2  N   UNL     1       1.823   6.130  20.168  0.00  0.00    +0.000 NA
ATOM      3  N   UNL     1       2.296   7.136  19.286  0.00  0.00    +0.000 N 
ATOM      4  C   UNL     1       3.523   7.021  18.558  0.00  0.00    +0.000 A 
ATOM      5  O   UNL     1       4.156   7.945  18.062  0.00  0.00    +0.000 OA
ATOM      6  C   UNL     1       4.022   5.668  18.461  0.00  0.00    +0.000 A 
ATOM      7  C   UNL     1       5.099   5.211  17.736  0.00  0.00    +0.000 A 
ATOM      8  S   UNL     1       5.475   3.590  18.083  0.00  0.00    +0.000 S 
ATOM      9  C   UNL     1       4.132   3.447  19.130  0.00  0.00    +0.000 A 
ATOM     10  C   UNL     1       3.479   4.653  19.293  0.00  0.00    +0.000 A 
ENDROOT
BRANCH   3  11
ATOM     11  C   UNL     1       1.557   8.374  19.325  0.00  0.00    +0.000 A 
ATOM     12  C   UNL     1       1.104   8.914  20.541  0.00  0.00    +0.000 A 
ATOM     13  C   UNL     1       0.272  10.035  20.591  0.00  0.00    +0.000 A 
ATOM     14  C   UNL     1      -0.086  10.681  19.419  0.00  0.00    +0.000 A 
ATOM     15  C   UNL     1       0.429  10.232  18.205  0.00  0.00    +0.000 A 
ATOM     16  C   UNL     1       1.252   9.095  18.157  0.00  0.00    +0.000 A 
ENDBRANCH   3  11
BRANCH   7  17
ATOM     17  N   UNL     1       6.005   5.786  16.879  0.00  0.00    +0.000 N 
ATOM     18  C   UNL     1       7.204   6.357  17.181  0.00  0.00    +0.000 C 
ATOM     19  C   UNL     1       7.742   6.389  18.586  0.00  0.00    +0.000 C 
ATOM     20  O   UNL     1       7.814   6.937  16.275  0.00  0.00    +0.000 OA
ATOM     21  H   UNL     1       5.635   6.155  16.011  0.00  0.00    +0.000 HD
ENDBRANCH   7  17
BRANCH   1  22
ATOM     22  C   UNL     1       1.934   3.919  21.247  0.00  0.00    +0.000 C 
ATOM     23  O   UNL     1       2.603   3.675  22.238  0.00  0.00    +0.000 OA
BRANCH  22  24
ATOM     24  O   UNL     1       0.847   3.270  20.815  0.00  0.00    +0.000 OA
BRANCH  24  26
ATOM     25  C   UNL     1       0.626   2.317  18.656  0.00  0.00    +0.000 C 
ATOM     26  C   UNL     1       1.118   2.074  20.070  0.00  0.00    +0.000 C 
ENDBRANCH  24  26
ENDBRANCH  22  24
ENDBRANCH   1  22
TORSDOF 5
ENDMDL
MODEL 9
REMARK VINA RESULT:      -6.5      3.873      5.963
REMARK  Name = 
REMARK  7 active torsions:
REMARK  status: ('A' for Active; 'I' for Inactive)
REMARK    1  A    between atoms: C_1  and  C_2
REMARK    2  A    between atoms: C_2  and  O_3
REMARK    3  A    between atoms: O_3  and  C_4
REMARK    4  A    between atoms: C_4  and  C_6
REMARK    5  A    between atoms: N_8  and  C_9
REMARK    6  A    between atoms: C_18  and  N_19
REMARK    7  A    between atoms: C_20  and  C_21
REMARK                            x       y       z     vdW  Elec       q    Type
REMARK                         _______ _______ _______ _____ _____    ______ ____
ROOT
ATOM      1  C   UNL     1       6.496   5.139  18.101  0.00  0.00    +0.000 A 
ATOM      2  N   UNL     1       5.488   4.749  18.838  0.00  0.00    +0.000 NA
ATOM      3  N   UNL     1       4.370   4.101  18.249  0.00  0.00    +0.000 N 
ATOM      4  C   UNL     1       4.172   4.021  16.834  0.00  0.00    +0.000 A 
ATOM      5  O   UNL     1       3.110   3.795  16.266  0.00  0.00    +0.000 OA
ATOM      6  C   UNL     1       5.368   4.266  16.060  0.00  0.00    +0.000 A 
ATOM      7  C   UNL     1       5.537   4.147  14.699  0.00  0.00    +0.000 A 
ATOM      8  S   UNL     1       7.037   4.752  14.175  0.00  0.00    +0.000 S 
ATOM      9  C   UNL     1       7.523   5.084  15.780  0.00  0.00    +0.000 A 
ATOM     10  C   UNL     1       6.509   4.838  16.684  0.00  0.00    +0.000 A 
ENDROOT
BRANCH   3  11
ATOM     11  C   UNL     1       3.340   3.704  19.177  0.00  0.00    +0.000 A 
ATOM     12  C   UNL     1       2.064   4.292  19.145  0.00  0.00    +0.000 A 
ATOM     13  C   UNL     1       1.098   4.024  20.118  0.00  0.00    +0.000 A 
ATOM     14  C   UNL     1       1.369   3.111  21.124  0.00  0.00    +0.000 A 
ATOM     15  C   UNL     1       2.586   2.434  21.125  0.00  0.00    +0.000 A 
ATOM     16  C   UNL     1       3.561   2.718  20.155  0.00  0.00    +0.000 A 
ENDBRANCH   3  11
BRANCH   7  17
ATOM     17  N   UNL     1       4.739   3.752  13.654  0.00  0.00    +0.000 N 
ATOM     18  C   UNL     1       5.120   3.337  12.414  0.00  0.00    +0.000 C 
ATOM     19  C   UNL     1       6.567   3.209  12.025  0.00  0.00    +0.000 C 
ATOM     20  O   UNL     1       4.236   3.149  11.569  0.00  0.00    +0.000 OA
ATOM     21  H   UNL     1       3.796   4.123  13.639  0.00  0.00    +0.000 HD
ENDBRANCH   7  17
BRANCH   1  22
ATOM     22  C   UNL     1       7.646   5.930  18.747  0.00  0.00    +0.000 C 
ATOM     23  O   UNL     1       8.195   5.529  19.761  0.00  0.00    +0.000 OA
BRANCH  22  24
ATOM     24  O   UNL     1       7.804   7.114  18.146  0.00  0.00    +0.000 OA
BRANCH  24  26
ATOM     25  C   UNL     1       8.433   9.400  18.176  0.00  0.00    +0.000 C 
ATOM     26  C   UNL     1       8.574   8.069  18.891  0.00  0.00    +0.000 C 
ENDBRANCH  24  26
ENDBRANCH  22  24
ENDBRANCH   1  22
TORSDOF 5
ENDMDL
