MODEL 1
REMARK VINA RESULT:      -7.6      0.000      0.000
REMARK  Name = 
REMARK  12 active torsions:
REMARK  status: ('A' for Active; 'I' for Inactive)
REMARK    1  A    between atoms: C_1  and  N_2
REMARK    2  A    between atoms: N_2  and  C_3
REMARK    3  A    between atoms: N_2  and  C_4
REMARK    4  A    between atoms: C_4  and  C_5
REMARK    5  A    between atoms: C_5  and  C_6
REMARK    6  A    between atoms: C_6  and  O_7
REMARK    7  A    between atoms: O_7  and  C_8
REMARK    8  A    between atoms: C_13  and  O_14
REMARK    9  A    between atoms: N_15  and  C_16
REMARK   10  A    between atoms: C_19  and  N_20
REMARK   11  A    between atoms: N_20  and  C_21
REMARK   12  A    between atoms: N_20  and  C_22
REMARK                            x       y       z     vdW  Elec       q    Type
REMARK                         _______ _______ _______ _____ _____    ______ ____
ROOT
ATOM      1  C   UNL     1       6.840   6.248  16.761  0.00  0.00    +0.000 A 
ATOM      2  C   UNL     1       6.985   4.961  16.235  0.00  0.00    +0.000 A 
ATOM      3  C   UNL     1       5.929   4.046  16.271  0.00  0.00    +0.000 A 
ATOM      4  C   UNL     1       4.707   4.433  16.837  0.00  0.00    +0.000 A 
ATOM      5  N   UNL     1       3.588   3.676  17.015  0.00  0.00    +0.000 NA
ATOM      6  C   UNL     1       2.752   4.476  17.617  0.00  0.00    +0.000 A 
ATOM      7  N   UNL     1       3.248   5.756  17.831  0.00  0.00    +0.000 N 
ATOM      8  C   UNL     1       4.549   5.734  17.332  0.00  0.00    +0.000 A 
ATOM      9  C   UNL     1       5.615   6.654  17.313  0.00  0.00    +0.000 A 
ENDROOT
BRANCH   7  10
ATOM     10  C   UNL     1       2.543   6.840  18.423  0.00  0.00    +0.000 A 
ATOM     11  C   UNL     1       2.236   7.970  17.665  0.00  0.00    +0.000 A 
ATOM     12  C   UNL     1       1.600   9.073  18.253  0.00  0.00    +0.000 A 
ATOM     13  C   UNL     1       1.272   9.115  19.616  0.00  0.00    +0.000 A 
ATOM     14  C   UNL     1       1.578   7.954  20.349  0.00  0.00    +0.000 A 
ATOM     15  C   UNL     1       2.191   6.827  19.771  0.00  0.00    +0.000 A 
BRANCH  13  16
ATOM     16  N   UNL     1       0.744  10.248  20.218  0.00  0.00    +0.000 N 
ATOM     17  C   UNL     1       0.914  10.510  21.644  0.00  0.00    +0.000 C 
ATOM     18  C   UNL     1      -0.277  11.065  19.568  0.00  0.00    +0.000 C 
ENDBRANCH  13  16
ENDBRANCH   7  10
BRANCH   6  19
ATOM     19  O   UNL     1       1.524   4.068  17.875  0.00  0.00    +0.000 OA
ATOM     20  H   UNL     1       1.630   3.101  17.829  0.00  0.00    +0.000 HD
ENDBRANCH   6  19
BRANCH   1  21
ATOM     21  O   UNL     1       7.836   7.195  16.804  0.00  0.00    +0.000 OA
BRANCH  21  22
ATOM     22  C   UNL     1       8.016   7.836  18.071  0.00  0.00    +0.000 C 
BRANCH  22  23
ATOM     23  C   UNL     1       8.268   9.324  17.863  0.00  0.00    +0.000 C 
BRANCH  23  24
ATOM     24  C   UNL     1       9.084   9.925  19.014  0.00  0.00    +0.000 C 
BRANCH  24  26
ATOM     25  C   UNL     1       9.109  12.170  18.064  0.00  0.00    +0.000 C 
ATOM     26  N   UNL     1       9.912  11.081  18.627  0.00  0.00    +0.000 NA
ATOM     27  C   UNL     1      10.676  11.572  19.776  0.00  0.00    +0.000 C 
ENDBRANCH  24  26
ENDBRANCH  23  24
ENDBRANCH  22  23
ENDBRANCH  21  22
ENDBRANCH   1  21
TORSDOF 8
ENDMDL
MODEL 2
REMARK VINA RESULT:      -7.6      0.469      1.201
REMARK  Name = 
REMARK  12 active torsions:
REMARK  status: ('A' for Active; 'I' for Inactive)
REMARK    1  A    between atoms: C_1  and  N_2
REMARK    2  A    between atoms: N_2  and  C_3
REMARK    3  A    between atoms: N_2  and  C_4
REMARK    4  A    between atoms: C_4  and  C_5
REMARK    5  A    between atoms: C_5  and  C_6
REMARK    6  A    between atoms: C_6  and  O_7
REMARK    7  A    between atoms: O_7  and  C_8
REMARK    8  A    between atoms: C_13  and  O_14
REMARK    9  A    between atoms: N_15  and  C_16
REMARK   10  A    between atoms: C_19  and  N_20
REMARK   11  A    between atoms: N_20  and  C_21
REMARK   12  A    between atoms: N_20  and  C_22
REMARK                            x       y       z     vdW  Elec       q    Type
REMARK                         _______ _______ _______ _____ _____    ______ ____
ROOT
ATOM      1  C   UNL     1       6.823   6.342  16.819  0.00  0.00    +0.000 A 
ATOM      2  C   UNL     1       6.904   5.069  16.251  0.00  0.00    +0.000 A 
ATOM      3  C   UNL     1       5.810   4.200  16.272  0.00  0.00    +0.000 A 
ATOM      4  C   UNL     1       4.613   4.622  16.867  0.00  0.00    +0.000 A 
ATOM      5  N   UNL     1       3.464   3.909  17.037  0.00  0.00    +0.000 NA
ATOM      6  C   UNL     1       2.672   4.725  17.675  0.00  0.00    +0.000 A 
ATOM      7  N   UNL     1       3.226   5.975  17.922  0.00  0.00    +0.000 N 
ATOM      8  C   UNL     1       4.519   5.911  17.405  0.00  0.00    +0.000 A 
ATOM      9  C   UNL     1       5.624   6.785  17.401  0.00  0.00    +0.000 A 
ENDROOT
BRANCH   7  10
ATOM     10  C   UNL     1       2.577   7.069  18.558  0.00  0.00    +0.000 A 
ATOM     11  C   UNL     1       2.272   7.005  19.918  0.00  0.00    +0.000 A 
ATOM     12  C   UNL     1       1.573   8.048  20.542  0.00  0.00    +0.000 A 
ATOM     13  C   UNL     1       1.122   9.177  19.843  0.00  0.00    +0.000 A 
ATOM     14  C   UNL     1       1.461   9.221  18.479  0.00  0.00    +0.000 A 
ATOM     15  C   UNL     1       2.185   8.197  17.840  0.00  0.00    +0.000 A 
BRANCH  13  16
ATOM     16  N   UNL     1       0.337  10.154  20.439  0.00  0.00    +0.000 N 
ATOM     17  C   UNL     1       0.189  11.483  19.851  0.00  0.00    +0.000 C 
ATOM     18  C   UNL     1      -0.111  10.049  21.824  0.00  0.00    +0.000 C 
ENDBRANCH  13  16
ENDBRANCH   7  10
BRANCH   6  19
ATOM     19  O   UNL     1       1.429   4.363  17.937  0.00  0.00    +0.000 OA
ATOM     20  H   UNL     1       1.526   3.978  18.826  0.00  0.00    +0.000 HD
ENDBRANCH   6  19
BRANCH   1  21
ATOM     21  O   UNL     1       7.860   7.243  16.879  0.00  0.00    +0.000 OA
BRANCH  21  22
ATOM     22  C   UNL     1       8.084   7.834  18.163  0.00  0.00    +0.000 C 
BRANCH  22  23
ATOM     23  C   UNL     1       8.315   9.332  18.005  0.00  0.00    +0.000 C 
BRANCH  23  24
ATOM     24  C   UNL     1       9.207   9.887  19.123  0.00  0.00    +0.000 C 
BRANCH  24  26
ATOM     25  C   UNL     1       8.816  11.941  17.870  0.00  0.00    +0.000 C 
ATOM     26  N   UNL     1       9.555  11.310  18.966  0.00  0.00    +0.000 NA
ATOM     27  C   UNL     1       9.309  12.037  20.213  0.00  0.00    +0.000 C 
ENDBRANCH  24  26
ENDBRANCH  23  24
ENDBRANCH  22  23
ENDBRANCH  21  22
ENDBRANCH   1  21
TORSDOF 8
ENDMDL
MODEL 3
REMARK VINA RESULT:      -7.2      0.721      1.262
REMARK  Name = 
REMARK  12 active torsions:
REMARK  status: ('A' for Active; 'I' for Inactive)
REMARK    1  A    between atoms: C_1  and  N_2
REMARK    2  A    between atoms: N_2  and  C_3
REMARK    3  A    between atoms: N_2  and  C_4
REMARK    4  A    between atoms: C_4  and  C_5
REMARK    5  A    between atoms: C_5  and  C_6
REMARK    6  A    between atoms: C_6  and  O_7
REMARK    7  A    between atoms: O_7  and  C_8
REMARK    8  A    between atoms: C_13  and  O_14
REMARK    9  A    between atoms: N_15  and  C_16
REMARK   10  A    between atoms: C_19  and  N_20
REMARK   11  A    between atoms: N_20  and  C_21
REMARK   12  A    between atoms: N_20  and  C_22
REMARK                            x       y       z     vdW  Elec       q    Type
REMARK                         _______ _______ _______ _____ _____    ______ ____
ROOT
ATOM      1  C   UNL     1       7.056   6.236  17.630  0.00  0.00    +0.000 A 
ATOM      2  C   UNL     1       7.175   4.989  17.012  0.00  0.00    +0.000 A 
ATOM      3  C   UNL     1       6.052   4.188  16.785  0.00  0.00    +0.000 A 
ATOM      4  C   UNL     1       4.790   4.653  17.177  0.00  0.00    +0.000 A 
ATOM      5  N   UNL     1       3.593   4.005  17.095  0.00  0.00    +0.000 NA
ATOM      6  C   UNL     1       2.741   4.835  17.627  0.00  0.00    +0.000 A 
ATOM      7  N   UNL     1       3.304   6.035  18.043  0.00  0.00    +0.000 N 
ATOM      8  C   UNL     1       4.664   5.918  17.764  0.00  0.00    +0.000 A 
ATOM      9  C   UNL     1       5.795   6.722  18.011  0.00  0.00    +0.000 A 
ENDROOT
BRANCH   7  10
ATOM     10  C   UNL     1       2.606   7.134  18.615  0.00  0.00    +0.000 A 
ATOM     11  C   UNL     1       2.222   7.097  19.956  0.00  0.00    +0.000 A 
ATOM     12  C   UNL     1       1.476   8.145  20.514  0.00  0.00    +0.000 A 
ATOM     13  C   UNL     1       1.054   9.252  19.764  0.00  0.00    +0.000 A 
ATOM     14  C   UNL     1       1.471   9.270  18.421  0.00  0.00    +0.000 A 
ATOM     15  C   UNL     1       2.243   8.241  17.849  0.00  0.00    +0.000 A 
BRANCH  13  16
ATOM     16  N   UNL     1       0.224  10.231  20.290  0.00  0.00    +0.000 N 
ATOM     17  C   UNL     1      -0.200  10.209  21.688  0.00  0.00    +0.000 C 
ATOM     18  C   UNL     1      -0.539  11.140  19.439  0.00  0.00    +0.000 C 
ENDBRANCH  13  16
ENDBRANCH   7  10
BRANCH   6  19
ATOM     19  O   UNL     1       1.455   4.537  17.639  0.00  0.00    +0.000 OA
ATOM     20  H   UNL     1       1.484   3.564  17.638  0.00  0.00    +0.000 HD
ENDBRANCH   6  19
BRANCH   1  21
ATOM     21  O   UNL     1       8.109   7.068  17.929  0.00  0.00    +0.000 OA
BRANCH  21  22
ATOM     22  C   UNL     1       7.846   8.467  17.779  0.00  0.00    +0.000 C 
BRANCH  22  23
ATOM     23  C   UNL     1       8.768   9.263  18.694  0.00  0.00    +0.000 C 
BRANCH  23  24
ATOM     24  C   UNL     1       8.840  10.738  18.277  0.00  0.00    +0.000 C 
BRANCH  24  26
ATOM     25  C   UNL     1       9.335  11.247  20.609  0.00  0.00    +0.000 C 
ATOM     26  N   UNL     1       9.598  11.591  19.210  0.00  0.00    +0.000 NA
ATOM     27  C   UNL     1      11.034  11.498  18.937  0.00  0.00    +0.000 C 
ENDBRANCH  24  26
ENDBRANCH  23  24
ENDBRANCH  22  23
ENDBRANCH  21  22
ENDBRANCH   1  21
TORSDOF 8
ENDMDL
MODEL 4
REMARK VINA RESULT:      -6.6      3.596      7.264
REMARK  Name = 
REMARK  12 active torsions:
REMARK  status: ('A' for Active; 'I' for Inactive)
REMARK    1  A    between atoms: C_1  and  N_2
REMARK    2  A    between atoms: N_2  and  C_3
REMARK    3  A    between atoms: N_2  and  C_4
REMARK    4  A    between atoms: C_4  and  C_5
REMARK    5  A    between atoms: C_5  and  C_6
REMARK    6  A    between atoms: C_6  and  O_7
REMARK    7  A    between atoms: O_7  and  C_8
REMARK    8  A    between atoms: C_13  and  O_14
REMARK    9  A    between atoms: N_15  and  C_16
REMARK   10  A    between atoms: C_19  and  N_20
REMARK   11  A    between atoms: N_20  and  C_21
REMARK   12  A    between atoms: N_20  and  C_22
REMARK                            x       y       z     vdW  Elec       q    Type
REMARK                         _______ _______ _______ _____ _____    ______ ____
ROOT
ATOM      1  C   UNL     1       2.450   8.003  18.553  0.00  0.00    +0.000 A 
ATOM      2  C   UNL     1       1.997   7.616  19.817  0.00  0.00    +0.000 A 
ATOM      3  C   UNL     1       2.376   6.390  20.373  0.00  0.00    +0.000 A 
ATOM      4  C   UNL     1       3.229   5.546  19.651  0.00  0.00    +0.000 A 
ATOM      5  N   UNL     1       3.662   4.299  19.992  0.00  0.00    +0.000 NA
ATOM      6  C   UNL     1       4.389   3.923  18.977  0.00  0.00    +0.000 A 
ATOM      7  N   UNL     1       4.491   4.875  17.970  0.00  0.00    +0.000 N 
ATOM      8  C   UNL     1       3.712   5.948  18.400  0.00  0.00    +0.000 A 
ATOM      9  C   UNL     1       3.320   7.174  17.827  0.00  0.00    +0.000 A 
ENDROOT
BRANCH   7  10
ATOM     10  C   UNL     1       5.251   4.752  16.775  0.00  0.00    +0.000 A 
ATOM     11  C   UNL     1       6.558   5.238  16.725  0.00  0.00    +0.000 A 
ATOM     12  C   UNL     1       7.295   5.183  15.533  0.00  0.00    +0.000 A 
ATOM     13  C   UNL     1       6.761   4.676  14.340  0.00  0.00    +0.000 A 
ATOM     14  C   UNL     1       5.449   4.177  14.426  0.00  0.00    +0.000 A 
ATOM     15  C   UNL     1       4.702   4.198  15.619  0.00  0.00    +0.000 A 
BRANCH  13  16
ATOM     16  N   UNL     1       7.452   4.724  13.138  0.00  0.00    +0.000 N 
ATOM     17  C   UNL     1       8.463   5.744  12.874  0.00  0.00    +0.000 C 
ATOM     18  C   UNL     1       7.002   3.995  11.955  0.00  0.00    +0.000 C 
ENDBRANCH  13  16
ENDBRANCH   7  10
BRANCH   6  19
ATOM     19  O   UNL     1       5.028   2.769  19.020  0.00  0.00    +0.000 OA
ATOM     20  H   UNL     1       5.288   2.660  18.088  0.00  0.00    +0.000 HD
ENDBRANCH   6  19
BRANCH   1  21
ATOM     21  O   UNL     1       2.095   9.168  17.915  0.00  0.00    +0.000 OA
BRANCH  21  22
ATOM     22  C   UNL     1       0.838   9.724  18.311  0.00  0.00    +0.000 C 
BRANCH  22  23
ATOM     23  C   UNL     1       1.062  11.074  18.981  0.00  0.00    +0.000 C 
BRANCH  23  24
ATOM     24  C   UNL     1       0.636  11.051  20.454  0.00  0.00    +0.000 C 
BRANCH  24  26
ATOM     25  C   UNL     1       1.429  13.351  20.302  0.00  0.00    +0.000 C 
ATOM     26  N   UNL     1       0.928  12.296  21.186  0.00  0.00    +0.000 NA
ATOM     27  C   UNL     1      -0.266  12.767  21.892  0.00  0.00    +0.000 C 
ENDBRANCH  24  26
ENDBRANCH  23  24
ENDBRANCH  22  23
ENDBRANCH  21  22
ENDBRANCH   1  21
TORSDOF 8
ENDMDL
MODEL 5
REMARK VINA RESULT:      -6.6      4.469      9.579
REMARK  Name = 
REMARK  12 active torsions:
REMARK  status: ('A' for Active; 'I' for Inactive)
REMARK    1  A    between atoms: C_1  and  N_2
REMARK    2  A    between atoms: N_2  and  C_3
REMARK    3  A    between atoms: N_2  and  C_4
REMARK    4  A    between atoms: C_4  and  C_5
REMARK    5  A    between atoms: C_5  and  C_6
REMARK    6  A    between atoms: C_6  and  O_7
REMARK    7  A    between atoms: O_7  and  C_8
REMARK    8  A    between atoms: C_13  and  O_14
REMARK    9  A    between atoms: N_15  and  C_16
REMARK   10  A    between atoms: C_19  and  N_20
REMARK   11  A    between atoms: N_20  and  C_21
REMARK   12  A    between atoms: N_20  and  C_22
REMARK                            x       y       z     vdW  Elec       q    Type
REMARK                         _______ _______ _______ _____ _____    ______ ____
ROOT
ATOM      1  C   UNL     1      -1.309  11.129  18.258  0.00  0.00    +0.000 A 
ATOM      2  C   UNL     1      -1.514  12.162  19.177  0.00  0.00    +0.000 A 
ATOM      3  C   UNL     1      -0.902  12.140  20.433  0.00  0.00    +0.000 A 
ATOM      4  C   UNL     1      -0.065  11.067  20.767  0.00  0.00    +0.000 A 
ATOM      5  N   UNL     1       0.572  10.836  21.950  0.00  0.00    +0.000 NA
ATOM      6  C   UNL     1       1.181   9.698  21.770  0.00  0.00    +0.000 A 
ATOM      7  N   UNL     1       1.008   9.157  20.502  0.00  0.00    +0.000 N 
ATOM      8  C   UNL     1       0.170  10.049  19.835  0.00  0.00    +0.000 A 
ATOM      9  C   UNL     1      -0.458  10.058  18.574  0.00  0.00    +0.000 A 
ENDROOT
BRANCH   7  10
ATOM     10  C   UNL     1       1.589   7.954  20.017  0.00  0.00    +0.000 A 
ATOM     11  C   UNL     1       1.451   6.770  20.743  0.00  0.00    +0.000 A 
ATOM     12  C   UNL     1       2.076   5.591  20.310  0.00  0.00    +0.000 A 
ATOM     13  C   UNL     1       2.884   5.543  19.166  0.00  0.00    +0.000 A 
ATOM     14  C   UNL     1       2.990   6.747  18.447  0.00  0.00    +0.000 A 
ATOM     15  C   UNL     1       2.348   7.934  18.849  0.00  0.00    +0.000 A 
BRANCH  13  16
ATOM     16  N   UNL     1       3.589   4.404  18.802  0.00  0.00    +0.000 N 
ATOM     17  C   UNL     1       3.003   3.071  18.915  0.00  0.00    +0.000 C 
ATOM     18  C   UNL     1       5.036   4.417  18.608  0.00  0.00    +0.000 C 
ENDBRANCH  13  16
ENDBRANCH   7  10
BRANCH   6  19
ATOM     19  O   UNL     1       1.963   9.215  22.718  0.00  0.00    +0.000 OA
ATOM     20  H   UNL     1       2.100   8.302  22.406  0.00  0.00    +0.000 HD
ENDBRANCH   6  19
BRANCH   1  21
ATOM     21  O   UNL     1      -1.902  11.050  17.020  0.00  0.00    +0.000 OA
BRANCH  21  22
ATOM     22  C   UNL     1      -2.915  10.048  16.890  0.00  0.00    +0.000 C 
BRANCH  22  23
ATOM     23  C   UNL     1      -4.147  10.456  17.687  0.00  0.00    +0.000 C 
BRANCH  23  24
ATOM     24  C   UNL     1      -4.866  11.649  17.044  0.00  0.00    +0.000 C 
BRANCH  24  26
ATOM     25  C   UNL     1      -6.695  13.257  17.158  0.00  0.00    +0.000 C 
ATOM     26  N   UNL     1      -5.940  12.224  17.872  0.00  0.00    +0.000 NA
ATOM     27  C   UNL     1      -6.850  11.173  18.332  0.00  0.00    +0.000 C 
ENDBRANCH  24  26
ENDBRANCH  23  24
ENDBRANCH  22  23
ENDBRANCH  21  22
ENDBRANCH   1  21
TORSDOF 8
ENDMDL
MODEL 6
REMARK VINA RESULT:      -6.5      3.664      5.162
REMARK  Name = 
REMARK  12 active torsions:
REMARK  status: ('A' for Active; 'I' for Inactive)
REMARK    1  A    between atoms: C_1  and  N_2
REMARK    2  A    between atoms: N_2  and  C_3
REMARK    3  A    between atoms: N_2  and  C_4
REMARK    4  A    between atoms: C_4  and  C_5
REMARK    5  A    between atoms: C_5  and  C_6
REMARK    6  A    between atoms: C_6  and  O_7
REMARK    7  A    between atoms: O_7  and  C_8
REMARK    8  A    between atoms: C_13  and  O_14
REMARK    9  A    between atoms: N_15  and  C_16
REMARK   10  A    between atoms: C_19  and  N_20
REMARK   11  A    between atoms: N_20  and  C_21
REMARK   12  A    between atoms: N_20  and  C_22
REMARK                            x       y       z     vdW  Elec       q    Type
REMARK                         _______ _______ _______ _____ _____    ______ ____
ROOT
ATOM      1  C   UNL     1       5.177   5.177  16.431  0.00  0.00    +0.000 A 
ATOM      2  C   UNL     1       5.128   3.796  16.641  0.00  0.00    +0.000 A 
ATOM      3  C   UNL     1       4.245   3.241  17.571  0.00  0.00    +0.000 A 
ATOM      4  C   UNL     1       3.392   4.086  18.294  0.00  0.00    +0.000 A 
ATOM      5  N   UNL     1       2.509   3.746  19.275  0.00  0.00    +0.000 NA
ATOM      6  C   UNL     1       1.999   4.885  19.655  0.00  0.00    +0.000 A 
ATOM      7  N   UNL     1       2.479   5.983  18.953  0.00  0.00    +0.000 N 
ATOM      8  C   UNL     1       3.415   5.466  18.059  0.00  0.00    +0.000 A 
ATOM      9  C   UNL     1       4.315   6.033  17.135  0.00  0.00    +0.000 A 
ENDROOT
BRANCH   7  10
ATOM     10  C   UNL     1       2.067   7.333  19.125  0.00  0.00    +0.000 A 
ATOM     11  C   UNL     1       1.753   7.809  20.398  0.00  0.00    +0.000 A 
ATOM     12  C   UNL     1       1.282   9.119  20.574  0.00  0.00    +0.000 A 
ATOM     13  C   UNL     1       1.074   9.995  19.499  0.00  0.00    +0.000 A 
ATOM     14  C   UNL     1       1.417   9.492  18.231  0.00  0.00    +0.000 A 
ATOM     15  C   UNL     1       1.917   8.191  18.037  0.00  0.00    +0.000 A 
BRANCH  13  16
ATOM     16  N   UNL     1       0.506  11.250  19.664  0.00  0.00    +0.000 N 
ATOM     17  C   UNL     1       0.467  11.910  20.966  0.00  0.00    +0.000 C 
ATOM     18  C   UNL     1      -0.371  11.842  18.657  0.00  0.00    +0.000 C 
ENDBRANCH  13  16
ENDBRANCH   7  10
BRANCH   6  19
ATOM     19  O   UNL     1       1.038   4.903  20.561  0.00  0.00    +0.000 OA
ATOM     20  H   UNL     1       1.500   5.301  21.320  0.00  0.00    +0.000 HD
ENDBRANCH   6  19
BRANCH   1  21
ATOM     21  O   UNL     1       6.041   5.810  15.569  0.00  0.00    +0.000 OA
BRANCH  21  22
ATOM     22  C   UNL     1       7.024   4.967  14.959  0.00  0.00    +0.000 C 
BRANCH  22  23
ATOM     23  C   UNL     1       6.687   4.769  13.486  0.00  0.00    +0.000 C 
BRANCH  23  24
ATOM     24  C   UNL     1       6.151   3.357  13.214  0.00  0.00    +0.000 C 
BRANCH  24  26
ATOM     25  C   UNL     1       6.169   1.762  11.371  0.00  0.00    +0.000 C 
ATOM     26  N   UNL     1       5.791   3.109  11.807  0.00  0.00    +0.000 NA
ATOM     27  C   UNL     1       4.355   3.312  11.603  0.00  0.00    +0.000 C 
ENDBRANCH  24  26
ENDBRANCH  23  24
ENDBRANCH  22  23
ENDBRANCH  21  22
ENDBRANCH   1  21
TORSDOF 8
ENDMDL
MODEL 7
REMARK VINA RESULT:      -6.5      4.433      9.657
REMARK  Name = 
REMARK  12 active torsions:
REMARK  status: ('A' for Active; 'I' for Inactive)
REMARK    1  A    between atoms: C_1  and  N_2
REMARK    2  A    between atoms: N_2  and  C_3
REMARK    3  A    between atoms: N_2  and  C_4
REMARK    4  A    between atoms: C_4  and  C_5
REMARK    5  A    between atoms: C_5  and  C_6
REMARK    6  A    between atoms: C_6  and  O_7
REMARK    7  A    between atoms: O_7  and  C_8
REMARK    8  A    between atoms: C_13  and  O_14
REMARK    9  A    between atoms: N_15  and  C_16
REMARK   10  A    between atoms: C_19  and  N_20
REMARK   11  A    between atoms: N_20  and  C_21
REMARK   12  A    between atoms: N_20  and  C_22
REMARK                            x       y       z     vdW  Elec       q    Type
REMARK                         _______ _______ _______ _____ _____    ______ ____
ROOT
ATOM      1  C   UNL     1      -1.531  11.157  18.384  0.00  0.00    +0.000 A 
ATOM      2  C   UNL     1      -1.792  12.122  19.360  0.00  0.00    +0.000 A 
ATOM      3  C   UNL     1      -1.157  12.078  20.604  0.00  0.00    +0.000 A 
ATOM      4  C   UNL     1      -0.239  11.053  20.868  0.00  0.00    +0.000 A 
ATOM      5  N   UNL     1       0.435  10.808  22.027  0.00  0.00    +0.000 NA
ATOM      6  C   UNL     1       1.121   9.728  21.777  0.00  0.00    +0.000 A 
ATOM      7  N   UNL     1       0.963   9.244  20.485  0.00  0.00    +0.000 N 
ATOM      8  C   UNL     1       0.051  10.106  19.879  0.00  0.00    +0.000 A 
ATOM      9  C   UNL     1      -0.599  10.135  18.629  0.00  0.00    +0.000 A 
ENDROOT
BRANCH   7  10
ATOM     10  C   UNL     1       1.621   8.113  19.928  0.00  0.00    +0.000 A 
ATOM     11  C   UNL     1       2.247   8.212  18.685  0.00  0.00    +0.000 A 
ATOM     12  C   UNL     1       2.842   7.088  18.094  0.00  0.00    +0.000 A 
ATOM     13  C   UNL     1       2.814   5.819  18.690  0.00  0.00    +0.000 A 
ATOM     14  C   UNL     1       2.192   5.755  19.950  0.00  0.00    +0.000 A 
ATOM     15  C   UNL     1       1.613   6.878  20.572  0.00  0.00    +0.000 A 
BRANCH  13  16
ATOM     16  N   UNL     1       3.306   4.689  18.054  0.00  0.00    +0.000 N 
ATOM     17  C   UNL     1       2.417   3.677  17.490  0.00  0.00    +0.000 C 
ATOM     18  C   UNL     1       4.697   4.266  18.193  0.00  0.00    +0.000 C 
ENDBRANCH  13  16
ENDBRANCH   7  10
BRANCH   6  19
ATOM     19  O   UNL     1       1.952   9.254  22.686  0.00  0.00    +0.000 OA
ATOM     20  H   UNL     1       2.728   9.034  22.140  0.00  0.00    +0.000 HD
ENDBRANCH   6  19
BRANCH   1  21
ATOM     21  O   UNL     1      -2.139  11.100  17.153  0.00  0.00    +0.000 OA
BRANCH  21  22
ATOM     22  C   UNL     1      -3.123  10.072  17.003  0.00  0.00    +0.000 C 
BRANCH  22  23
ATOM     23  C   UNL     1      -4.405  10.480  17.719  0.00  0.00    +0.000 C 
BRANCH  23  24
ATOM     24  C   UNL     1      -5.008  11.754  17.114  0.00  0.00    +0.000 C 
BRANCH  24  26
ATOM     25  C   UNL     1      -6.751  11.681  18.817  0.00  0.00    +0.000 C 
ATOM     26  N   UNL     1      -6.439  11.943  17.410  0.00  0.00    +0.000 NA
ATOM     27  C   UNL     1      -6.861  13.299  17.052  0.00  0.00    +0.000 C 
ENDBRANCH  24  26
ENDBRANCH  23  24
ENDBRANCH  22  23
ENDBRANCH  21  22
ENDBRANCH   1  21
TORSDOF 8
ENDMDL
MODEL 8
REMARK VINA RESULT:      -6.5      3.615      7.784
REMARK  Name = 
REMARK  12 active torsions:
REMARK  status: ('A' for Active; 'I' for Inactive)
REMARK    1  A    between atoms: C_1  and  N_2
REMARK    2  A    between atoms: N_2  and  C_3
REMARK    3  A    between atoms: N_2  and  C_4
REMARK    4  A    between atoms: C_4  and  C_5
REMARK    5  A    between atoms: C_5  and  C_6
REMARK    6  A    between atoms: C_6  and  O_7
REMARK    7  A    between atoms: O_7  and  C_8
REMARK    8  A    between atoms: C_13  and  O_14
REMARK    9  A    between atoms: N_15  and  C_16
REMARK   10  A    between atoms: C_19  and  N_20
REMARK   11  A    between atoms: N_20  and  C_21
REMARK   12  A    between atoms: N_20  and  C_22
REMARK                            x       y       z     vdW  Elec       q    Type
REMARK                         _______ _______ _______ _____ _____    ______ ____
ROOT
ATOM      1  C   UNL     1       2.183   7.996  18.381  0.00  0.00    +0.000 A 
ATOM      2  C   UNL     1       1.777   7.680  19.681  0.00  0.00    +0.000 A 
ATOM      3  C   UNL     1       2.266   6.544  20.332  0.00  0.00    +0.000 A 
ATOM      4  C   UNL     1       3.183   5.718  19.670  0.00  0.00    +0.000 A 
ATOM      5  N   UNL     1       3.727   4.548  20.108  0.00  0.00    +0.000 NA
ATOM      6  C   UNL     1       4.476   4.150  19.117  0.00  0.00    +0.000 A 
ATOM      7  N   UNL     1       4.486   5.018  18.032  0.00  0.00    +0.000 N 
ATOM      8  C   UNL     1       3.619   6.052  18.382  0.00  0.00    +0.000 A 
ATOM      9  C   UNL     1       3.117   7.186  17.714  0.00  0.00    +0.000 A 
ENDROOT
BRANCH   7  10
ATOM     10  C   UNL     1       5.243   4.859  16.840  0.00  0.00    +0.000 A 
ATOM     11  C   UNL     1       6.521   5.413  16.745  0.00  0.00    +0.000 A 
ATOM     12  C   UNL     1       7.252   5.321  15.552  0.00  0.00    +0.000 A 
ATOM     13  C   UNL     1       6.739   4.709  14.399  0.00  0.00    +0.000 A 
ATOM     14  C   UNL     1       5.458   4.145  14.531  0.00  0.00    +0.000 A 
ATOM     15  C   UNL     1       4.719   4.202  15.728  0.00  0.00    +0.000 A 
BRANCH  13  16
ATOM     16  N   UNL     1       7.420   4.716  13.190  0.00  0.00    +0.000 N 
ATOM     17  C   UNL     1       8.388   5.759  12.860  0.00  0.00    +0.000 C 
ATOM     18  C   UNL     1       6.989   3.906  12.054  0.00  0.00    +0.000 C 
ENDBRANCH  13  16
ENDBRANCH   7  10
BRANCH   6  19
ATOM     19  O   UNL     1       5.214   3.064  19.247  0.00  0.00    +0.000 OA
ATOM     20  H   UNL     1       4.627   2.497  19.778  0.00  0.00    +0.000 HD
ENDBRANCH   6  19
BRANCH   1  21
ATOM     21  O   UNL     1       1.723   9.067  17.653  0.00  0.00    +0.000 OA
BRANCH  21  22
ATOM     22  C   UNL     1       1.806  10.335  18.310  0.00  0.00    +0.000 C 
BRANCH  22  23
ATOM     23  C   UNL     1       0.416  10.779  18.748  0.00  0.00    +0.000 C 
BRANCH  23  24
ATOM     24  C   UNL     1      -0.683  10.031  17.982  0.00  0.00    +0.000 C 
BRANCH  24  26
ATOM     25  C   UNL     1      -3.071   9.966  17.501  0.00  0.00    +0.000 C 
ATOM     26  N   UNL     1      -1.909  10.818  17.766  0.00  0.00    +0.000 NA
ATOM     27  C   UNL     1      -2.177  11.676  18.922  0.00  0.00    +0.000 C 
ENDBRANCH  24  26
ENDBRANCH  23  24
ENDBRANCH  22  23
ENDBRANCH  21  22
ENDBRANCH   1  21
TORSDOF 8
ENDMDL
MODEL 9
REMARK VINA RESULT:      -6.5      4.282      9.724
REMARK  Name = 
REMARK  12 active torsions:
REMARK  status: ('A' for Active; 'I' for Inactive)
REMARK    1  A    between atoms: C_1  and  N_2
REMARK    2  A    between atoms: N_2  and  C_3
REMARK    3  A    between atoms: N_2  and  C_4
REMARK    4  A    between atoms: C_4  and  C_5
REMARK    5  A    between atoms: C_5  and  C_6
REMARK    6  A    between atoms: C_6  and  O_7
REMARK    7  A    between atoms: O_7  and  C_8
REMARK    8  A    between atoms: C_13  and  O_14
REMARK    9  A    between atoms: N_15  and  C_16
REMARK   10  A    between atoms: C_19  and  N_20
REMARK   11  A    between atoms: N_20  and  C_21
REMARK   12  A    between atoms: N_20  and  C_22
REMARK                            x       y       z     vdW  Elec       q    Type
REMARK                         _______ _______ _______ _____ _____    ______ ____
ROOT
ATOM      1  C   UNL     1      -1.543  11.306  18.333  0.00  0.00    +0.000 A 
ATOM      2  C   UNL     1      -1.843  12.212  19.354  0.00  0.00    +0.000 A 
ATOM      3  C   UNL     1      -1.230  12.113  20.606  0.00  0.00    +0.000 A 
ATOM      4  C   UNL     1      -0.296  11.094  20.833  0.00  0.00    +0.000 A 
ATOM      5  N   UNL     1       0.360  10.800  21.991  0.00  0.00    +0.000 NA
ATOM      6  C   UNL     1       1.073   9.748  21.696  0.00  0.00    +0.000 A 
ATOM      7  N   UNL     1       0.950   9.332  20.377  0.00  0.00    +0.000 N 
ATOM      8  C   UNL     1       0.032  10.207  19.800  0.00  0.00    +0.000 A 
ATOM      9  C   UNL     1      -0.595  10.291  18.541  0.00  0.00    +0.000 A 
ENDROOT
BRANCH   7  10
ATOM     10  C   UNL     1       1.642   8.246  19.773  0.00  0.00    +0.000 A 
ATOM     11  C   UNL     1       2.216   8.400  18.511  0.00  0.00    +0.000 A 
ATOM     12  C   UNL     1       2.844   7.318  17.875  0.00  0.00    +0.000 A 
ATOM     13  C   UNL     1       2.900   6.039  18.446  0.00  0.00    +0.000 A 
ATOM     14  C   UNL     1       2.329   5.920  19.726  0.00  0.00    +0.000 A 
ATOM     15  C   UNL     1       1.719   7.000  20.392  0.00  0.00    +0.000 A 
BRANCH  13  16
ATOM     16  N   UNL     1       3.423   4.947  17.769  0.00  0.00    +0.000 N 
ATOM     17  C   UNL     1       4.678   5.033  17.027  0.00  0.00    +0.000 C 
ATOM     18  C   UNL     1       2.622   3.763  17.471  0.00  0.00    +0.000 C 
ENDBRANCH  13  16
ENDBRANCH   7  10
BRANCH   6  19
ATOM     19  O   UNL     1       1.897   9.242  22.595  0.00  0.00    +0.000 OA
ATOM     20  H   UNL     1       1.297   8.667  23.103  0.00  0.00    +0.000 HD
ENDBRANCH   6  19
BRANCH   1  21
ATOM     21  O   UNL     1      -2.126  11.304  17.088  0.00  0.00    +0.000 OA
BRANCH  21  22
ATOM     22  C   UNL     1      -3.319  10.521  16.972  0.00  0.00    +0.000 C 
BRANCH  22  23
ATOM     23  C   UNL     1      -4.539  11.428  17.067  0.00  0.00    +0.000 C 
BRANCH  23  24
ATOM     24  C   UNL     1      -5.492  10.977  18.182  0.00  0.00    +0.000 C 
BRANCH  24  26
ATOM     25  C   UNL     1      -7.169  12.652  17.610  0.00  0.00    +0.000 C 
ATOM     26  N   UNL     1      -6.380  12.041  18.683  0.00  0.00    +0.000 NA
ATOM     27  C   UNL     1      -7.274  11.516  19.718  0.00  0.00    +0.000 C 
ENDBRANCH  24  26
ENDBRANCH  23  24
ENDBRANCH  22  23
ENDBRANCH  21  22
ENDBRANCH   1  21
TORSDOF 8
ENDMDL
