MODEL 1
REMARK VINA RESULT:      -8.4      0.000      0.000
REMARK  Name = 
REMARK  10 active torsions:
REMARK  status: ('A' for Active; 'I' for Inactive)
REMARK    1  A    between atoms: C_1  and  C_2
REMARK    2  A    between atoms: C_4  and  C_5
REMARK    3  A    between atoms: C_6  and  N_7
REMARK    4  A    between atoms: C_8  and  C_10
REMARK    5  A    between atoms: C_10  and  O_11
REMARK    6  A    between atoms: O_11  and  C_12
REMARK    7  A    between atoms: C_12  and  C_14
REMARK    8  A    between atoms: C_16  and  N_17
REMARK    9  A    between atoms: C_22  and  N_23
REMARK   10  A    between atoms: C_29  and  C_30
REMARK                            x       y       z     vdW  Elec       q    Type
REMARK                         _______ _______ _______ _____ _____    ______ ____
ROOT
ATOM      1  C   UNL     1       2.727   6.731  18.962  0.00  0.00    +0.000 C 
ATOM      2  O   UNL     1       2.487   6.906  20.145  0.00  0.00    +0.000 OA
ENDROOT
BRANCH   1   3
ATOM      3  C   UNL     1       3.799   5.861  18.399  0.00  0.00    +0.000 A 
ATOM      4  C   UNL     1       4.845   6.540  17.722  0.00  0.00    +0.000 A 
ATOM      5  C   UNL     1       5.946   5.831  17.233  0.00  0.00    +0.000 A 
ATOM      6  C   UNL     1       6.018   4.455  17.393  0.00  0.00    +0.000 A 
ATOM      7  C   UNL     1       4.978   3.793  18.055  0.00  0.00    +0.000 A 
ATOM      8  C   UNL     1       3.854   4.455  18.596  0.00  0.00    +0.000 A 
BRANCH   8   9
ATOM      9  N   UNL     1       2.922   3.705  19.299  0.00  0.00    +0.000 N 
ATOM     10  C   UNL     1       1.519   3.511  18.894  0.00  0.00    +0.000 C 
ATOM     11  C   UNL     1       0.594   3.661  20.115  0.00  0.00    +0.000 C 
ATOM     12  O   UNL     1       0.976   2.770  21.179  0.00  0.00    +0.000 OA
ATOM     13  C   UNL     1       2.333   3.027  21.575  0.00  0.00    +0.000 C 
ATOM     14  C   UNL     1       3.303   2.804  20.405  0.00  0.00    +0.000 C 
ENDBRANCH   8   9
BRANCH   5  15
ATOM     15  N   UNL     1       7.044   6.541  16.557  0.00  0.00    +0.000 N 
ATOM     16  O   UNL     1       7.387   7.636  17.017  0.00  0.00    +0.000 OA
ATOM     17  O   UNL     1       7.563   5.993  15.574  0.00  0.00    +0.000 OA
ENDBRANCH   5  15
ENDBRANCH   1   3
BRANCH   1  18
ATOM     18  O   UNL     1       2.020   7.274  17.937  0.00  0.00    +0.000 OA
BRANCH  18  19
ATOM     19  C   UNL     1       2.234   8.672  17.707  0.00  0.00    +0.000 C 
BRANCH  19  21
ATOM     20  N   UNL     1       1.604   9.959  19.694  0.00  0.00    +0.000 N 
ATOM     21  C   UNL     1       1.191   9.511  18.446  0.00  0.00    +0.000 C 
ATOM     22  O   UNL     1       0.101   9.750  17.930  0.00  0.00    +0.000 OA
ATOM     23  H   UNL     1       2.605  10.075  19.802  0.00  0.00    +0.000 HD
BRANCH  20  29
ATOM     24  C   UNL     1      -1.679  13.023  23.289  0.00  0.00    +0.000 C 
ATOM     25  C   UNL     1      -0.837  12.214  22.347  0.00  0.00    +0.000 A 
ATOM     26  C   UNL     1      -0.882  10.821  22.356  0.00  0.00    +0.000 A 
ATOM     27  C   UNL     1      -0.099  10.053  21.472  0.00  0.00    +0.000 A 
ATOM     28  C   UNL     1      -0.163   8.556  21.629  0.00  0.00    +0.000 C 
ATOM     29  C   UNL     1       0.767  10.706  20.563  0.00  0.00    +0.000 A 
ATOM     30  C   UNL     1       0.868  12.116  20.592  0.00  0.00    +0.000 A 
ATOM     31  C   UNL     1       1.745  12.924  19.673  0.00  0.00    +0.000 C 
ATOM     32  C   UNL     1       0.028  12.849  21.455  0.00  0.00    +0.000 A 
ENDBRANCH  20  29
ENDBRANCH  19  21
ENDBRANCH  18  19
ENDBRANCH   1  18
TORSDOF 7
ENDMDL
MODEL 2
REMARK VINA RESULT:      -8.3      0.926      1.357
REMARK  Name = 
REMARK  10 active torsions:
REMARK  status: ('A' for Active; 'I' for Inactive)
REMARK    1  A    between atoms: C_1  and  C_2
REMARK    2  A    between atoms: C_4  and  C_5
REMARK    3  A    between atoms: C_6  and  N_7
REMARK    4  A    between atoms: C_8  and  C_10
REMARK    5  A    between atoms: C_10  and  O_11
REMARK    6  A    between atoms: O_11  and  C_12
REMARK    7  A    between atoms: C_12  and  C_14
REMARK    8  A    between atoms: C_16  and  N_17
REMARK    9  A    between atoms: C_22  and  N_23
REMARK   10  A    between atoms: C_29  and  C_30
REMARK                            x       y       z     vdW  Elec       q    Type
REMARK                         _______ _______ _______ _____ _____    ______ ____
ROOT
ATOM      1  C   UNL     1       2.606   7.398  18.816  0.00  0.00    +0.000 C 
ATOM      2  O   UNL     1       2.212   7.596  19.953  0.00  0.00    +0.000 OA
ENDROOT
BRANCH   1   3
ATOM      3  C   UNL     1       3.615   6.383  18.396  0.00  0.00    +0.000 A 
ATOM      4  C   UNL     1       4.729   6.890  17.679  0.00  0.00    +0.000 A 
ATOM      5  C   UNL     1       5.779   6.042  17.315  0.00  0.00    +0.000 A 
ATOM      6  C   UNL     1       5.732   4.694  17.638  0.00  0.00    +0.000 A 
ATOM      7  C   UNL     1       4.625   4.201  18.339  0.00  0.00    +0.000 A 
ATOM      8  C   UNL     1       3.548   5.011  18.760  0.00  0.00    +0.000 A 
BRANCH   8   9
ATOM      9  N   UNL     1       2.540   4.429  19.514  0.00  0.00    +0.000 N 
ATOM     10  C   UNL     1       2.449   4.483  20.984  0.00  0.00    +0.000 C 
ATOM     11  C   UNL     1       2.069   3.098  21.538  0.00  0.00    +0.000 C 
ATOM     12  O   UNL     1       0.856   2.604  20.940  0.00  0.00    +0.000 OA
ATOM     13  C   UNL     1       1.007   2.521  19.514  0.00  0.00    +0.000 C 
ATOM     14  C   UNL     1       1.302   3.901  18.907  0.00  0.00    +0.000 C 
ENDBRANCH   8   9
BRANCH   5  15
ATOM     15  N   UNL     1       6.949   6.575  16.598  0.00  0.00    +0.000 N 
ATOM     16  O   UNL     1       7.396   5.909  15.657  0.00  0.00    +0.000 OA
ATOM     17  O   UNL     1       7.407   7.662  16.975  0.00  0.00    +0.000 OA
ENDBRANCH   5  15
ENDBRANCH   1   3
BRANCH   1  18
ATOM     18  O   UNL     1       2.154   8.049  17.712  0.00  0.00    +0.000 OA
BRANCH  18  19
ATOM     19  C   UNL     1       2.075   9.476  17.822  0.00  0.00    +0.000 C 
BRANCH  19  21
ATOM     20  N   UNL     1       1.102  10.599  19.770  0.00  0.00    +0.000 N 
ATOM     21  C   UNL     1       0.830   9.892  18.606  0.00  0.00    +0.000 C 
ATOM     22  O   UNL     1      -0.293   9.613  18.190  0.00  0.00    +0.000 OA
ATOM     23  H   UNL     1       1.971  11.121  19.766  0.00  0.00    +0.000 HD
BRANCH  20  29
ATOM     24  C   UNL     1      -2.923  12.455  23.436  0.00  0.00    +0.000 C 
ATOM     25  C   UNL     1      -1.879  11.955  22.482  0.00  0.00    +0.000 A 
ATOM     26  C   UNL     1      -1.084  10.854  22.798  0.00  0.00    +0.000 A 
ATOM     27  C   UNL     1      -0.104  10.374  21.907  0.00  0.00    +0.000 A 
ATOM     28  C   UNL     1       0.756   9.235  22.388  0.00  0.00    +0.000 C 
ATOM     29  C   UNL     1       0.090  11.029  20.668  0.00  0.00    +0.000 A 
ATOM     30  C   UNL     1      -0.666  12.185  20.367  0.00  0.00    +0.000 A 
ATOM     31  C   UNL     1      -0.556  12.963  19.083  0.00  0.00    +0.000 C 
ATOM     32  C   UNL     1      -1.673  12.601  21.263  0.00  0.00    +0.000 A 
ENDBRANCH  20  29
ENDBRANCH  19  21
ENDBRANCH  18  19
ENDBRANCH   1  18
TORSDOF 7
ENDMDL
MODEL 3
REMARK VINA RESULT:      -8.3      1.170      1.921
REMARK  Name = 
REMARK  10 active torsions:
REMARK  status: ('A' for Active; 'I' for Inactive)
REMARK    1  A    between atoms: C_1  and  C_2
REMARK    2  A    between atoms: C_4  and  C_5
REMARK    3  A    between atoms: C_6  and  N_7
REMARK    4  A    between atoms: C_8  and  C_10
REMARK    5  A    between atoms: C_10  and  O_11
REMARK    6  A    between atoms: O_11  and  C_12
REMARK    7  A    between atoms: C_12  and  C_14
REMARK    8  A    between atoms: C_16  and  N_17
REMARK    9  A    between atoms: C_22  and  N_23
REMARK   10  A    between atoms: C_29  and  C_30
REMARK                            x       y       z     vdW  Elec       q    Type
REMARK                         _______ _______ _______ _____ _____    ______ ____
ROOT
ATOM      1  C   UNL     1       2.796   7.285  18.840  0.00  0.00    +0.000 C 
ATOM      2  O   UNL     1       2.050   7.212  19.801  0.00  0.00    +0.000 OA
ENDROOT
BRANCH   1   3
ATOM      3  C   UNL     1       3.764   6.243  18.393  0.00  0.00    +0.000 A 
ATOM      4  C   UNL     1       4.874   6.718  17.648  0.00  0.00    +0.000 A 
ATOM      5  C   UNL     1       5.889   5.840  17.256  0.00  0.00    +0.000 A 
ATOM      6  C   UNL     1       5.811   4.494  17.580  0.00  0.00    +0.000 A 
ATOM      7  C   UNL     1       4.709   4.033  18.309  0.00  0.00    +0.000 A 
ATOM      8  C   UNL     1       3.667   4.873  18.758  0.00  0.00    +0.000 A 
BRANCH   8   9
ATOM      9  N   UNL     1       2.663   4.319  19.538  0.00  0.00    +0.000 N 
ATOM     10  C   UNL     1       2.622   4.357  21.011  0.00  0.00    +0.000 C 
ATOM     11  C   UNL     1       2.208   2.980  21.561  0.00  0.00    +0.000 C 
ATOM     12  O   UNL     1       0.959   2.540  20.998  0.00  0.00    +0.000 OA
ATOM     13  C   UNL     1       1.060   2.471  19.567  0.00  0.00    +0.000 C 
ATOM     14  C   UNL     1       1.386   3.846  18.967  0.00  0.00    +0.000 C 
ENDBRANCH   8   9
BRANCH   5  15
ATOM     15  N   UNL     1       7.054   6.340  16.508  0.00  0.00    +0.000 N 
ATOM     16  O   UNL     1       7.413   5.700  15.513  0.00  0.00    +0.000 OA
ATOM     17  O   UNL     1       7.597   7.376  16.917  0.00  0.00    +0.000 OA
ENDBRANCH   5  15
ENDBRANCH   1   3
BRANCH   1  18
ATOM     18  O   UNL     1       2.844   8.329  17.971  0.00  0.00    +0.000 OA
BRANCH  18  19
ATOM     19  C   UNL     1       1.580   8.903  17.619  0.00  0.00    +0.000 C 
BRANCH  19  21
ATOM     20  N   UNL     1       0.084   9.662  19.406  0.00  0.00    +0.000 N 
ATOM     21  C   UNL     1       1.180   9.991  18.617  0.00  0.00    +0.000 C 
ATOM     22  O   UNL     1       1.816  11.041  18.686  0.00  0.00    +0.000 OA
ATOM     23  H   UNL     1      -0.055   8.670  19.561  0.00  0.00    +0.000 HD
BRANCH  20  29
ATOM     24  C   UNL     1      -2.278  13.171  23.303  0.00  0.00    +0.000 C 
ATOM     25  C   UNL     1      -1.658  12.270  22.276  0.00  0.00    +0.000 A 
ATOM     26  C   UNL     1      -1.964  12.402  20.923  0.00  0.00    +0.000 A 
ATOM     27  C   UNL     1      -1.384  11.564  19.951  0.00  0.00    +0.000 A 
ATOM     28  C   UNL     1      -1.854  11.739  18.531  0.00  0.00    +0.000 C 
ATOM     29  C   UNL     1      -0.479  10.553  20.355  0.00  0.00    +0.000 A 
ATOM     30  C   UNL     1      -0.213  10.370  21.731  0.00  0.00    +0.000 A 
ATOM     31  C   UNL     1       0.733   9.337  22.284  0.00  0.00    +0.000 C 
ATOM     32  C   UNL     1      -0.774  11.264  22.666  0.00  0.00    +0.000 A 
ENDBRANCH  20  29
ENDBRANCH  19  21
ENDBRANCH  18  19
ENDBRANCH   1  18
TORSDOF 7
ENDMDL
MODEL 4
REMARK VINA RESULT:      -8.3      0.080      1.669
REMARK  Name = 
REMARK  10 active torsions:
REMARK  status: ('A' for Active; 'I' for Inactive)
REMARK    1  A    between atoms: C_1  and  C_2
REMARK    2  A    between atoms: C_4  and  C_5
REMARK    3  A    between atoms: C_6  and  N_7
REMARK    4  A    between atoms: C_8  and  C_10
REMARK    5  A    between atoms: C_10  and  O_11
REMARK    6  A    between atoms: O_11  and  C_12
REMARK    7  A    between atoms: C_12  and  C_14
REMARK    8  A    between atoms: C_16  and  N_17
REMARK    9  A    between atoms: C_22  and  N_23
REMARK   10  A    between atoms: C_29  and  C_30
REMARK                            x       y       z     vdW  Elec       q    Type
REMARK                         _______ _______ _______ _____ _____    ______ ____
ROOT
ATOM      1  C   UNL     1       2.738   6.713  18.946  0.00  0.00    +0.000 C 
ATOM      2  O   UNL     1       2.502   6.878  20.131  0.00  0.00    +0.000 OA
ENDROOT
BRANCH   1   3
ATOM      3  C   UNL     1       3.796   5.833  18.371  0.00  0.00    +0.000 A 
ATOM      4  C   UNL     1       4.837   6.502  17.678  0.00  0.00    +0.000 A 
ATOM      5  C   UNL     1       5.926   5.783  17.177  0.00  0.00    +0.000 A 
ATOM      6  C   UNL     1       5.990   4.408  17.340  0.00  0.00    +0.000 A 
ATOM      7  C   UNL     1       4.955   3.755  18.019  0.00  0.00    +0.000 A 
ATOM      8  C   UNL     1       3.843   4.427  18.573  0.00  0.00    +0.000 A 
BRANCH   8   9
ATOM      9  N   UNL     1       2.916   3.687  19.291  0.00  0.00    +0.000 N 
ATOM     10  C   UNL     1       1.510   3.486  18.895  0.00  0.00    +0.000 C 
ATOM     11  C   UNL     1       0.592   3.652  20.119  0.00  0.00    +0.000 C 
ATOM     12  O   UNL     1       0.979   2.777  21.194  0.00  0.00    +0.000 OA
ATOM     13  C   UNL     1       2.338   3.041  21.579  0.00  0.00    +0.000 C 
ATOM     14  C   UNL     1       3.302   2.802  20.408  0.00  0.00    +0.000 C 
ENDBRANCH   8   9
BRANCH   5  15
ATOM     15  N   UNL     1       7.020   6.483  16.483  0.00  0.00    +0.000 N 
ATOM     16  O   UNL     1       7.505   5.940  15.484  0.00  0.00    +0.000 OA
ATOM     17  O   UNL     1       7.382   7.577  16.939  0.00  0.00    +0.000 OA
ENDBRANCH   5  15
ENDBRANCH   1   3
BRANCH   1  18
ATOM     18  O   UNL     1       2.038   7.279  17.928  0.00  0.00    +0.000 OA
BRANCH  18  19
ATOM     19  C   UNL     1       2.256   8.681  17.729  0.00  0.00    +0.000 C 
BRANCH  19  21
ATOM     20  N   UNL     1       1.653   9.934  19.747  0.00  0.00    +0.000 N 
ATOM     21  C   UNL     1       1.223   9.506  18.497  0.00  0.00    +0.000 C 
ATOM     22  O   UNL     1       0.126   9.754  17.999  0.00  0.00    +0.000 OA
ATOM     23  H   UNL     1       2.655  10.048  19.843  0.00  0.00    +0.000 HD
BRANCH  20  29
ATOM     24  C   UNL     1      -1.805  12.861  23.290  0.00  0.00    +0.000 C 
ATOM     25  C   UNL     1      -0.890  12.108  22.371  0.00  0.00    +0.000 A 
ATOM     26  C   UNL     1      -0.043  12.779  21.490  0.00  0.00    +0.000 A 
ATOM     27  C   UNL     1       0.824  12.080  20.626  0.00  0.00    +0.000 A 
ATOM     28  C   UNL     1       1.630  12.905  19.656  0.00  0.00    +0.000 C 
ATOM     29  C   UNL     1       0.827  10.665  20.639  0.00  0.00    +0.000 A 
ATOM     30  C   UNL     1      -0.075   9.977  21.482  0.00  0.00    +0.000 A 
ATOM     31  C   UNL     1      -0.162   8.478  21.590  0.00  0.00    +0.000 C 
ATOM     32  C   UNL     1      -0.888  10.713  22.368  0.00  0.00    +0.000 A 
ENDBRANCH  20  29
ENDBRANCH  19  21
ENDBRANCH  18  19
ENDBRANCH   1  18
TORSDOF 7
ENDMDL
MODEL 5
REMARK VINA RESULT:      -8.1      1.880      4.618
REMARK  Name = 
REMARK  10 active torsions:
REMARK  status: ('A' for Active; 'I' for Inactive)
REMARK    1  A    between atoms: C_1  and  C_2
REMARK    2  A    between atoms: C_4  and  C_5
REMARK    3  A    between atoms: C_6  and  N_7
REMARK    4  A    between atoms: C_8  and  C_10
REMARK    5  A    between atoms: C_10  and  O_11
REMARK    6  A    between atoms: O_11  and  C_12
REMARK    7  A    between atoms: C_12  and  C_14
REMARK    8  A    between atoms: C_16  and  N_17
REMARK    9  A    between atoms: C_22  and  N_23
REMARK   10  A    between atoms: C_29  and  C_30
REMARK                            x       y       z     vdW  Elec       q    Type
REMARK                         _______ _______ _______ _____ _____    ______ ____
ROOT
ATOM      1  C   UNL     1       3.424   6.714  17.981  0.00  0.00    +0.000 C 
ATOM      2  O   UNL     1       3.938   7.039  16.924  0.00  0.00    +0.000 OA
ENDROOT
BRANCH   1   3
ATOM      3  C   UNL     1       3.641   5.432  18.711  0.00  0.00    +0.000 A 
ATOM      4  C   UNL     1       2.531   4.956  19.455  0.00  0.00    +0.000 A 
ATOM      5  C   UNL     1       2.595   3.720  20.105  0.00  0.00    +0.000 A 
ATOM      6  C   UNL     1       3.750   2.955  20.039  0.00  0.00    +0.000 A 
ATOM      7  C   UNL     1       4.843   3.436  19.309  0.00  0.00    +0.000 A 
ATOM      8  C   UNL     1       4.831   4.661  18.608  0.00  0.00    +0.000 A 
BRANCH   8   9
ATOM      9  N   UNL     1       5.945   5.001  17.854  0.00  0.00    +0.000 N 
ATOM     10  C   UNL     1       7.029   5.890  18.307  0.00  0.00    +0.000 C 
ATOM     11  C   UNL     1       7.413   6.867  17.181  0.00  0.00    +0.000 C 
ATOM     12  O   UNL     1       7.759   6.168  15.971  0.00  0.00    +0.000 OA
ATOM     13  C   UNL     1       6.658   5.353  15.540  0.00  0.00    +0.000 C 
ATOM     14  C   UNL     1       6.296   4.303  16.601  0.00  0.00    +0.000 C 
ENDBRANCH   8   9
BRANCH   5  15
ATOM     15  N   UNL     1       1.432   3.214  20.852  0.00  0.00    +0.000 N 
ATOM     16  O   UNL     1       1.603   2.906  22.037  0.00  0.00    +0.000 OA
ATOM     17  O   UNL     1       0.352   3.138  20.250  0.00  0.00    +0.000 OA
ENDBRANCH   5  15
ENDBRANCH   1   3
BRANCH   1  18
ATOM     18  O   UNL     1       2.582   7.494  18.707  0.00  0.00    +0.000 OA
BRANCH  18  19
ATOM     19  C   UNL     1       2.256   8.763  18.128  0.00  0.00    +0.000 C 
BRANCH  19  21
ATOM     20  N   UNL     1       0.585  10.549  18.283  0.00  0.00    +0.000 N 
ATOM     21  C   UNL     1       1.158   9.461  18.931  0.00  0.00    +0.000 C 
ATOM     22  O   UNL     1       0.837   9.047  20.043  0.00  0.00    +0.000 OA
ATOM     23  H   UNL     1       0.611  10.512  17.271  0.00  0.00    +0.000 HD
BRANCH  20  29
ATOM     24  C   UNL     1      -3.435  13.793  20.813  0.00  0.00    +0.000 C 
ATOM     25  C   UNL     1      -2.394  12.949  20.138  0.00  0.00    +0.000 A 
ATOM     26  C   UNL     1      -2.753  11.940  19.246  0.00  0.00    +0.000 A 
ATOM     27  C   UNL     1      -1.783  11.146  18.603  0.00  0.00    +0.000 A 
ATOM     28  C   UNL     1      -2.288  10.029  17.728  0.00  0.00    +0.000 C 
ATOM     29  C   UNL     1      -0.412  11.365  18.877  0.00  0.00    +0.000 A 
ATOM     30  C   UNL     1      -0.042  12.341  19.830  0.00  0.00    +0.000 A 
ATOM     31  C   UNL     1       1.379  12.670  20.201  0.00  0.00    +0.000 C 
ATOM     32  C   UNL     1      -1.041  13.150  20.411  0.00  0.00    +0.000 A 
ENDBRANCH  20  29
ENDBRANCH  19  21
ENDBRANCH  18  19
ENDBRANCH   1  18
TORSDOF 7
ENDMDL
MODEL 6
REMARK VINA RESULT:      -8.1      1.720      2.216
REMARK  Name = 
REMARK  10 active torsions:
REMARK  status: ('A' for Active; 'I' for Inactive)
REMARK    1  A    between atoms: C_1  and  C_2
REMARK    2  A    between atoms: C_4  and  C_5
REMARK    3  A    between atoms: C_6  and  N_7
REMARK    4  A    between atoms: C_8  and  C_10
REMARK    5  A    between atoms: C_10  and  O_11
REMARK    6  A    between atoms: O_11  and  C_12
REMARK    7  A    between atoms: C_12  and  C_14
REMARK    8  A    between atoms: C_16  and  N_17
REMARK    9  A    between atoms: C_22  and  N_23
REMARK   10  A    between atoms: C_29  and  C_30
REMARK                            x       y       z     vdW  Elec       q    Type
REMARK                         _______ _______ _______ _____ _____    ______ ____
ROOT
ATOM      1  C   UNL     1       3.192   6.420  18.704  0.00  0.00    +0.000 C 
ATOM      2  O   UNL     1       3.245   6.542  19.916  0.00  0.00    +0.000 OA
ENDROOT
BRANCH   1   3
ATOM      3  C   UNL     1       3.907   5.397  17.888  0.00  0.00    +0.000 A 
ATOM      4  C   UNL     1       4.907   5.900  17.017  0.00  0.00    +0.000 A 
ATOM      5  C   UNL     1       5.700   5.023  16.272  0.00  0.00    +0.000 A 
ATOM      6  C   UNL     1       5.505   3.653  16.367  0.00  0.00    +0.000 A 
ATOM      7  C   UNL     1       4.511   3.166  17.223  0.00  0.00    +0.000 A 
ATOM      8  C   UNL     1       3.698   3.998  18.023  0.00  0.00    +0.000 A 
BRANCH   8   9
ATOM      9  N   UNL     1       2.796   3.401  18.891  0.00  0.00    +0.000 N 
ATOM     10  C   UNL     1       1.338   3.342  18.683  0.00  0.00    +0.000 C 
ATOM     11  C   UNL     1       0.606   3.667  19.997  0.00  0.00    +0.000 C 
ATOM     12  O   UNL     1       1.033   2.804  21.068  0.00  0.00    +0.000 OA
ATOM     13  C   UNL     1       2.450   2.930  21.267  0.00  0.00    +0.000 C 
ATOM     14  C   UNL     1       3.226   2.531  20.004  0.00  0.00    +0.000 C 
ENDBRANCH   8   9
BRANCH   5  15
ATOM     15  N   UNL     1       6.757   5.545  15.391  0.00  0.00    +0.000 N 
ATOM     16  O   UNL     1       6.712   5.234  14.195  0.00  0.00    +0.000 OA
ATOM     17  O   UNL     1       7.623   6.272  15.900  0.00  0.00    +0.000 OA
ENDBRANCH   5  15
ENDBRANCH   1   3
BRANCH   1  18
ATOM     18  O   UNL     1       2.426   7.182  17.880  0.00  0.00    +0.000 OA
BRANCH  18  19
ATOM     19  C   UNL     1       2.572   8.599  18.030  0.00  0.00    +0.000 C 
BRANCH  19  21
ATOM     20  N   UNL     1       0.776  10.260  18.163  0.00  0.00    +0.000 N 
ATOM     21  C   UNL     1       1.390   9.189  18.800  0.00  0.00    +0.000 C 
ATOM     22  O   UNL     1       1.044   8.710  19.878  0.00  0.00    +0.000 OA
ATOM     23  H   UNL     1       0.854  10.265  17.152  0.00  0.00    +0.000 HD
BRANCH  20  29
ATOM     24  C   UNL     1      -3.610  13.262  20.362  0.00  0.00    +0.000 C 
ATOM     25  C   UNL     1      -2.461  12.475  19.805  0.00  0.00    +0.000 A 
ATOM     26  C   UNL     1      -1.165  12.654  20.286  0.00  0.00    +0.000 A 
ATOM     27  C   UNL     1      -0.080  11.917  19.772  0.00  0.00    +0.000 A 
ATOM     28  C   UNL     1       1.287  12.256  20.305  0.00  0.00    +0.000 C 
ATOM     29  C   UNL     1      -0.304  10.982  18.734  0.00  0.00    +0.000 A 
ATOM     30  C   UNL     1      -1.603  10.841  18.195  0.00  0.00    +0.000 A 
ATOM     31  C   UNL     1      -1.968   9.878  17.097  0.00  0.00    +0.000 C 
ATOM     32  C   UNL     1      -2.670  11.559  18.773  0.00  0.00    +0.000 A 
ENDBRANCH  20  29
ENDBRANCH  19  21
ENDBRANCH  18  19
ENDBRANCH   1  18
TORSDOF 7
ENDMDL
MODEL 7
REMARK VINA RESULT:      -8.1      0.777      1.175
REMARK  Name = 
REMARK  10 active torsions:
REMARK  status: ('A' for Active; 'I' for Inactive)
REMARK    1  A    between atoms: C_1  and  C_2
REMARK    2  A    between atoms: C_4  and  C_5
REMARK    3  A    between atoms: C_6  and  N_7
REMARK    4  A    between atoms: C_8  and  C_10
REMARK    5  A    between atoms: C_10  and  O_11
REMARK    6  A    between atoms: O_11  and  C_12
REMARK    7  A    between atoms: C_12  and  C_14
REMARK    8  A    between atoms: C_16  and  N_17
REMARK    9  A    between atoms: C_22  and  N_23
REMARK   10  A    between atoms: C_29  and  C_30
REMARK                            x       y       z     vdW  Elec       q    Type
REMARK                         _______ _______ _______ _____ _____    ______ ____
ROOT
ATOM      1  C   UNL     1       2.495   6.388  18.123  0.00  0.00    +0.000 C 
ATOM      2  O   UNL     1       1.529   5.814  17.651  0.00  0.00    +0.000 OA
ENDROOT
BRANCH   1   3
ATOM      3  C   UNL     1       3.879   5.843  18.233  0.00  0.00    +0.000 A 
ATOM      4  C   UNL     1       4.883   6.583  17.556  0.00  0.00    +0.000 A 
ATOM      5  C   UNL     1       6.227   6.214  17.666  0.00  0.00    +0.000 A 
ATOM      6  C   UNL     1       6.588   5.111  18.425  0.00  0.00    +0.000 A 
ATOM      7  C   UNL     1       5.590   4.383  19.083  0.00  0.00    +0.000 A 
ATOM      8  C   UNL     1       4.220   4.722  19.035  0.00  0.00    +0.000 A 
BRANCH   8   9
ATOM      9  N   UNL     1       3.329   3.972  19.789  0.00  0.00    +0.000 N 
ATOM     10  C   UNL     1       3.246   2.501  19.778  0.00  0.00    +0.000 C 
ATOM     11  C   UNL     1       1.772   2.058  19.728  0.00  0.00    +0.000 C 
ATOM     12  O   UNL     1       1.011   2.633  20.806  0.00  0.00    +0.000 OA
ATOM     13  C   UNL     1       1.080   4.066  20.748  0.00  0.00    +0.000 C 
ATOM     14  C   UNL     1       2.529   4.558  20.883  0.00  0.00    +0.000 C 
ENDBRANCH   8   9
BRANCH   5  15
ATOM     15  N   UNL     1       7.269   7.000  16.987  0.00  0.00    +0.000 N 
ATOM     16  O   UNL     1       7.868   6.466  16.046  0.00  0.00    +0.000 OA
ATOM     17  O   UNL     1       7.477   8.152  17.395  0.00  0.00    +0.000 OA
ENDBRANCH   5  15
ENDBRANCH   1   3
BRANCH   1  18
ATOM     18  O   UNL     1       2.486   7.660  18.601  0.00  0.00    +0.000 OA
BRANCH  18  19
ATOM     19  C   UNL     1       1.932   8.649  17.725  0.00  0.00    +0.000 C 
BRANCH  19  21
ATOM     20  N   UNL     1       1.425   9.953  19.737  0.00  0.00    +0.000 N 
ATOM     21  C   UNL     1       0.972   9.568  18.481  0.00  0.00    +0.000 C 
ATOM     22  O   UNL     1      -0.090   9.919  17.971  0.00  0.00    +0.000 OA
ATOM     23  H   UNL     1       2.433   9.971  19.846  0.00  0.00    +0.000 HD
BRANCH  20  29
ATOM     24  C   UNL     1      -1.553  13.254  23.386  0.00  0.00    +0.000 C 
ATOM     25  C   UNL     1      -0.791  12.384  22.431  0.00  0.00    +0.000 A 
ATOM     26  C   UNL     1      -0.883  10.995  22.492  0.00  0.00    +0.000 A 
ATOM     27  C   UNL     1      -0.175  10.169  21.598  0.00  0.00    +0.000 A 
ATOM     28  C   UNL     1      -0.281   8.682  21.813  0.00  0.00    +0.000 C 
ATOM     29  C   UNL     1       0.662  10.759  20.621  0.00  0.00    +0.000 A 
ATOM     30  C   UNL     1       0.812  12.164  20.593  0.00  0.00    +0.000 A 
ATOM     31  C   UNL     1       1.666  12.908  19.600  0.00  0.00    +0.000 C 
ATOM     32  C   UNL     1       0.045  12.956  21.472  0.00  0.00    +0.000 A 
ENDBRANCH  20  29
ENDBRANCH  19  21
ENDBRANCH  18  19
ENDBRANCH   1  18
TORSDOF 7
ENDMDL
MODEL 8
REMARK VINA RESULT:      -8.1      1.485      4.574
REMARK  Name = 
REMARK  10 active torsions:
REMARK  status: ('A' for Active; 'I' for Inactive)
REMARK    1  A    between atoms: C_1  and  C_2
REMARK    2  A    between atoms: C_4  and  C_5
REMARK    3  A    between atoms: C_6  and  N_7
REMARK    4  A    between atoms: C_8  and  C_10
REMARK    5  A    between atoms: C_10  and  O_11
REMARK    6  A    between atoms: O_11  and  C_12
REMARK    7  A    between atoms: C_12  and  C_14
REMARK    8  A    between atoms: C_16  and  N_17
REMARK    9  A    between atoms: C_22  and  N_23
REMARK   10  A    between atoms: C_29  and  C_30
REMARK                            x       y       z     vdW  Elec       q    Type
REMARK                         _______ _______ _______ _____ _____    ______ ____
ROOT
ATOM      1  C   UNL     1       3.370   6.809  18.061  0.00  0.00    +0.000 C 
ATOM      2  O   UNL     1       4.069   7.263  17.171  0.00  0.00    +0.000 OA
ENDROOT
BRANCH   1   3
ATOM      3  C   UNL     1       3.572   5.512  18.768  0.00  0.00    +0.000 A 
ATOM      4  C   UNL     1       2.450   5.026  19.487  0.00  0.00    +0.000 A 
ATOM      5  C   UNL     1       2.500   3.777  20.113  0.00  0.00    +0.000 A 
ATOM      6  C   UNL     1       3.653   3.009  20.047  0.00  0.00    +0.000 A 
ATOM      7  C   UNL     1       4.757   3.499  19.342  0.00  0.00    +0.000 A 
ATOM      8  C   UNL     1       4.760   4.739  18.665  0.00  0.00    +0.000 A 
BRANCH   8   9
ATOM      9  N   UNL     1       5.886   5.089  17.935  0.00  0.00    +0.000 N 
ATOM     10  C   UNL     1       6.987   5.931  18.435  0.00  0.00    +0.000 C 
ATOM     11  C   UNL     1       7.399   6.951  17.359  0.00  0.00    +0.000 C 
ATOM     12  O   UNL     1       7.737   6.304  16.118  0.00  0.00    +0.000 OA
ATOM     13  C   UNL     1       6.620   5.536  15.644  0.00  0.00    +0.000 C 
ATOM     14  C   UNL     1       6.229   4.444  16.651  0.00  0.00    +0.000 C 
ENDBRANCH   8   9
BRANCH   5  15
ATOM     15  N   UNL     1       1.325   3.261  20.834  0.00  0.00    +0.000 N 
ATOM     16  O   UNL     1       1.486   2.898  22.004  0.00  0.00    +0.000 OA
ATOM     17  O   UNL     1       0.245   3.232  20.225  0.00  0.00    +0.000 OA
ENDBRANCH   5  15
ENDBRANCH   1   3
BRANCH   1  18
ATOM     18  O   UNL     1       2.292   7.438  18.598  0.00  0.00    +0.000 OA
BRANCH  18  19
ATOM     19  C   UNL     1       1.754   8.519  17.827  0.00  0.00    +0.000 C 
BRANCH  19  21
ATOM     20  N   UNL     1       0.248   9.377  19.558  0.00  0.00    +0.000 N 
ATOM     21  C   UNL     1       1.327   9.673  18.734  0.00  0.00    +0.000 C 
ATOM     22  O   UNL     1       1.928  10.745  18.708  0.00  0.00    +0.000 OA
ATOM     23  H   UNL     1       0.143   8.398  19.798  0.00  0.00    +0.000 HD
BRANCH  20  29
ATOM     24  C   UNL     1      -2.205  13.127  23.165  0.00  0.00    +0.000 C 
ATOM     25  C   UNL     1      -1.561  12.162  22.214  0.00  0.00    +0.000 A 
ATOM     26  C   UNL     1      -1.832  12.209  20.847  0.00  0.00    +0.000 A 
ATOM     27  C   UNL     1      -1.229  11.310  19.945  0.00  0.00    +0.000 A 
ATOM     28  C   UNL     1      -1.663  11.396  18.505  0.00  0.00    +0.000 C 
ATOM     29  C   UNL     1      -0.337  10.327  20.435  0.00  0.00    +0.000 A 
ATOM     30  C   UNL     1      -0.107  10.230  21.826  0.00  0.00    +0.000 A 
ATOM     31  C   UNL     1       0.823   9.234  22.467  0.00  0.00    +0.000 C 
ATOM     32  C   UNL     1      -0.689  11.182  22.689  0.00  0.00    +0.000 A 
ENDBRANCH  20  29
ENDBRANCH  19  21
ENDBRANCH  18  19
ENDBRANCH   1  18
TORSDOF 7
ENDMDL
MODEL 9
REMARK VINA RESULT:      -8.1      1.830      4.747
REMARK  Name = 
REMARK  10 active torsions:
REMARK  status: ('A' for Active; 'I' for Inactive)
REMARK    1  A    between atoms: C_1  and  C_2
REMARK    2  A    between atoms: C_4  and  C_5
REMARK    3  A    between atoms: C_6  and  N_7
REMARK    4  A    between atoms: C_8  and  C_10
REMARK    5  A    between atoms: C_10  and  O_11
REMARK    6  A    between atoms: O_11  and  C_12
REMARK    7  A    between atoms: C_12  and  C_14
REMARK    8  A    between atoms: C_16  and  N_17
REMARK    9  A    between atoms: C_22  and  N_23
REMARK   10  A    between atoms: C_29  and  C_30
REMARK                            x       y       z     vdW  Elec       q    Type
REMARK                         _______ _______ _______ _____ _____    ______ ____
ROOT
ATOM      1  C   UNL     1       3.437   6.717  18.015  0.00  0.00    +0.000 C 
ATOM      2  O   UNL     1       3.980   7.059  16.979  0.00  0.00    +0.000 OA
ENDROOT
BRANCH   1   3
ATOM      3  C   UNL     1       3.649   5.431  18.740  0.00  0.00    +0.000 A 
ATOM      4  C   UNL     1       2.540   4.961  19.490  0.00  0.00    +0.000 A 
ATOM      5  C   UNL     1       2.598   3.722  20.134  0.00  0.00    +0.000 A 
ATOM      6  C   UNL     1       3.747   2.948  20.058  0.00  0.00    +0.000 A 
ATOM      7  C   UNL     1       4.839   3.423  19.322  0.00  0.00    +0.000 A 
ATOM      8  C   UNL     1       4.832   4.651  18.626  0.00  0.00    +0.000 A 
BRANCH   8   9
ATOM      9  N   UNL     1       5.944   4.985  17.866  0.00  0.00    +0.000 N 
ATOM     10  C   UNL     1       7.049   5.845  18.324  0.00  0.00    +0.000 C 
ATOM     11  C   UNL     1       7.438   6.836  17.212  0.00  0.00    +0.000 C 
ATOM     12  O   UNL     1       7.758   6.155  15.985  0.00  0.00    +0.000 OA
ATOM     13  C   UNL     1       6.637   5.368  15.551  0.00  0.00    +0.000 C 
ATOM     14  C   UNL     1       6.268   4.305  16.596  0.00  0.00    +0.000 C 
ENDBRANCH   8   9
BRANCH   5  15
ATOM     15  N   UNL     1       1.437   3.223  20.888  0.00  0.00    +0.000 N 
ATOM     16  O   UNL     1       1.623   2.866  22.057  0.00  0.00    +0.000 OA
ATOM     17  O   UNL     1       0.342   3.199  20.306  0.00  0.00    +0.000 OA
ENDBRANCH   5  15
ENDBRANCH   1   3
BRANCH   1  18
ATOM     18  O   UNL     1       2.561   7.478  18.722  0.00  0.00    +0.000 OA
BRANCH  18  19
ATOM     19  C   UNL     1       2.139   8.691  18.087  0.00  0.00    +0.000 C 
BRANCH  19  21
ATOM     20  N   UNL     1       0.578  10.560  18.357  0.00  0.00    +0.000 N 
ATOM     21  C   UNL     1       1.139   9.444  18.965  0.00  0.00    +0.000 C 
ATOM     22  O   UNL     1       0.878   9.046  20.098  0.00  0.00    +0.000 OA
ATOM     23  H   UNL     1       0.529  10.523  17.345  0.00  0.00    +0.000 HD
BRANCH  20  29
ATOM     24  C   UNL     1      -3.137  14.127  20.918  0.00  0.00    +0.000 C 
ATOM     25  C   UNL     1      -2.159  13.195  20.265  0.00  0.00    +0.000 A 
ATOM     26  C   UNL     1      -0.785  13.365  20.426  0.00  0.00    +0.000 A 
ATOM     27  C   UNL     1       0.141  12.493  19.820  0.00  0.00    +0.000 A 
ATOM     28  C   UNL     1       1.600  12.824  19.990  0.00  0.00    +0.000 C 
ATOM     29  C   UNL     1      -0.331  11.426  19.019  0.00  0.00    +0.000 A 
ATOM     30  C   UNL     1      -1.719  11.285  18.797  0.00  0.00    +0.000 A 
ATOM     31  C   UNL     1      -2.342  10.190  17.972  0.00  0.00    +0.000 C 
ATOM     32  C   UNL     1      -2.614  12.148  19.464  0.00  0.00    +0.000 A 
ENDBRANCH  20  29
ENDBRANCH  19  21
ENDBRANCH  18  19
ENDBRANCH   1  18
TORSDOF 7
ENDMDL
