MODEL 1
REMARK VINA RESULT:      -8.8      0.000      0.000
REMARK  Name = 
REMARK  2 active torsions:
REMARK  status: ('A' for Active; 'I' for Inactive)
REMARK    1  A    between atoms: C_6  and  N_7
REMARK    2  A    between atoms: N_7  and  C_8
REMARK                            x       y       z     vdW  Elec       q    Type
REMARK                         _______ _______ _______ _____ _____    ______ ____
ROOT
ATOM      1  C   UNL     1       2.561   4.921  19.411  0.00  0.00    +0.000 A 
ATOM      2  C   UNL     1       1.456   4.071  19.601  0.00  0.00    +0.000 A 
ATOM      3  C   UNL     1       1.390   2.845  18.963  0.00  0.00    +0.000 A 
ATOM      4  N   UNL     1       2.298   2.383  18.083  0.00  0.00    +0.000 NA
ATOM      5  C   UNL     1       3.306   3.245  17.870  0.00  0.00    +0.000 A 
ATOM      6  N   UNL     1       4.330   2.996  17.007  0.00  0.00    +0.000 N 
ATOM      7  C   UNL     1       5.222   4.040  16.995  0.00  0.00    +0.000 A 
ATOM      8  C   UNL     1       6.411   4.190  16.270  0.00  0.00    +0.000 A 
ATOM      9  C   UNL     1       7.137   5.364  16.458  0.00  0.00    +0.000 A 
ATOM     10  C   UNL     1       6.687   6.346  17.336  0.00  0.00    +0.000 A 
ATOM     11 BR   UNL     1       7.699   7.928  17.566  0.00  0.00    +0.000 Br
ATOM     12  C   UNL     1       5.498   6.183  18.056  0.00  0.00    +0.000 A 
ATOM     13  C   UNL     1       4.740   5.002  17.892  0.00  0.00    +0.000 A 
ATOM     14  C   UNL     1       3.517   4.493  18.454  0.00  0.00    +0.000 A 
ATOM     15  H   UNL     1       4.404   2.149  16.466  0.00  0.00    +0.000 HD
ENDROOT
BRANCH   1  16
ATOM     16  N   UNL     1       2.658   6.130  20.138  0.00  0.00    +0.000 N 
ATOM     17  H   UNL     1       2.600   5.988  21.141  0.00  0.00    +0.000 HD
BRANCH  16  23
ATOM     18 CL   UNL     1      -0.040  10.315  21.420  0.00  0.00    +0.000 Cl
ATOM     19  C   UNL     1       0.848   9.379  20.282  0.00  0.00    +0.000 A 
ATOM     20  C   UNL     1       0.975   9.817  18.966  0.00  0.00    +0.000 A 
ATOM     21  C   UNL     1       1.688   9.042  18.050  0.00  0.00    +0.000 A 
ATOM     22  C   UNL     1       2.255   7.828  18.447  0.00  0.00    +0.000 A 
ATOM     23  C   UNL     1       2.103   7.372  19.765  0.00  0.00    +0.000 A 
ATOM     24  C   UNL     1       1.424   8.183  20.683  0.00  0.00    +0.000 A 
ENDBRANCH  16  23
ENDBRANCH   1  16
TORSDOF 2
ENDMDL
MODEL 2
REMARK VINA RESULT:      -8.4      1.178      1.584
REMARK  Name = 
REMARK  2 active torsions:
REMARK  status: ('A' for Active; 'I' for Inactive)
REMARK    1  A    between atoms: C_6  and  N_7
REMARK    2  A    between atoms: N_7  and  C_8
REMARK                            x       y       z     vdW  Elec       q    Type
REMARK                         _______ _______ _______ _____ _____    ______ ____
ROOT
ATOM      1  C   UNL     1       2.141   4.779  19.849  0.00  0.00    +0.000 A 
ATOM      2  C   UNL     1       0.998   4.019  20.158  0.00  0.00    +0.000 A 
ATOM      3  C   UNL     1       0.742   2.828  19.502  0.00  0.00    +0.000 A 
ATOM      4  N   UNL     1       1.487   2.322  18.502  0.00  0.00    +0.000 NA
ATOM      5  C   UNL     1       2.533   3.102  18.183  0.00  0.00    +0.000 A 
ATOM      6  N   UNL     1       3.415   2.798  17.190  0.00  0.00    +0.000 N 
ATOM      7  C   UNL     1       4.388   3.762  17.091  0.00  0.00    +0.000 A 
ATOM      8  C   UNL     1       5.485   3.836  16.223  0.00  0.00    +0.000 A 
ATOM      9  C   UNL     1       6.331   4.936  16.345  0.00  0.00    +0.000 A 
ATOM     10  C   UNL     1       6.084   5.920  17.298  0.00  0.00    +0.000 A 
ATOM     11 BR   UNL     1       7.255   7.401  17.436  0.00  0.00    +0.000 Br
ATOM     12  C   UNL     1       4.985   5.833  18.161  0.00  0.00    +0.000 A 
ATOM     13  C   UNL     1       4.110   4.728  18.065  0.00  0.00    +0.000 A 
ATOM     14  C   UNL     1       2.927   4.305  18.767  0.00  0.00    +0.000 A 
ATOM     15  H   UNL     1       3.345   1.968  16.623  0.00  0.00    +0.000 HD
ENDROOT
BRANCH   1  16
ATOM     16  N   UNL     1       2.437   5.947  20.589  0.00  0.00    +0.000 N 
ATOM     17  H   UNL     1       2.601   5.756  21.571  0.00  0.00    +0.000 HD
BRANCH  16  23
ATOM     18 CL   UNL     1       1.873  10.168  17.707  0.00  0.00    +0.000 Cl
ATOM     19  C   UNL     1       1.521   9.238  19.111  0.00  0.00    +0.000 A 
ATOM     20  C   UNL     1       0.699   9.762  20.107  0.00  0.00    +0.000 A 
ATOM     21  C   UNL     1       0.432   9.002  21.246  0.00  0.00    +0.000 A 
ATOM     22  C   UNL     1       0.999   7.733  21.395  0.00  0.00    +0.000 A 
ATOM     23  C   UNL     1       1.851   7.217  20.406  0.00  0.00    +0.000 A 
ATOM     24  C   UNL     1       2.072   7.973  19.249  0.00  0.00    +0.000 A 
ENDBRANCH  16  23
ENDBRANCH   1  16
TORSDOF 2
ENDMDL
MODEL 3
REMARK VINA RESULT:      -8.1      3.310      5.140
REMARK  Name = 
REMARK  2 active torsions:
REMARK  status: ('A' for Active; 'I' for Inactive)
REMARK    1  A    between atoms: C_6  and  N_7
REMARK    2  A    between atoms: N_7  and  C_8
REMARK                            x       y       z     vdW  Elec       q    Type
REMARK                         _______ _______ _______ _____ _____    ______ ____
ROOT
ATOM      1  C   UNL     1       5.066   4.231  17.055  0.00  0.00    +0.000 A 
ATOM      2  C   UNL     1       5.563   4.567  18.328  0.00  0.00    +0.000 A 
ATOM      3  C   UNL     1       6.792   5.187  18.467  0.00  0.00    +0.000 A 
ATOM      4  N   UNL     1       7.635   5.464  17.455  0.00  0.00    +0.000 NA
ATOM      5  C   UNL     1       7.163   5.071  16.259  0.00  0.00    +0.000 A 
ATOM      6  N   UNL     1       7.853   5.235  15.096  0.00  0.00    +0.000 N 
ATOM      7  C   UNL     1       7.132   4.754  14.030  0.00  0.00    +0.000 A 
ATOM      8  C   UNL     1       7.457   4.736  12.668  0.00  0.00    +0.000 A 
ATOM      9  C   UNL     1       6.525   4.188  11.790  0.00  0.00    +0.000 A 
ATOM     10  C   UNL     1       5.318   3.678  12.261  0.00  0.00    +0.000 A 
ATOM     11 BR   UNL     1       4.076   2.942  11.038  0.00  0.00    +0.000 Br
ATOM     12  C   UNL     1       5.004   3.704  13.624  0.00  0.00    +0.000 A 
ATOM     13  C   UNL     1       5.926   4.257  14.541  0.00  0.00    +0.000 A 
ATOM     14  C   UNL     1       5.944   4.463  15.965  0.00  0.00    +0.000 A 
ATOM     15  H   UNL     1       8.766   5.660  15.048  0.00  0.00    +0.000 HD
ENDROOT
BRANCH   1  16
ATOM     16  N   UNL     1       3.770   3.681  16.922  0.00  0.00    +0.000 N 
ATOM     17  H   UNL     1       3.348   3.888  16.023  0.00  0.00    +0.000 HD
BRANCH  16  23
ATOM     18 CL   UNL     1       1.323   5.878  20.875  0.00  0.00    +0.000 Cl
ATOM     19  C   UNL     1       1.586   4.556  19.806  0.00  0.00    +0.000 A 
ATOM     20  C   UNL     1       0.874   3.370  19.975  0.00  0.00    +0.000 A 
ATOM     21  C   UNL     1       1.106   2.301  19.109  0.00  0.00    +0.000 A 
ATOM     22  C   UNL     1       2.057   2.413  18.091  0.00  0.00    +0.000 A 
ATOM     23  C   UNL     1       2.794   3.598  17.938  0.00  0.00    +0.000 A 
ATOM     24  C   UNL     1       2.518   4.676  18.786  0.00  0.00    +0.000 A 
ENDBRANCH  16  23
ENDBRANCH   1  16
TORSDOF 2
ENDMDL
MODEL 4
REMARK VINA RESULT:      -8.0      4.045      5.347
REMARK  Name = 
REMARK  2 active torsions:
REMARK  status: ('A' for Active; 'I' for Inactive)
REMARK    1  A    between atoms: C_6  and  N_7
REMARK    2  A    between atoms: N_7  and  C_8
REMARK                            x       y       z     vdW  Elec       q    Type
REMARK                         _______ _______ _______ _____ _____    ______ ____
ROOT
ATOM      1  C   UNL     1       5.510   4.158  17.593  0.00  0.00    +0.000 A 
ATOM      2  C   UNL     1       5.828   4.689  18.857  0.00  0.00    +0.000 A 
ATOM      3  C   UNL     1       6.761   5.702  18.983  0.00  0.00    +0.000 A 
ATOM      4  N   UNL     1       7.479   6.221  17.970  0.00  0.00    +0.000 NA
ATOM      5  C   UNL     1       7.203   5.648  16.786  0.00  0.00    +0.000 A 
ATOM      6  N   UNL     1       7.820   6.002  15.625  0.00  0.00    +0.000 N 
ATOM      7  C   UNL     1       7.337   5.264  14.572  0.00  0.00    +0.000 A 
ATOM      8  C   UNL     1       7.681   5.314  13.215  0.00  0.00    +0.000 A 
ATOM      9  C   UNL     1       7.019   4.447  12.350  0.00  0.00    +0.000 A 
ATOM     10  C   UNL     1       6.054   3.565  12.828  0.00  0.00    +0.000 A 
ATOM     11 BR   UNL     1       5.175   2.400  11.623  0.00  0.00    +0.000 Br
ATOM     12  C   UNL     1       5.718   3.526  14.186  0.00  0.00    +0.000 A 
ATOM     13  C   UNL     1       6.368   4.396  15.089  0.00  0.00    +0.000 A 
ATOM     14  C   UNL     1       6.278   4.644  16.504  0.00  0.00    +0.000 A 
ATOM     15  H   UNL     1       8.529   6.717  15.570  0.00  0.00    +0.000 HD
ENDROOT
BRANCH   1  16
ATOM     16  N   UNL     1       4.490   3.186  17.469  0.00  0.00    +0.000 N 
ATOM     17  H   UNL     1       4.357   2.881  16.511  0.00  0.00    +0.000 HD
BRANCH  16  23
ATOM     18 CL   UNL     1       1.999   2.291  21.877  0.00  0.00    +0.000 Cl
ATOM     19  C   UNL     1       2.023   2.766  20.223  0.00  0.00    +0.000 A 
ATOM     20  C   UNL     1       0.831   3.070  19.567  0.00  0.00    +0.000 A 
ATOM     21  C   UNL     1       0.864   3.441  18.223  0.00  0.00    +0.000 A 
ATOM     22  C   UNL     1       2.080   3.492  17.535  0.00  0.00    +0.000 A 
ATOM     23  C   UNL     1       3.277   3.158  18.188  0.00  0.00    +0.000 A 
ATOM     24  C   UNL     1       3.232   2.831  19.548  0.00  0.00    +0.000 A 
ENDBRANCH  16  23
ENDBRANCH   1  16
TORSDOF 2
ENDMDL
MODEL 5
REMARK VINA RESULT:      -7.7      2.649      5.529
REMARK  Name = 
REMARK  2 active torsions:
REMARK  status: ('A' for Active; 'I' for Inactive)
REMARK    1  A    between atoms: C_6  and  N_7
REMARK    2  A    between atoms: N_7  and  C_8
REMARK                            x       y       z     vdW  Elec       q    Type
REMARK                         _______ _______ _______ _____ _____    ______ ____
ROOT
ATOM      1  C   UNL     1       3.277   3.625  18.013  0.00  0.00    +0.000 A 
ATOM      2  C   UNL     1       3.499   2.271  18.328  0.00  0.00    +0.000 A 
ATOM      3  C   UNL     1       3.098   1.754  19.546  0.00  0.00    +0.000 A 
ATOM      4  N   UNL     1       2.539   2.467  20.542  0.00  0.00    +0.000 NA
ATOM      5  C   UNL     1       2.402   3.769  20.238  0.00  0.00    +0.000 A 
ATOM      6  N   UNL     1       1.874   4.683  21.100  0.00  0.00    +0.000 N 
ATOM      7  C   UNL     1       1.844   5.931  20.527  0.00  0.00    +0.000 A 
ATOM      8  C   UNL     1       1.374   7.142  21.051  0.00  0.00    +0.000 A 
ATOM      9  C   UNL     1       1.456   8.271  20.239  0.00  0.00    +0.000 A 
ATOM     10  C   UNL     1       1.989   8.187  18.956  0.00  0.00    +0.000 A 
ATOM     11 BR   UNL     1       2.084   9.741  17.880  0.00  0.00    +0.000 Br
ATOM     12  C   UNL     1       2.453   6.970  18.443  0.00  0.00    +0.000 A 
ATOM     13  C   UNL     1       2.381   5.805  19.240  0.00  0.00    +0.000 A 
ATOM     14  C   UNL     1       2.733   4.422  19.053  0.00  0.00    +0.000 A 
ATOM     15  H   UNL     1       1.552   4.450  22.026  0.00  0.00    +0.000 HD
ENDROOT
BRANCH   1  16
ATOM     16  N   UNL     1       3.610   4.118  16.730  0.00  0.00    +0.000 N 
ATOM     17  H   UNL     1       3.127   3.627  15.986  0.00  0.00    +0.000 HD
BRANCH  16  23
ATOM     18 CL   UNL     1       7.671   7.192  17.442  0.00  0.00    +0.000 Cl
ATOM     19  C   UNL     1       6.841   5.959  16.574  0.00  0.00    +0.000 A 
ATOM     20  C   UNL     1       7.401   5.424  15.416  0.00  0.00    +0.000 A 
ATOM     21  C   UNL     1       6.711   4.434  14.715  0.00  0.00    +0.000 A 
ATOM     22  C   UNL     1       5.462   3.995  15.162  0.00  0.00    +0.000 A 
ATOM     23  C   UNL     1       4.885   4.554  16.312  0.00  0.00    +0.000 A 
ATOM     24  C   UNL     1       5.609   5.514  17.029  0.00  0.00    +0.000 A 
ENDBRANCH  16  23
ENDBRANCH   1  16
TORSDOF 2
ENDMDL
MODEL 6
REMARK VINA RESULT:      -7.7      3.126      5.857
REMARK  Name = 
REMARK  2 active torsions:
REMARK  status: ('A' for Active; 'I' for Inactive)
REMARK    1  A    between atoms: C_6  and  N_7
REMARK    2  A    between atoms: N_7  and  C_8
REMARK                            x       y       z     vdW  Elec       q    Type
REMARK                         _______ _______ _______ _____ _____    ______ ____
ROOT
ATOM      1  C   UNL     1       2.955   7.389  17.902  0.00  0.00    +0.000 A 
ATOM      2  C   UNL     1       2.566   8.741  17.941  0.00  0.00    +0.000 A 
ATOM      3  C   UNL     1       1.904   9.254  19.042  0.00  0.00    +0.000 A 
ATOM      4  N   UNL     1       1.521   8.539  20.116  0.00  0.00    +0.000 NA
ATOM      5  C   UNL     1       1.846   7.238  20.020  0.00  0.00    +0.000 A 
ATOM      6  N   UNL     1       1.543   6.322  20.981  0.00  0.00    +0.000 N 
ATOM      7  C   UNL     1       2.002   5.076  20.628  0.00  0.00    +0.000 A 
ATOM      8  C   UNL     1       1.919   3.864  21.325  0.00  0.00    +0.000 A 
ATOM      9  C   UNL     1       2.484   2.738  20.730  0.00  0.00    +0.000 A 
ATOM     10  C   UNL     1       3.105   2.826  19.488  0.00  0.00    +0.000 A 
ATOM     11 BR   UNL     1       3.863   1.276  18.710  0.00  0.00    +0.000 Br
ATOM     12  C   UNL     1       3.184   4.044  18.802  0.00  0.00    +0.000 A 
ATOM     13  C   UNL     1       2.624   5.206  19.380  0.00  0.00    +0.000 A 
ATOM     14  C   UNL     1       2.528   6.589  18.993  0.00  0.00    +0.000 A 
ATOM     15  H   UNL     1       1.053   6.552  21.831  0.00  0.00    +0.000 HD
ENDROOT
BRANCH   1  16
ATOM     16  N   UNL     1       3.709   6.900  16.810  0.00  0.00    +0.000 N 
ATOM     17  H   UNL     1       3.125   6.566  16.051  0.00  0.00    +0.000 HD
BRANCH  16  23
ATOM     18 CL   UNL     1       8.208   6.055  19.153  0.00  0.00    +0.000 Cl
ATOM     19  C   UNL     1       7.044   5.693  17.938  0.00  0.00    +0.000 A 
ATOM     20  C   UNL     1       7.310   4.708  16.990  0.00  0.00    +0.000 A 
ATOM     21  C   UNL     1       6.363   4.433  16.003  0.00  0.00    +0.000 A 
ATOM     22  C   UNL     1       5.166   5.153  15.955  0.00  0.00    +0.000 A 
ATOM     23  C   UNL     1       4.910   6.165  16.893  0.00  0.00    +0.000 A 
ATOM     24  C   UNL     1       5.850   6.398  17.904  0.00  0.00    +0.000 A 
ENDBRANCH  16  23
ENDBRANCH   1  16
TORSDOF 2
ENDMDL
MODEL 7
REMARK VINA RESULT:      -7.7      3.337      6.081
REMARK  Name = 
REMARK  2 active torsions:
REMARK  status: ('A' for Active; 'I' for Inactive)
REMARK    1  A    between atoms: C_6  and  N_7
REMARK    2  A    between atoms: N_7  and  C_8
REMARK                            x       y       z     vdW  Elec       q    Type
REMARK                         _______ _______ _______ _____ _____    ______ ____
ROOT
ATOM      1  C   UNL     1       3.478   3.976  18.069  0.00  0.00    +0.000 A 
ATOM      2  C   UNL     1       3.840   2.657  18.400  0.00  0.00    +0.000 A 
ATOM      3  C   UNL     1       3.570   2.144  19.656  0.00  0.00    +0.000 A 
ATOM      4  N   UNL     1       3.016   2.835  20.669  0.00  0.00    +0.000 NA
ATOM      5  C   UNL     1       2.743   4.110  20.345  0.00  0.00    +0.000 A 
ATOM      6  N   UNL     1       2.194   5.000  21.218  0.00  0.00    +0.000 N 
ATOM      7  C   UNL     1       2.014   6.223  20.618  0.00  0.00    +0.000 A 
ATOM      8  C   UNL     1       1.473   7.403  21.143  0.00  0.00    +0.000 A 
ATOM      9  C   UNL     1       1.400   8.510  20.301  0.00  0.00    +0.000 A 
ATOM     10  C   UNL     1       1.851   8.433  18.986  0.00  0.00    +0.000 A 
ATOM     11 BR   UNL     1       1.735   9.957  17.869  0.00  0.00    +0.000 Br
ATOM     12  C   UNL     1       2.388   7.247  18.472  0.00  0.00    +0.000 A 
ATOM     13  C   UNL     1       2.473   6.106  19.300  0.00  0.00    +0.000 A 
ATOM     14  C   UNL     1       2.935   4.754  19.123  0.00  0.00    +0.000 A 
ATOM     15  H   UNL     1       1.956   4.768  22.170  0.00  0.00    +0.000 HD
ENDROOT
BRANCH   1  16
ATOM     16  N   UNL     1       3.679   4.457  16.754  0.00  0.00    +0.000 N 
ATOM     17  H   UNL     1       2.972   4.128  16.105  0.00  0.00    +0.000 HD
BRANCH  16  23
ATOM     18 CL   UNL     1       6.635   3.728  12.610  0.00  0.00    +0.000 Cl
ATOM     19  C   UNL     1       6.385   4.332  14.202  0.00  0.00    +0.000 A 
ATOM     20  C   UNL     1       7.433   4.940  14.890  0.00  0.00    +0.000 A 
ATOM     21  C   UNL     1       7.221   5.414  16.185  0.00  0.00    +0.000 A 
ATOM     22  C   UNL     1       5.972   5.264  16.794  0.00  0.00    +0.000 A 
ATOM     23  C   UNL     1       4.924   4.625  16.112  0.00  0.00    +0.000 A 
ATOM     24  C   UNL     1       5.140   4.196  14.797  0.00  0.00    +0.000 A 
ENDBRANCH  16  23
ENDBRANCH   1  16
TORSDOF 2
ENDMDL
MODEL 8
REMARK VINA RESULT:      -7.4      3.437      6.008
REMARK  Name = 
REMARK  2 active torsions:
REMARK  status: ('A' for Active; 'I' for Inactive)
REMARK    1  A    between atoms: C_6  and  N_7
REMARK    2  A    between atoms: N_7  and  C_8
REMARK                            x       y       z     vdW  Elec       q    Type
REMARK                         _______ _______ _______ _____ _____    ______ ____
ROOT
ATOM      1  C   UNL     1       2.730   7.690  17.954  0.00  0.00    +0.000 A 
ATOM      2  C   UNL     1       2.332   9.033  18.087  0.00  0.00    +0.000 A 
ATOM      3  C   UNL     1       1.747   9.484  19.257  0.00  0.00    +0.000 A 
ATOM      4  N   UNL     1       1.451   8.713  20.319  0.00  0.00    +0.000 NA
ATOM      5  C   UNL     1       1.780   7.423  20.137  0.00  0.00    +0.000 A 
ATOM      6  N   UNL     1       1.558   6.458  21.073  0.00  0.00    +0.000 N 
ATOM      7  C   UNL     1       2.002   5.237  20.628  0.00  0.00    +0.000 A 
ATOM      8  C   UNL     1       1.982   3.992  21.269  0.00  0.00    +0.000 A 
ATOM      9  C   UNL     1       2.513   2.904  20.582  0.00  0.00    +0.000 A 
ATOM     10  C   UNL     1       3.041   3.059  19.303  0.00  0.00    +0.000 A 
ATOM     11 BR   UNL     1       3.756   1.558  18.399  0.00  0.00    +0.000 Br
ATOM     12  C   UNL     1       3.058   4.309  18.674  0.00  0.00    +0.000 A 
ATOM     13  C   UNL     1       2.530   5.434  19.345  0.00  0.00    +0.000 A 
ATOM     14  C   UNL     1       2.392   6.832  19.033  0.00  0.00    +0.000 A 
ATOM     15  H   UNL     1       1.129   6.641  21.966  0.00  0.00    +0.000 HD
ENDROOT
BRANCH   1  16
ATOM     16  N   UNL     1       3.408   7.263  16.789  0.00  0.00    +0.000 N 
ATOM     17  H   UNL     1       2.790   6.818  16.119  0.00  0.00    +0.000 HD
BRANCH  16  23
ATOM     18 CL   UNL     1       6.715   3.989  14.600  0.00  0.00    +0.000 Cl
ATOM     19  C   UNL     1       6.329   5.198  15.763  0.00  0.00    +0.000 A 
ATOM     20  C   UNL     1       7.281   5.591  16.701  0.00  0.00    +0.000 A 
ATOM     21  C   UNL     1       6.951   6.563  17.646  0.00  0.00    +0.000 A 
ATOM     22  C   UNL     1       5.671   7.124  17.663  0.00  0.00    +0.000 A 
ATOM     23  C   UNL     1       4.703   6.706  16.737  0.00  0.00    +0.000 A 
ATOM     24  C   UNL     1       5.063   5.764  15.767  0.00  0.00    +0.000 A 
ENDBRANCH  16  23
ENDBRANCH   1  16
TORSDOF 2
ENDMDL
MODEL 9
REMARK VINA RESULT:      -7.3      1.412      1.791
REMARK  Name = 
REMARK  2 active torsions:
REMARK  status: ('A' for Active; 'I' for Inactive)
REMARK    1  A    between atoms: C_6  and  N_7
REMARK    2  A    between atoms: N_7  and  C_8
REMARK                            x       y       z     vdW  Elec       q    Type
REMARK                         _______ _______ _______ _____ _____    ______ ____
ROOT
ATOM      1  C   UNL     1       2.678   5.687  17.941  0.00  0.00    +0.000 A 
ATOM      2  C   UNL     1       1.637   4.740  17.970  0.00  0.00    +0.000 A 
ATOM      3  C   UNL     1       1.900   3.409  18.236  0.00  0.00    +0.000 A 
ATOM      4  N   UNL     1       3.127   2.886  18.423  0.00  0.00    +0.000 NA
ATOM      5  C   UNL     1       4.105   3.802  18.323  0.00  0.00    +0.000 A 
ATOM      6  N   UNL     1       5.426   3.498  18.461  0.00  0.00    +0.000 N 
ATOM      7  C   UNL     1       6.201   4.623  18.322  0.00  0.00    +0.000 A 
ATOM      8  C   UNL     1       7.593   4.764  18.403  0.00  0.00    +0.000 A 
ATOM      9  C   UNL     1       8.123   6.040  18.228  0.00  0.00    +0.000 A 
ATOM     10  C   UNL     1       7.291   7.129  17.981  0.00  0.00    +0.000 A 
ATOM     11 BR   UNL     1       8.046   8.848  17.749  0.00  0.00    +0.000 Br
ATOM     12  C   UNL     1       5.902   6.975  17.905  0.00  0.00    +0.000 A 
ATOM     13  C   UNL     1       5.332   5.695  18.081  0.00  0.00    +0.000 A 
ATOM     14  C   UNL     1       3.991   5.170  18.086  0.00  0.00    +0.000 A 
ATOM     15  H   UNL     1       5.764   2.566  18.645  0.00  0.00    +0.000 HD
ENDROOT
BRANCH   1  16
ATOM     16  N   UNL     1       2.384   7.058  17.757  0.00  0.00    +0.000 N 
ATOM     17  H   UNL     1       3.063   7.527  17.166  0.00  0.00    +0.000 HD
BRANCH  16  23
ATOM     18 CL   UNL     1       0.197  11.566  18.914  0.00  0.00    +0.000 Cl
ATOM     19  C   UNL     1       0.828  10.030  19.367  0.00  0.00    +0.000 A 
ATOM     20  C   UNL     1       0.881   9.668  20.712  0.00  0.00    +0.000 A 
ATOM     21  C   UNL     1       1.407   8.425  21.067  0.00  0.00    +0.000 A 
ATOM     22  C   UNL     1       1.891   7.558  20.084  0.00  0.00    +0.000 A 
ATOM     23  C   UNL     1       1.864   7.935  18.732  0.00  0.00    +0.000 A 
ATOM     24  C   UNL     1       1.292   9.165  18.388  0.00  0.00    +0.000 A 
ENDBRANCH  16  23
ENDBRANCH   1  16
TORSDOF 2
ENDMDL
