MODEL 1
REMARK VINA RESULT:      -8.9      0.000      0.000
REMARK  Name = 
REMARK  7 active torsions:
REMARK  status: ('A' for Active; 'I' for Inactive)
REMARK    1  A    between atoms: C_2  and  C_3
REMARK    2  A    between atoms: C_3  and  C_4
REMARK    3  A    between atoms: C_7  and  N_8
REMARK    4  A    between atoms: C_13  and  N_14
REMARK    5  A    between atoms: N_14  and  C_15
REMARK    6  A    between atoms: N_23  and  C_24
REMARK    7  A    between atoms: C_28  and  C_29
REMARK                            x       y       z     vdW  Elec       q    Type
REMARK                         _______ _______ _______ _____ _____    ______ ____
ROOT
ATOM      1  C   UNL     1       0.586   8.399  20.843  0.00  0.00    +0.000 A 
ATOM      2  C   UNL     1       0.750   9.203  19.711  0.00  0.00    +0.000 A 
ATOM      3  C   UNL     1       1.676   8.851  18.723  0.00  0.00    +0.000 A 
ATOM      4  C   UNL     1       2.464   7.699  18.853  0.00  0.00    +0.000 A 
ATOM      5  C   UNL     1       2.249   6.885  19.971  0.00  0.00    +0.000 A 
ATOM      6  C   UNL     1       1.347   7.237  20.969  0.00  0.00    +0.000 A 
ENDROOT
BRANCH   4   7
ATOM      7  N   UNL     1       3.398   7.388  17.849  0.00  0.00    +0.000 N 
ATOM      8  C   UNL     1       3.797   6.112  17.429  0.00  0.00    +0.000 A 
ATOM      9  N   UNL     1       5.055   6.007  16.987  0.00  0.00    +0.000 NA
ATOM     10  C   UNL     1       5.498   4.760  16.750  0.00  0.00    +0.000 A 
ATOM     11  C   UNL     1       4.741   3.629  16.942  0.00  0.00    +0.000 A 
ATOM     12  C   UNL     1       3.449   3.832  17.352  0.00  0.00    +0.000 A 
ATOM     13  N   UNL     1       2.979   5.061  17.570  0.00  0.00    +0.000 NA
ATOM     14  H   UNL     1       4.222   7.973  17.822  0.00  0.00    +0.000 HD
BRANCH  12  15
ATOM     15  N   UNL     1       2.515   2.835  17.535  0.00  0.00    +0.000 N 
ATOM     16  H   UNL     1       1.720   3.054  16.938  0.00  0.00    +0.000 HD
BRANCH  15  17
ATOM     17  C   UNL     1       2.188   2.333  18.858  0.00  0.00    +0.000 C 
ATOM     18  C   UNL     1       3.282   2.713  19.858  0.00  0.00    +0.000 C 
ATOM     19  C   UNL     1       2.573   2.839  21.197  0.00  0.00    +0.000 C 
ATOM     20  C   UNL     1       1.135   3.225  20.881  0.00  0.00    +0.000 C 
ATOM     21  C   UNL     1       0.944   3.050  19.380  0.00  0.00    +0.000 C 
ENDBRANCH  15  17
ENDBRANCH  12  15
ENDBRANCH   4   7
BRANCH   1  22
ATOM     22  C   UNL     1      -0.470   8.706  21.869  0.00  0.00    +0.000 C 
BRANCH  22  24
ATOM     23  O   UNL     1       0.331  10.068  23.637  0.00  0.00    +0.000 OA
ATOM     24  C   UNL     1      -0.331  10.037  22.595  0.00  0.00    +0.000 C 
ATOM     25  N   UNL     1      -0.970  11.129  22.032  0.00  0.00    +0.000 N 
ATOM     26  H   UNL     1      -1.636  10.948  21.286  0.00  0.00    +0.000 HD
BRANCH  25  27
ATOM     27  C   UNL     1      -0.848  12.477  22.425  0.00  0.00    +0.000 A 
ATOM     28  C   UNL     1       0.090  13.348  21.866  0.00  0.00    +0.000 A 
ATOM     29  C   UNL     1       0.154  14.681  22.269  0.00  0.00    +0.000 A 
ATOM     30  C   UNL     1      -0.717  15.160  23.242  0.00  0.00    +0.000 A 
ATOM     31  C   UNL     1      -1.669  14.310  23.821  0.00  0.00    +0.000 A 
ATOM     32  C   UNL     1      -1.732  12.967  23.397  0.00  0.00    +0.000 A 
BRANCH  31  33
ATOM     33  C   UNL     1      -2.611  14.822  24.883  0.00  0.00    +0.000 C 
ATOM     34  F   UNL     1      -3.326  15.914  24.496  0.00  0.00    +0.000 F 
ATOM     35  F   UNL     1      -3.531  13.889  25.257  0.00  0.00    +0.000 F 
ATOM     36  F   UNL     1      -1.963  15.187  26.025  0.00  0.00    +0.000 F 
ENDBRANCH  31  33
ENDBRANCH  25  27
ENDBRANCH  22  24
ENDBRANCH   1  22
TORSDOF 7
ENDMDL
MODEL 2
REMARK VINA RESULT:      -8.8      6.791     11.256
REMARK  Name = 
REMARK  7 active torsions:
REMARK  status: ('A' for Active; 'I' for Inactive)
REMARK    1  A    between atoms: C_2  and  C_3
REMARK    2  A    between atoms: C_3  and  C_4
REMARK    3  A    between atoms: C_7  and  N_8
REMARK    4  A    between atoms: C_13  and  N_14
REMARK    5  A    between atoms: N_14  and  C_15
REMARK    6  A    between atoms: N_23  and  C_24
REMARK    7  A    between atoms: C_28  and  C_29
REMARK                            x       y       z     vdW  Elec       q    Type
REMARK                         _______ _______ _______ _____ _____    ______ ____
ROOT
ATOM      1  C   UNL     1       2.123   4.904  19.080  0.00  0.00    +0.000 A 
ATOM      2  C   UNL     1       1.546   4.891  20.354  0.00  0.00    +0.000 A 
ATOM      3  C   UNL     1       1.366   6.086  21.059  0.00  0.00    +0.000 A 
ATOM      4  C   UNL     1       1.769   7.312  20.513  0.00  0.00    +0.000 A 
ATOM      5  C   UNL     1       2.301   7.306  19.218  0.00  0.00    +0.000 A 
ATOM      6  C   UNL     1       2.505   6.121  18.517  0.00  0.00    +0.000 A 
ENDROOT
BRANCH   4   7
ATOM      7  N   UNL     1       1.590   8.490  21.260  0.00  0.00    +0.000 N 
ATOM      8  C   UNL     1       0.782   9.587  20.930  0.00  0.00    +0.000 A 
ATOM      9  N   UNL     1       1.206  10.779  21.364  0.00  0.00    +0.000 NA
ATOM     10  C   UNL     1       0.535  11.850  20.906  0.00  0.00    +0.000 A 
ATOM     11  C   UNL     1      -0.528  11.773  20.036  0.00  0.00    +0.000 A 
ATOM     12  C   UNL     1      -0.924  10.510  19.681  0.00  0.00    +0.000 A 
ATOM     13  N   UNL     1      -0.290   9.432  20.141  0.00  0.00    +0.000 NA
ATOM     14  H   UNL     1       2.423   8.863  21.694  0.00  0.00    +0.000 HD
BRANCH  12  15
ATOM     15  N   UNL     1      -2.006  10.222  18.876  0.00  0.00    +0.000 N 
ATOM     16  H   UNL     1      -1.986   9.221  18.693  0.00  0.00    +0.000 HD
BRANCH  15  17
ATOM     17  C   UNL     1      -2.355  11.060  17.743  0.00  0.00    +0.000 C 
ATOM     18  C   UNL     1      -2.397  10.231  16.458  0.00  0.00    +0.000 C 
ATOM     19  C   UNL     1      -3.421  10.920  15.571  0.00  0.00    +0.000 C 
ATOM     20  C   UNL     1      -4.397  11.614  16.510  0.00  0.00    +0.000 C 
ATOM     21  C   UNL     1      -3.788  11.563  17.906  0.00  0.00    +0.000 C 
ENDBRANCH  15  17
ENDBRANCH  12  15
ENDBRANCH   4   7
BRANCH   1  22
ATOM     22  C   UNL     1       2.238   3.645  18.266  0.00  0.00    +0.000 C 
BRANCH  22  24
ATOM     23  O   UNL     1       4.093   2.336  17.582  0.00  0.00    +0.000 OA
ATOM     24  C   UNL     1       3.554   3.445  17.525  0.00  0.00    +0.000 C 
ATOM     25  N   UNL     1       4.060   4.536  16.839  0.00  0.00    +0.000 N 
ATOM     26  H   UNL     1       3.633   5.441  17.019  0.00  0.00    +0.000 HD
BRANCH  25  27
ATOM     27  C   UNL     1       5.159   4.547  15.957  0.00  0.00    +0.000 A 
ATOM     28  C   UNL     1       6.424   5.007  16.329  0.00  0.00    +0.000 A 
ATOM     29  C   UNL     1       7.488   4.973  15.427  0.00  0.00    +0.000 A 
ATOM     30  C   UNL     1       7.297   4.483  14.138  0.00  0.00    +0.000 A 
ATOM     31  C   UNL     1       6.039   4.015  13.738  0.00  0.00    +0.000 A 
ATOM     32  C   UNL     1       4.974   4.044  14.661  0.00  0.00    +0.000 A 
BRANCH  31  33
ATOM     33  C   UNL     1       5.824   3.490  12.339  0.00  0.00    +0.000 C 
ATOM     34  F   UNL     1       4.606   3.807  11.820  0.00  0.00    +0.000 F 
ATOM     35  F   UNL     1       6.741   3.971  11.455  0.00  0.00    +0.000 F 
ATOM     36  F   UNL     1       5.915   2.132  12.271  0.00  0.00    +0.000 F 
ENDBRANCH  31  33
ENDBRANCH  25  27
ENDBRANCH  22  24
ENDBRANCH   1  22
TORSDOF 7
ENDMDL
MODEL 3
REMARK VINA RESULT:      -8.8      4.061      5.556
REMARK  Name = 
REMARK  7 active torsions:
REMARK  status: ('A' for Active; 'I' for Inactive)
REMARK    1  A    between atoms: C_2  and  C_3
REMARK    2  A    between atoms: C_3  and  C_4
REMARK    3  A    between atoms: C_7  and  N_8
REMARK    4  A    between atoms: C_13  and  N_14
REMARK    5  A    between atoms: N_14  and  C_15
REMARK    6  A    between atoms: N_23  and  C_24
REMARK    7  A    between atoms: C_28  and  C_29
REMARK                            x       y       z     vdW  Elec       q    Type
REMARK                         _______ _______ _______ _____ _____    ______ ____
ROOT
ATOM      1  C   UNL     1       1.148   9.490  19.932  0.00  0.00    +0.000 A 
ATOM      2  C   UNL     1       0.984   8.638  21.029  0.00  0.00    +0.000 A 
ATOM      3  C   UNL     1       1.427   7.313  20.965  0.00  0.00    +0.000 A 
ATOM      4  C   UNL     1       2.028   6.809  19.804  0.00  0.00    +0.000 A 
ATOM      5  C   UNL     1       2.224   7.693  18.736  0.00  0.00    +0.000 A 
ATOM      6  C   UNL     1       1.768   9.006  18.780  0.00  0.00    +0.000 A 
ENDROOT
BRANCH   4   7
ATOM      7  N   UNL     1       2.443   5.466  19.771  0.00  0.00    +0.000 N 
ATOM      8  C   UNL     1       3.246   4.851  18.801  0.00  0.00    +0.000 A 
ATOM      9  N   UNL     1       3.008   3.554  18.580  0.00  0.00    +0.000 NA
ATOM     10  C   UNL     1       3.649   3.003  17.534  0.00  0.00    +0.000 A 
ATOM     11  C   UNL     1       4.504   3.696  16.709  0.00  0.00    +0.000 A 
ATOM     12  C   UNL     1       4.726   5.008  17.037  0.00  0.00    +0.000 A 
ATOM     13  N   UNL     1       4.120   5.570  18.084  0.00  0.00    +0.000 NA
ATOM     14  H   UNL     1       1.745   4.787  20.044  0.00  0.00    +0.000 HD
BRANCH  12  15
ATOM     15  N   UNL     1       5.596   5.849  16.376  0.00  0.00    +0.000 N 
ATOM     16  H   UNL     1       5.513   5.647  15.382  0.00  0.00    +0.000 HD
BRANCH  15  17
ATOM     17  C   UNL     1       6.945   6.077  16.860  0.00  0.00    +0.000 C 
ATOM     18  C   UNL     1       7.095   7.513  17.367  0.00  0.00    +0.000 C 
ATOM     19  C   UNL     1       8.153   7.444  18.456  0.00  0.00    +0.000 C 
ATOM     20  C   UNL     1       8.082   6.036  19.029  0.00  0.00    +0.000 C 
ATOM     21  C   UNL     1       7.194   5.219  18.099  0.00  0.00    +0.000 C 
ENDBRANCH  15  17
ENDBRANCH  12  15
ENDBRANCH   4   7
BRANCH   1  22
ATOM     22  C   UNL     1       0.767  10.943  20.012  0.00  0.00    +0.000 C 
BRANCH  22  24
ATOM     23  O   UNL     1      -0.181  12.536  18.533  0.00  0.00    +0.000 OA
ATOM     24  C   UNL     1      -0.297  11.410  19.028  0.00  0.00    +0.000 C 
ATOM     25  N   UNL     1      -1.335  10.533  18.762  0.00  0.00    +0.000 N 
ATOM     26  H   UNL     1      -1.427   9.721  19.366  0.00  0.00    +0.000 HD
BRANCH  25  27
ATOM     27  C   UNL     1      -2.332  10.674  17.775  0.00  0.00    +0.000 A 
ATOM     28  C   UNL     1      -2.232  10.091  16.510  0.00  0.00    +0.000 A 
ATOM     29  C   UNL     1      -3.258  10.236  15.576  0.00  0.00    +0.000 A 
ATOM     30  C   UNL     1      -4.394  10.973  15.894  0.00  0.00    +0.000 A 
ATOM     31  C   UNL     1      -4.522  11.569  17.156  0.00  0.00    +0.000 A 
ATOM     32  C   UNL     1      -3.484  11.406  18.096  0.00  0.00    +0.000 A 
BRANCH  31  33
ATOM     33  C   UNL     1      -5.749  12.376  17.504  0.00  0.00    +0.000 C 
ATOM     34  F   UNL     1      -6.052  13.331  16.582  0.00  0.00    +0.000 F 
ATOM     35  F   UNL     1      -6.865  11.604  17.619  0.00  0.00    +0.000 F 
ATOM     36  F   UNL     1      -5.623  13.032  18.692  0.00  0.00    +0.000 F 
ENDBRANCH  31  33
ENDBRANCH  25  27
ENDBRANCH  22  24
ENDBRANCH   1  22
TORSDOF 7
ENDMDL
MODEL 4
REMARK VINA RESULT:      -8.7      3.725      5.206
REMARK  Name = 
REMARK  7 active torsions:
REMARK  status: ('A' for Active; 'I' for Inactive)
REMARK    1  A    between atoms: C_2  and  C_3
REMARK    2  A    between atoms: C_3  and  C_4
REMARK    3  A    between atoms: C_7  and  N_8
REMARK    4  A    between atoms: C_13  and  N_14
REMARK    5  A    between atoms: N_14  and  C_15
REMARK    6  A    between atoms: N_23  and  C_24
REMARK    7  A    between atoms: C_28  and  C_29
REMARK                            x       y       z     vdW  Elec       q    Type
REMARK                         _______ _______ _______ _____ _____    ______ ____
ROOT
ATOM      1  C   UNL     1       1.627   9.251  19.026  0.00  0.00    +0.000 A 
ATOM      2  C   UNL     1       1.228   8.943  20.331  0.00  0.00    +0.000 A 
ATOM      3  C   UNL     1       1.394   7.648  20.832  0.00  0.00    +0.000 A 
ATOM      4  C   UNL     1       1.948   6.634  20.039  0.00  0.00    +0.000 A 
ATOM      5  C   UNL     1       2.383   6.977  18.753  0.00  0.00    +0.000 A 
ATOM      6  C   UNL     1       2.202   8.255  18.237  0.00  0.00    +0.000 A 
ENDROOT
BRANCH   4   7
ATOM      7  N   UNL     1       2.082   5.339  20.571  0.00  0.00    +0.000 N 
ATOM      8  C   UNL     1       3.038   4.375  20.223  0.00  0.00    +0.000 A 
ATOM      9  N   UNL     1       2.646   3.100  20.323  0.00  0.00    +0.000 NA
ATOM     10  C   UNL     1       3.491   2.180  19.827  0.00  0.00    +0.000 A 
ATOM     11  C   UNL     1       4.695   2.485  19.237  0.00  0.00    +0.000 A 
ATOM     12  C   UNL     1       5.037   3.812  19.220  0.00  0.00    +0.000 A 
ATOM     13  N   UNL     1       4.227   4.741  19.727  0.00  0.00    +0.000 NA
ATOM     14  H   UNL     1       1.217   4.844  20.738  0.00  0.00    +0.000 HD
BRANCH  12  15
ATOM     15  N   UNL     1       6.228   4.312  18.735  0.00  0.00    +0.000 N 
ATOM     16  H   UNL     1       6.629   4.895  19.467  0.00  0.00    +0.000 HD
BRANCH  15  17
ATOM     17  C   UNL     1       6.339   4.833  17.385  0.00  0.00    +0.000 C 
ATOM     18  C   UNL     1       5.379   4.098  16.447  0.00  0.00    +0.000 C 
ATOM     19  C   UNL     1       5.017   5.109  15.372  0.00  0.00    +0.000 C 
ATOM     20  C   UNL     1       5.150   6.481  16.017  0.00  0.00    +0.000 C 
ATOM     21  C   UNL     1       5.848   6.279  17.356  0.00  0.00    +0.000 C 
ENDBRANCH  15  17
ENDBRANCH  12  15
ENDBRANCH   4   7
BRANCH   1  22
ATOM     22  C   UNL     1       1.546  10.657  18.499  0.00  0.00    +0.000 C 
BRANCH  22  24
ATOM     23  O   UNL     1      -0.064  12.388  18.686  0.00  0.00    +0.000 OA
ATOM     24  C   UNL     1       0.144  11.226  18.323  0.00  0.00    +0.000 C 
ATOM     25  N   UNL     1      -0.809  10.388  17.770  0.00  0.00    +0.000 N 
ATOM     26  H   UNL     1      -0.574   9.402  17.688  0.00  0.00    +0.000 HD
BRANCH  25  27
ATOM     27  C   UNL     1      -2.112  10.738  17.362  0.00  0.00    +0.000 A 
ATOM     28  C   UNL     1      -2.577  10.538  16.059  0.00  0.00    +0.000 A 
ATOM     29  C   UNL     1      -3.883  10.876  15.710  0.00  0.00    +0.000 A 
ATOM     30  C   UNL     1      -4.741  11.426  16.658  0.00  0.00    +0.000 A 
ATOM     31  C   UNL     1      -4.302  11.638  17.971  0.00  0.00    +0.000 A 
ATOM     32  C   UNL     1      -2.983  11.282  18.316  0.00  0.00    +0.000 A 
BRANCH  31  33
ATOM     33  C   UNL     1      -5.225  12.242  19.002  0.00  0.00    +0.000 C 
ATOM     34  F   UNL     1      -5.893  13.342  18.557  0.00  0.00    +0.000 F 
ATOM     35  F   UNL     1      -6.185  11.369  19.418  0.00  0.00    +0.000 F 
ATOM     36  F   UNL     1      -4.565  12.637  20.127  0.00  0.00    +0.000 F 
ENDBRANCH  31  33
ENDBRANCH  25  27
ENDBRANCH  22  24
ENDBRANCH   1  22
TORSDOF 7
ENDMDL
MODEL 5
REMARK VINA RESULT:      -8.7      3.866      5.251
REMARK  Name = 
REMARK  7 active torsions:
REMARK  status: ('A' for Active; 'I' for Inactive)
REMARK    1  A    between atoms: C_2  and  C_3
REMARK    2  A    between atoms: C_3  and  C_4
REMARK    3  A    between atoms: C_7  and  N_8
REMARK    4  A    between atoms: C_13  and  N_14
REMARK    5  A    between atoms: N_14  and  C_15
REMARK    6  A    between atoms: N_23  and  C_24
REMARK    7  A    between atoms: C_28  and  C_29
REMARK                            x       y       z     vdW  Elec       q    Type
REMARK                         _______ _______ _______ _____ _____    ______ ____
ROOT
ATOM      1  C   UNL     1       1.692   9.281  18.873  0.00  0.00    +0.000 A 
ATOM      2  C   UNL     1       1.317   9.106  20.209  0.00  0.00    +0.000 A 
ATOM      3  C   UNL     1       1.476   7.863  20.830  0.00  0.00    +0.000 A 
ATOM      4  C   UNL     1       1.997   6.768  20.126  0.00  0.00    +0.000 A 
ATOM      5  C   UNL     1       2.409   6.979  18.805  0.00  0.00    +0.000 A 
ATOM      6  C   UNL     1       2.235   8.205  18.171  0.00  0.00    +0.000 A 
ENDROOT
BRANCH   4   7
ATOM      7  N   UNL     1       2.124   5.529  20.778  0.00  0.00    +0.000 N 
ATOM      8  C   UNL     1       2.962   4.464  20.418  0.00  0.00    +0.000 A 
ATOM      9  N   UNL     1       2.510   3.239  20.709  0.00  0.00    +0.000 NA
ATOM     10  C   UNL     1       3.222   2.212  20.213  0.00  0.00    +0.000 A 
ATOM     11  C   UNL     1       4.349   2.364  19.440  0.00  0.00    +0.000 A 
ATOM     12  C   UNL     1       4.766   3.652  19.231  0.00  0.00    +0.000 A 
ATOM     13  N   UNL     1       4.091   4.686  19.733  0.00  0.00    +0.000 NA
ATOM     14  H   UNL     1       1.261   5.120  21.109  0.00  0.00    +0.000 HD
BRANCH  12  15
ATOM     15  N   UNL     1       5.906   4.009  18.543  0.00  0.00    +0.000 N 
ATOM     16  H   UNL     1       6.586   4.327  19.231  0.00  0.00    +0.000 HD
BRANCH  15  17
ATOM     17  C   UNL     1       5.843   4.785  17.317  0.00  0.00    +0.000 C 
ATOM     18  C   UNL     1       7.195   4.766  16.602  0.00  0.00    +0.000 C 
ATOM     19  C   UNL     1       6.868   4.904  15.124  0.00  0.00    +0.000 C 
ATOM     20  C   UNL     1       5.475   4.319  14.941  0.00  0.00    +0.000 C 
ATOM     21  C   UNL     1       4.894   4.103  16.333  0.00  0.00    +0.000 C 
ENDBRANCH  15  17
ENDBRANCH  12  15
ENDBRANCH   4   7
BRANCH   1  22
ATOM     22  C   UNL     1       1.620  10.632  18.216  0.00  0.00    +0.000 C 
BRANCH  22  24
ATOM     23  O   UNL     1       0.600  12.734  18.623  0.00  0.00    +0.000 OA
ATOM     24  C   UNL     1       0.441  11.509  18.616  0.00  0.00    +0.000 C 
ATOM     25  N   UNL     1      -0.736  10.863  18.956  0.00  0.00    +0.000 N 
ATOM     26  H   UNL     1      -0.693   9.857  19.098  0.00  0.00    +0.000 HD
BRANCH  25  27
ATOM     27  C   UNL     1      -1.991  11.459  19.195  0.00  0.00    +0.000 A 
ATOM     28  C   UNL     1      -2.263  12.220  20.334  0.00  0.00    +0.000 A 
ATOM     29  C   UNL     1      -3.513  12.811  20.513  0.00  0.00    +0.000 A 
ATOM     30  C   UNL     1      -4.510  12.644  19.557  0.00  0.00    +0.000 A 
ATOM     31  C   UNL     1      -4.265  11.886  18.404  0.00  0.00    +0.000 A 
ATOM     32  C   UNL     1      -2.994  11.302  18.228  0.00  0.00    +0.000 A 
BRANCH  31  33
ATOM     33  C   UNL     1      -5.344  11.695  17.367  0.00  0.00    +0.000 C 
ATOM     34  F   UNL     1      -6.345  10.864  17.770  0.00  0.00    +0.000 F 
ATOM     35  F   UNL     1      -5.950  12.865  17.022  0.00  0.00    +0.000 F 
ATOM     36  F   UNL     1      -4.865  11.164  16.206  0.00  0.00    +0.000 F 
ENDBRANCH  31  33
ENDBRANCH  25  27
ENDBRANCH  22  24
ENDBRANCH   1  22
TORSDOF 7
ENDMDL
MODEL 6
REMARK VINA RESULT:      -8.7      3.681      5.250
REMARK  Name = 
REMARK  7 active torsions:
REMARK  status: ('A' for Active; 'I' for Inactive)
REMARK    1  A    between atoms: C_2  and  C_3
REMARK    2  A    between atoms: C_3  and  C_4
REMARK    3  A    between atoms: C_7  and  N_8
REMARK    4  A    between atoms: C_13  and  N_14
REMARK    5  A    between atoms: N_14  and  C_15
REMARK    6  A    between atoms: N_23  and  C_24
REMARK    7  A    between atoms: C_28  and  C_29
REMARK                            x       y       z     vdW  Elec       q    Type
REMARK                         _______ _______ _______ _____ _____    ______ ____
ROOT
ATOM      1  C   UNL     1       1.717   9.038  18.909  0.00  0.00    +0.000 A 
ATOM      2  C   UNL     1       1.279   8.804  20.216  0.00  0.00    +0.000 A 
ATOM      3  C   UNL     1       1.473   7.553  20.811  0.00  0.00    +0.000 A 
ATOM      4  C   UNL     1       2.092   6.509  20.110  0.00  0.00    +0.000 A 
ATOM      5  C   UNL     1       2.563   6.781  18.820  0.00  0.00    +0.000 A 
ATOM      6  C   UNL     1       2.357   8.015  18.211  0.00  0.00    +0.000 A 
ENDROOT
BRANCH   4   7
ATOM      7  N   UNL     1       2.251   5.260  20.734  0.00  0.00    +0.000 N 
ATOM      8  C   UNL     1       2.686   4.066  20.142  0.00  0.00    +0.000 A 
ATOM      9  N   UNL     1       2.184   2.939  20.658  0.00  0.00    +0.000 NA
ATOM     10  C   UNL     1       2.459   1.807  19.988  0.00  0.00    +0.000 A 
ATOM     11  C   UNL     1       3.201   1.762  18.831  0.00  0.00    +0.000 A 
ATOM     12  C   UNL     1       3.715   2.957  18.400  0.00  0.00    +0.000 A 
ATOM     13  N   UNL     1       3.477   4.090  19.062  0.00  0.00    +0.000 NA
ATOM     14  H   UNL     1       1.531   5.009  21.398  0.00  0.00    +0.000 HD
BRANCH  12  15
ATOM     15  N   UNL     1       4.537   3.111  17.304  0.00  0.00    +0.000 N 
ATOM     16  H   UNL     1       5.232   2.368  17.342  0.00  0.00    +0.000 HD
BRANCH  15  17
ATOM     17  C   UNL     1       5.034   4.415  16.904  0.00  0.00    +0.000 C 
ATOM     18  C   UNL     1       6.426   4.659  17.489  0.00  0.00    +0.000 C 
ATOM     19  C   UNL     1       7.122   5.577  16.497  0.00  0.00    +0.000 C 
ATOM     20  C   UNL     1       6.490   5.293  15.142  0.00  0.00    +0.000 C 
ATOM     21  C   UNL     1       5.260   4.432  15.393  0.00  0.00    +0.000 C 
ENDBRANCH  15  17
ENDBRANCH  12  15
ENDBRANCH   4   7
BRANCH   1  22
ATOM     22  C   UNL     1       1.607  10.402  18.284  0.00  0.00    +0.000 C 
BRANCH  22  24
ATOM     23  O   UNL     1       0.024  12.111  18.732  0.00  0.00    +0.000 OA
ATOM     24  C   UNL     1       0.207  10.999  18.225  0.00  0.00    +0.000 C 
ATOM     25  N   UNL     1      -0.774  10.242  17.607  0.00  0.00    +0.000 N 
ATOM     26  H   UNL     1      -0.553   9.271  17.399  0.00  0.00    +0.000 HD
BRANCH  25  27
ATOM     27  C   UNL     1      -2.084  10.650  17.287  0.00  0.00    +0.000 A 
ATOM     28  C   UNL     1      -2.614  10.554  15.998  0.00  0.00    +0.000 A 
ATOM     29  C   UNL     1      -3.926  10.946  15.737  0.00  0.00    +0.000 A 
ATOM     30  C   UNL     1      -4.725  11.445  16.761  0.00  0.00    +0.000 A 
ATOM     31  C   UNL     1      -4.221  11.552  18.064  0.00  0.00    +0.000 A 
ATOM     32  C   UNL     1      -2.896  11.142  18.319  0.00  0.00    +0.000 A 
BRANCH  31  33
ATOM     33  C   UNL     1      -5.079  12.100  19.178  0.00  0.00    +0.000 C 
ATOM     34  F   UNL     1      -4.367  12.505  20.265  0.00  0.00    +0.000 F 
ATOM     35  F   UNL     1      -5.810  13.182  18.789  0.00  0.00    +0.000 F 
ATOM     36  F   UNL     1      -5.978  11.187  19.641  0.00  0.00    +0.000 F 
ENDBRANCH  31  33
ENDBRANCH  25  27
ENDBRANCH  22  24
ENDBRANCH   1  22
TORSDOF 7
ENDMDL
MODEL 7
REMARK VINA RESULT:      -8.7      3.902      5.450
REMARK  Name = 
REMARK  7 active torsions:
REMARK  status: ('A' for Active; 'I' for Inactive)
REMARK    1  A    between atoms: C_2  and  C_3
REMARK    2  A    between atoms: C_3  and  C_4
REMARK    3  A    between atoms: C_7  and  N_8
REMARK    4  A    between atoms: C_13  and  N_14
REMARK    5  A    between atoms: N_14  and  C_15
REMARK    6  A    between atoms: N_23  and  C_24
REMARK    7  A    between atoms: C_28  and  C_29
REMARK                            x       y       z     vdW  Elec       q    Type
REMARK                         _______ _______ _______ _____ _____    ______ ____
ROOT
ATOM      1  C   UNL     1       1.460   9.180  19.802  0.00  0.00    +0.000 A 
ATOM      2  C   UNL     1       1.018   8.674  21.028  0.00  0.00    +0.000 A 
ATOM      3  C   UNL     1       1.127   7.308  21.309  0.00  0.00    +0.000 A 
ATOM      4  C   UNL     1       1.665   6.420  20.368  0.00  0.00    +0.000 A 
ATOM      5  C   UNL     1       2.144   6.955  19.167  0.00  0.00    +0.000 A 
ATOM      6  C   UNL     1       2.021   8.308  18.868  0.00  0.00    +0.000 A 
ENDROOT
BRANCH   4   7
ATOM      7  N   UNL     1       1.740   5.051  20.679  0.00  0.00    +0.000 N 
ATOM      8  C   UNL     1       2.636   4.110  20.151  0.00  0.00    +0.000 A 
ATOM      9  N   UNL     1       2.178   2.857  20.054  0.00  0.00    +0.000 NA
ATOM     10  C   UNL     1       2.963   1.990  19.390  0.00  0.00    +0.000 A 
ATOM     11  C   UNL     1       4.169   2.328  18.823  0.00  0.00    +0.000 A 
ATOM     12  C   UNL     1       4.581   3.621  19.012  0.00  0.00    +0.000 A 
ATOM     13  N   UNL     1       3.832   4.493  19.687  0.00  0.00    +0.000 NA
ATOM     14  H   UNL     1       0.853   4.578  20.788  0.00  0.00    +0.000 HD
BRANCH  12  15
ATOM     15  N   UNL     1       5.786   4.135  18.580  0.00  0.00    +0.000 N 
ATOM     16  H   UNL     1       6.513   3.486  18.875  0.00  0.00    +0.000 HD
BRANCH  15  17
ATOM     17  C   UNL     1       6.106   5.543  18.723  0.00  0.00    +0.000 C 
ATOM     18  C   UNL     1       7.595   5.724  19.029  0.00  0.00    +0.000 C 
ATOM     19  C   UNL     1       7.962   7.077  18.441  0.00  0.00    +0.000 C 
ATOM     20  C   UNL     1       7.001   7.313  17.286  0.00  0.00    +0.000 C 
ATOM     21  C   UNL     1       5.917   6.247  17.381  0.00  0.00    +0.000 C 
ENDBRANCH  15  17
ENDBRANCH  12  15
ENDBRANCH   4   7
BRANCH   1  22
ATOM     22  C   UNL     1       1.441  10.656  19.516  0.00  0.00    +0.000 C 
BRANCH  22  24
ATOM     23  O   UNL     1       0.278  12.326  18.300  0.00  0.00    +0.000 OA
ATOM     24  C   UNL     1       0.239  11.171  18.736  0.00  0.00    +0.000 C 
ATOM     25  N   UNL     1      -0.826  10.302  18.576  0.00  0.00    +0.000 N 
ATOM     26  H   UNL     1      -0.825   9.453  19.136  0.00  0.00    +0.000 HD
BRANCH  25  27
ATOM     27  C   UNL     1      -1.961  10.492  17.762  0.00  0.00    +0.000 A 
ATOM     28  C   UNL     1      -2.046  10.004  16.456  0.00  0.00    +0.000 A 
ATOM     29  C   UNL     1      -3.202  10.194  15.699  0.00  0.00    +0.000 A 
ATOM     30  C   UNL     1      -4.285  10.881  16.237  0.00  0.00    +0.000 A 
ATOM     31  C   UNL     1      -4.229  11.381  17.545  0.00  0.00    +0.000 A 
ATOM     32  C   UNL     1      -3.060  11.173  18.305  0.00  0.00    +0.000 A 
BRANCH  31  33
ATOM     33  C   UNL     1      -5.398  12.133  18.131  0.00  0.00    +0.000 C 
ATOM     34  F   UNL     1      -5.868  13.124  17.324  0.00  0.00    +0.000 F 
ATOM     35  F   UNL     1      -6.464  11.324  18.385  0.00  0.00    +0.000 F 
ATOM     36  F   UNL     1      -5.092  12.733  19.316  0.00  0.00    +0.000 F 
ENDBRANCH  31  33
ENDBRANCH  25  27
ENDBRANCH  22  24
ENDBRANCH   1  22
TORSDOF 7
ENDMDL
MODEL 8
REMARK VINA RESULT:      -8.7      6.279     11.362
REMARK  Name = 
REMARK  7 active torsions:
REMARK  status: ('A' for Active; 'I' for Inactive)
REMARK    1  A    between atoms: C_2  and  C_3
REMARK    2  A    between atoms: C_3  and  C_4
REMARK    3  A    between atoms: C_7  and  N_8
REMARK    4  A    between atoms: C_13  and  N_14
REMARK    5  A    between atoms: N_14  and  C_15
REMARK    6  A    between atoms: N_23  and  C_24
REMARK    7  A    between atoms: C_28  and  C_29
REMARK                            x       y       z     vdW  Elec       q    Type
REMARK                         _______ _______ _______ _____ _____    ______ ____
ROOT
ATOM      1  C   UNL     1      -0.043  10.351  18.766  0.00  0.00    +0.000 A 
ATOM      2  C   UNL     1      -0.967   9.576  18.058  0.00  0.00    +0.000 A 
ATOM      3  C   UNL     1      -2.152  10.148  17.583  0.00  0.00    +0.000 A 
ATOM      4  C   UNL     1      -2.443  11.499  17.816  0.00  0.00    +0.000 A 
ATOM      5  C   UNL     1      -1.482  12.267  18.485  0.00  0.00    +0.000 A 
ATOM      6  C   UNL     1      -0.311  11.703  18.982  0.00  0.00    +0.000 A 
ENDROOT
BRANCH   4   7
ATOM      7  N   UNL     1      -3.652  12.034  17.339  0.00  0.00    +0.000 N 
ATOM      8  C   UNL     1      -4.876  12.101  18.020  0.00  0.00    +0.000 A 
ATOM      9  N   UNL     1      -5.974  12.027  17.260  0.00  0.00    +0.000 NA
ATOM     10  C   UNL     1      -7.142  11.914  17.916  0.00  0.00    +0.000 A 
ATOM     11  C   UNL     1      -7.249  11.866  19.286  0.00  0.00    +0.000 A 
ATOM     12  C   UNL     1      -6.079  11.995  19.986  0.00  0.00    +0.000 A 
ATOM     13  N   UNL     1      -4.910  12.133  19.359  0.00  0.00    +0.000 NA
ATOM     14  H   UNL     1      -3.869  11.832  16.373  0.00  0.00    +0.000 HD
BRANCH  12  15
ATOM     15  N   UNL     1      -5.984  12.039  21.361  0.00  0.00    +0.000 N 
ATOM     16  H   UNL     1      -5.661  11.124  21.670  0.00  0.00    +0.000 HD
BRANCH  15  17
ATOM     17  C   UNL     1      -7.020  12.647  22.175  0.00  0.00    +0.000 C 
ATOM     18  C   UNL     1      -6.731  12.426  23.661  0.00  0.00    +0.000 C 
ATOM     19  C   UNL     1      -7.343  13.624  24.370  0.00  0.00    +0.000 C 
ATOM     20  C   UNL     1      -7.327  14.766  23.365  0.00  0.00    +0.000 C 
ATOM     21  C   UNL     1      -6.972  14.164  22.011  0.00  0.00    +0.000 C 
ENDBRANCH  15  17
ENDBRANCH  12  15
ENDBRANCH   4   7
BRANCH   1  22
ATOM     22  C   UNL     1       1.278   9.781  19.202  0.00  0.00    +0.000 C 
BRANCH  22  24
ATOM     23  O   UNL     1       2.161   9.017  17.139  0.00  0.00    +0.000 OA
ATOM     24  C   UNL     1       1.876   8.709  18.300  0.00  0.00    +0.000 C 
ATOM     25  N   UNL     1       2.050   7.451  18.850  0.00  0.00    +0.000 N 
ATOM     26  H   UNL     1       1.606   7.267  19.746  0.00  0.00    +0.000 HD
BRANCH  25  27
ATOM     27  C   UNL     1       2.727   6.359  18.271  0.00  0.00    +0.000 A 
ATOM     28  C   UNL     1       2.156   5.090  18.152  0.00  0.00    +0.000 A 
ATOM     29  C   UNL     1       2.857   4.048  17.546  0.00  0.00    +0.000 A 
ATOM     30  C   UNL     1       4.143   4.260  17.058  0.00  0.00    +0.000 A 
ATOM     31  C   UNL     1       4.741   5.522  17.163  0.00  0.00    +0.000 A 
ATOM     32  C   UNL     1       4.018   6.572  17.767  0.00  0.00    +0.000 A 
BRANCH  31  33
ATOM     33  C   UNL     1       6.138   5.756  16.643  0.00  0.00    +0.000 C 
ATOM     34  F   UNL     1       6.209   5.813  15.284  0.00  0.00    +0.000 F 
ATOM     35  F   UNL     1       6.673   6.926  17.092  0.00  0.00    +0.000 F 
ATOM     36  F   UNL     1       7.007   4.777  17.020  0.00  0.00    +0.000 F 
ENDBRANCH  31  33
ENDBRANCH  25  27
ENDBRANCH  22  24
ENDBRANCH   1  22
TORSDOF 7
ENDMDL
MODEL 9
REMARK VINA RESULT:      -8.6      5.815     11.090
REMARK  Name = 
REMARK  7 active torsions:
REMARK  status: ('A' for Active; 'I' for Inactive)
REMARK    1  A    between atoms: C_2  and  C_3
REMARK    2  A    between atoms: C_3  and  C_4
REMARK    3  A    between atoms: C_7  and  N_8
REMARK    4  A    between atoms: C_13  and  N_14
REMARK    5  A    between atoms: N_14  and  C_15
REMARK    6  A    between atoms: N_23  and  C_24
REMARK    7  A    between atoms: C_28  and  C_29
REMARK                            x       y       z     vdW  Elec       q    Type
REMARK                         _______ _______ _______ _____ _____    ______ ____
ROOT
ATOM      1  C   UNL     1       0.042  10.498  18.569  0.00  0.00    +0.000 A 
ATOM      2  C   UNL     1      -0.225  11.869  18.636  0.00  0.00    +0.000 A 
ATOM      3  C   UNL     1      -1.475  12.364  18.249  0.00  0.00    +0.000 A 
ATOM      4  C   UNL     1      -2.476  11.504  17.776  0.00  0.00    +0.000 A 
ATOM      5  C   UNL     1      -2.202  10.131  17.763  0.00  0.00    +0.000 A 
ATOM      6  C   UNL     1      -0.955   9.630  18.124  0.00  0.00    +0.000 A 
ENDROOT
BRANCH   4   7
ATOM      7  N   UNL     1      -3.713  12.040  17.378  0.00  0.00    +0.000 N 
ATOM      8  C   UNL     1      -4.878  12.146  18.150  0.00  0.00    +0.000 A 
ATOM      9  N   UNL     1      -6.033  12.064  17.481  0.00  0.00    +0.000 NA
ATOM     10  C   UNL     1      -7.147  11.988  18.229  0.00  0.00    +0.000 A 
ATOM     11  C   UNL     1      -7.147  11.986  19.604  0.00  0.00    +0.000 A 
ATOM     12  C   UNL     1      -5.924  12.121  20.206  0.00  0.00    +0.000 A 
ATOM     13  N   UNL     1      -4.807  12.222  19.485  0.00  0.00    +0.000 NA
ATOM     14  H   UNL     1      -4.007  11.810  16.438  0.00  0.00    +0.000 HD
BRANCH  12  15
ATOM     15  N   UNL     1      -5.721  12.207  21.567  0.00  0.00    +0.000 N 
ATOM     16  H   UNL     1      -6.636  12.158  22.011  0.00  0.00    +0.000 HD
BRANCH  15  17
ATOM     17  C   UNL     1      -4.796  13.169  22.138  0.00  0.00    +0.000 C 
ATOM     18  C   UNL     1      -5.345  14.590  21.990  0.00  0.00    +0.000 C 
ATOM     19  C   UNL     1      -4.780  15.361  23.172  0.00  0.00    +0.000 C 
ATOM     20  C   UNL     1      -4.550  14.339  24.276  0.00  0.00    +0.000 C 
ATOM     21  C   UNL     1      -4.713  12.960  23.649  0.00  0.00    +0.000 C 
ENDBRANCH  15  17
ENDBRANCH  12  15
ENDBRANCH   4   7
BRANCH   1  22
ATOM     22  C   UNL     1       1.343   9.933  19.070  0.00  0.00    +0.000 C 
BRANCH  22  24
ATOM     23  O   UNL     1       2.261   9.051  17.069  0.00  0.00    +0.000 OA
ATOM     24  C   UNL     1       1.948   8.809  18.239  0.00  0.00    +0.000 C 
ATOM     25  N   UNL     1       2.099   7.581  18.860  0.00  0.00    +0.000 N 
ATOM     26  H   UNL     1       1.634   7.449  19.755  0.00  0.00    +0.000 HD
BRANCH  25  27
ATOM     27  C   UNL     1       2.778   6.454  18.355  0.00  0.00    +0.000 A 
ATOM     28  C   UNL     1       4.018   6.540  17.717  0.00  0.00    +0.000 A 
ATOM     29  C   UNL     1       4.663   5.392  17.258  0.00  0.00    +0.000 A 
ATOM     30  C   UNL     1       4.074   4.143  17.426  0.00  0.00    +0.000 A 
ATOM     31  C   UNL     1       2.831   4.026  18.062  0.00  0.00    +0.000 A 
ATOM     32  C   UNL     1       2.193   5.192  18.533  0.00  0.00    +0.000 A 
BRANCH  31  33
ATOM     33  C   UNL     1       2.183   2.675  18.240  0.00  0.00    +0.000 C 
ATOM     34  F   UNL     1       2.489   1.791  17.252  0.00  0.00    +0.000 F 
ATOM     35  F   UNL     1       2.548   2.071  19.405  0.00  0.00    +0.000 F 
ATOM     36  F   UNL     1       0.822   2.748  18.267  0.00  0.00    +0.000 F 
ENDBRANCH  31  33
ENDBRANCH  25  27
ENDBRANCH  22  24
ENDBRANCH   1  22
TORSDOF 7
ENDMDL
