MODEL 1
REMARK VINA RESULT:      -6.9      0.000      0.000
REMARK  Name = 
REMARK  11 active torsions:
REMARK  status: ('A' for Active; 'I' for Inactive)
REMARK    1  A    between atoms: N_1  and  C_2
REMARK    2  A    between atoms: C_2  and  C_3
REMARK    3  A    between atoms: C_3  and  N_4
REMARK    4  A    between atoms: C_6  and  C_7
REMARK    5  A    between atoms: C_7  and  C_8
REMARK    6  A    between atoms: C_12  and  N_13
REMARK    7  A    between atoms: C_15  and  N_16
REMARK    8  A    between atoms: N_16  and  C_17
REMARK    9  A    between atoms: C_17  and  C_18
REMARK   10  A    between atoms: C_18  and  C_19
REMARK   11  A    between atoms: C_19  and  O_20
REMARK                            x       y       z     vdW  Elec       q    Type
REMARK                         _______ _______ _______ _____ _____    ______ ____
ROOT
ATOM      1  N   UNL     1       6.927   5.706  16.791  0.00  0.00    +0.000 NA
ATOM      2  C   UNL     1       5.450   5.717  16.851  0.00  0.00    +0.000 C 
ATOM      3  C   UNL     1       4.928   4.610  15.919  0.00  0.00    +0.000 C 
ATOM      4  C   UNL     1       5.982   4.667  14.806  0.00  0.00    +0.000 C 
ATOM      5  C   UNL     1       7.275   5.047  15.518  0.00  0.00    +0.000 C 
ENDROOT
BRANCH   4   6
ATOM      6  N   UNL     1       6.186   3.432  14.020  0.00  0.00    +0.000 NA
ATOM      7  H   UNL     1       7.031   2.930  14.382  0.00  0.00    +0.000 HD
BRANCH   6   8
ATOM      8  C   UNL     1       6.318   3.583  12.567  0.00  0.00    +0.000 C 
BRANCH   8   9
ATOM      9  C   UNL     1       5.586   2.495  11.785  0.00  0.00    +0.000 C 
BRANCH   9  10
ATOM     10  C   UNL     1       6.595   1.505  11.201  0.00  0.00    +0.000 C 
BRANCH  10  11
ATOM     11  O   UNL     1       6.143   0.192  11.376  0.00  0.00    +0.000 OA
ATOM     12  H   UNL     1       5.579   0.196  12.194  0.00  0.00    +0.000 HD
ENDBRANCH  10  11
ENDBRANCH   9  10
ENDBRANCH   8   9
ENDBRANCH   6   8
ENDBRANCH   4   6
BRANCH   1  13
ATOM     13  C   UNL     1       7.575   5.056  17.958  0.00  0.00    +0.000 C 
BRANCH  13  14
ATOM     14  C   UNL     1       7.842   6.053  19.109  0.00  0.00    +0.000 C 
BRANCH  14  15
ATOM     15  N   UNL     1       8.060   5.354  20.371  0.00  0.00    +0.000 NA
ATOM     16  H   UNL     1       9.018   5.588  20.719  0.00  0.00    +0.000 HD
ATOM     17  H   UNL     1       8.030   4.325  20.192  0.00  0.00    +0.000 HD
ENDBRANCH  14  15
ENDBRANCH  13  14
ENDBRANCH   1  13
BRANCH   3  18
ATOM     18  C   UNL     1       4.716   3.262  16.661  0.00  0.00    +0.000 C 
BRANCH  18  19
ATOM     19  C   UNL     1       3.574   3.361  17.652  0.00  0.00    +0.000 A 
ATOM     20  C   UNL     1       2.289   3.809  17.261  0.00  0.00    +0.000 A 
ATOM     21  C   UNL     1       1.273   3.900  18.209  0.00  0.00    +0.000 A 
ATOM     22  C   UNL     1       1.518   3.531  19.531  0.00  0.00    +0.000 A 
ATOM     23  C   UNL     1       2.794   3.069  19.885  0.00  0.00    +0.000 A 
ATOM     24  N   UNL     1       3.778   3.005  18.948  0.00  0.00    +0.000 NA
BRANCH  23  25
ATOM     25  N   UNL     1       3.057   2.654  21.209  0.00  0.00    +0.000 N 
ATOM     26  H   UNL     1       2.730   3.211  22.014  0.00  0.00    +0.000 HD
ATOM     27  H   UNL     1       3.565   1.776  21.382  0.00  0.00    +0.000 HD
ENDBRANCH  23  25
ENDBRANCH  18  19
ENDBRANCH   3  18
TORSDOF 11
ENDMDL
MODEL 2
REMARK VINA RESULT:      -6.7      0.988      1.009
REMARK  Name = 
REMARK  11 active torsions:
REMARK  status: ('A' for Active; 'I' for Inactive)
REMARK    1  A    between atoms: N_1  and  C_2
REMARK    2  A    between atoms: C_2  and  C_3
REMARK    3  A    between atoms: C_3  and  N_4
REMARK    4  A    between atoms: C_6  and  C_7
REMARK    5  A    between atoms: C_7  and  C_8
REMARK    6  A    between atoms: C_12  and  N_13
REMARK    7  A    between atoms: C_15  and  N_16
REMARK    8  A    between atoms: N_16  and  C_17
REMARK    9  A    between atoms: C_17  and  C_18
REMARK   10  A    between atoms: C_18  and  C_19
REMARK   11  A    between atoms: C_19  and  O_20
REMARK                            x       y       z     vdW  Elec       q    Type
REMARK                         _______ _______ _______ _____ _____    ______ ____
ROOT
ATOM      1  N   UNL     1       6.868   5.707  17.096  0.00  0.00    +0.000 NA
ATOM      2  C   UNL     1       5.399   5.748  17.259  0.00  0.00    +0.000 C 
ATOM      3  C   UNL     1       4.789   4.672  16.344  0.00  0.00    +0.000 C 
ATOM      4  C   UNL     1       5.765   4.730  15.161  0.00  0.00    +0.000 C 
ATOM      5  C   UNL     1       7.112   5.067  15.790  0.00  0.00    +0.000 C 
ENDROOT
BRANCH   4   6
ATOM      6  N   UNL     1       5.886   3.507  14.340  0.00  0.00    +0.000 NA
ATOM      7  H   UNL     1       6.605   2.877  14.766  0.00  0.00    +0.000 HD
BRANCH   6   8
ATOM      8  C   UNL     1       6.207   3.691  12.920  0.00  0.00    +0.000 C 
BRANCH   8   9
ATOM      9  C   UNL     1       4.991   3.532  12.009  0.00  0.00    +0.000 C 
BRANCH   9  10
ATOM     10  C   UNL     1       5.058   2.188  11.281  0.00  0.00    +0.000 C 
BRANCH  10  11
ATOM     11  O   UNL     1       6.122   1.423  11.773  0.00  0.00    +0.000 OA
ATOM     12  H   UNL     1       5.847   0.472  11.686  0.00  0.00    +0.000 HD
ENDBRANCH  10  11
ENDBRANCH   9  10
ENDBRANCH   8   9
ENDBRANCH   6   8
ENDBRANCH   4   6
BRANCH   1  13
ATOM     13  C   UNL     1       7.579   5.018  18.202  0.00  0.00    +0.000 C 
BRANCH  13  14
ATOM     14  C   UNL     1       8.057   6.005  19.293  0.00  0.00    +0.000 C 
BRANCH  14  15
ATOM     15  N   UNL     1       8.110   5.359  20.600  0.00  0.00    +0.000 NA
ATOM     16  H   UNL     1       8.861   5.817  21.167  0.00  0.00    +0.000 HD
ATOM     17  H   UNL     1       8.379   4.358  20.467  0.00  0.00    +0.000 HD
ENDBRANCH  14  15
ENDBRANCH  13  14
ENDBRANCH   1  13
BRANCH   3  18
ATOM     18  C   UNL     1       4.597   3.314  17.073  0.00  0.00    +0.000 C 
BRANCH  18  19
ATOM     19  C   UNL     1       3.383   3.348  17.977  0.00  0.00    +0.000 A 
ATOM     20  C   UNL     1       2.258   2.521  17.741  0.00  0.00    +0.000 A 
ATOM     21  C   UNL     1       1.155   2.598  18.589  0.00  0.00    +0.000 A 
ATOM     22  C   UNL     1       1.172   3.471  19.674  0.00  0.00    +0.000 A 
ATOM     23  C   UNL     1       2.309   4.263  19.898  0.00  0.00    +0.000 A 
ATOM     24  N   UNL     1       3.367   4.186  19.048  0.00  0.00    +0.000 NA
BRANCH  23  25
ATOM     25  N   UNL     1       2.363   5.128  21.013  0.00  0.00    +0.000 N 
ATOM     26  H   UNL     1       3.214   5.675  21.218  0.00  0.00    +0.000 HD
ATOM     27  H   UNL     1       1.541   5.233  21.623  0.00  0.00    +0.000 HD
ENDBRANCH  23  25
ENDBRANCH  18  19
ENDBRANCH   3  18
TORSDOF 11
ENDMDL
MODEL 3
REMARK VINA RESULT:      -6.6      4.566      6.329
REMARK  Name = 
REMARK  11 active torsions:
REMARK  status: ('A' for Active; 'I' for Inactive)
REMARK    1  A    between atoms: N_1  and  C_2
REMARK    2  A    between atoms: C_2  and  C_3
REMARK    3  A    between atoms: C_3  and  N_4
REMARK    4  A    between atoms: C_6  and  C_7
REMARK    5  A    between atoms: C_7  and  C_8
REMARK    6  A    between atoms: C_12  and  N_13
REMARK    7  A    between atoms: C_15  and  N_16
REMARK    8  A    between atoms: N_16  and  C_17
REMARK    9  A    between atoms: C_17  and  C_18
REMARK   10  A    between atoms: C_18  and  C_19
REMARK   11  A    between atoms: C_19  and  O_20
REMARK                            x       y       z     vdW  Elec       q    Type
REMARK                         _______ _______ _______ _____ _____    ______ ____
ROOT
ATOM      1  N   UNL     1       4.991   4.948  17.849  0.00  0.00    +0.000 NA
ATOM      2  C   UNL     1       4.374   6.288  17.749  0.00  0.00    +0.000 C 
ATOM      3  C   UNL     1       2.891   6.158  18.140  0.00  0.00    +0.000 C 
ATOM      4  C   UNL     1       2.581   4.762  17.585  0.00  0.00    +0.000 C 
ATOM      5  C   UNL     1       3.880   3.984  17.753  0.00  0.00    +0.000 C 
ENDROOT
BRANCH   4   6
ATOM      6  N   UNL     1       1.468   4.027  18.222  0.00  0.00    +0.000 NA
ATOM      7  H   UNL     1       1.052   4.620  18.978  0.00  0.00    +0.000 HD
BRANCH   6   8
ATOM      8  C   UNL     1       1.778   2.706  18.780  0.00  0.00    +0.000 C 
BRANCH   8   9
ATOM      9  C   UNL     1       1.410   2.583  20.257  0.00  0.00    +0.000 C 
BRANCH   9  10
ATOM     10  C   UNL     1       2.663   2.731  21.121  0.00  0.00    +0.000 C 
BRANCH  10  11
ATOM     11  O   UNL     1       2.321   3.186  22.399  0.00  0.00    +0.000 OA
ATOM     12  H   UNL     1       1.355   3.418  22.364  0.00  0.00    +0.000 HD
ENDBRANCH  10  11
ENDBRANCH   9  10
ENDBRANCH   8   9
ENDBRANCH   6   8
ENDBRANCH   4   6
BRANCH   1  13
ATOM     13  C   UNL     1       5.807   4.749  19.074  0.00  0.00    +0.000 C 
BRANCH  13  14
ATOM     14  C   UNL     1       7.063   5.651  19.092  0.00  0.00    +0.000 C 
BRANCH  14  15
ATOM     15  N   UNL     1       7.856   5.424  20.295  0.00  0.00    +0.000 NA
ATOM     16  H   UNL     1       7.452   5.996  21.073  0.00  0.00    +0.000 HD
ATOM     17  H   UNL     1       8.829   5.764  20.123  0.00  0.00    +0.000 HD
ENDBRANCH  14  15
ENDBRANCH  13  14
ENDBRANCH   1  13
BRANCH   3  18
ATOM     18  C   UNL     1       2.652   6.418  19.652  0.00  0.00    +0.000 C 
BRANCH  18  19
ATOM     19  C   UNL     1       1.895   7.712  19.870  0.00  0.00    +0.000 A 
ATOM     20  C   UNL     1       1.293   8.019  21.114  0.00  0.00    +0.000 A 
ATOM     21  C   UNL     1       0.592   9.214  21.264  0.00  0.00    +0.000 A 
ATOM     22  C   UNL     1       0.504  10.108  20.199  0.00  0.00    +0.000 A 
ATOM     23  C   UNL     1       1.129   9.788  18.985  0.00  0.00    +0.000 A 
ATOM     24  N   UNL     1       1.793   8.608  18.853  0.00  0.00    +0.000 NA
BRANCH  23  25
ATOM     25  N   UNL     1       1.085  10.694  17.903  0.00  0.00    +0.000 N 
ATOM     26  H   UNL     1       0.799  11.675  18.045  0.00  0.00    +0.000 HD
ATOM     27  H   UNL     1       1.359  10.384  16.960  0.00  0.00    +0.000 HD
ENDBRANCH  23  25
ENDBRANCH  18  19
ENDBRANCH   3  18
TORSDOF 11
ENDMDL
MODEL 4
REMARK VINA RESULT:      -6.6      3.084      5.106
REMARK  Name = 
REMARK  11 active torsions:
REMARK  status: ('A' for Active; 'I' for Inactive)
REMARK    1  A    between atoms: N_1  and  C_2
REMARK    2  A    between atoms: C_2  and  C_3
REMARK    3  A    between atoms: C_3  and  N_4
REMARK    4  A    between atoms: C_6  and  C_7
REMARK    5  A    between atoms: C_7  and  C_8
REMARK    6  A    between atoms: C_12  and  N_13
REMARK    7  A    between atoms: C_15  and  N_16
REMARK    8  A    between atoms: N_16  and  C_17
REMARK    9  A    between atoms: C_17  and  C_18
REMARK   10  A    between atoms: C_18  and  C_19
REMARK   11  A    between atoms: C_19  and  O_20
REMARK                            x       y       z     vdW  Elec       q    Type
REMARK                         _______ _______ _______ _____ _____    ______ ____
ROOT
ATOM      1  N   UNL     1       7.203   5.389  16.771  0.00  0.00    +0.000 NA
ATOM      2  C   UNL     1       6.920   4.654  18.021  0.00  0.00    +0.000 C 
ATOM      3  C   UNL     1       5.417   4.790  18.324  0.00  0.00    +0.000 C 
ATOM      4  C   UNL     1       5.159   6.209  17.802  0.00  0.00    +0.000 C 
ATOM      5  C   UNL     1       6.106   6.363  16.618  0.00  0.00    +0.000 C 
ENDROOT
BRANCH   4   6
ATOM      6  N   UNL     1       3.776   6.522  17.384  0.00  0.00    +0.000 NA
ATOM      7  H   UNL     1       3.688   6.373  16.351  0.00  0.00    +0.000 HD
BRANCH   6   8
ATOM      8  C   UNL     1       3.270   7.860  17.708  0.00  0.00    +0.000 C 
BRANCH   8   9
ATOM      9  C   UNL     1       1.893   7.832  18.368  0.00  0.00    +0.000 C 
BRANCH   9  10
ATOM     10  C   UNL     1       2.045   7.667  19.881  0.00  0.00    +0.000 C 
BRANCH  10  11
ATOM     11  O   UNL     1       2.611   6.422  20.178  0.00  0.00    +0.000 OA
ATOM     12  H   UNL     1       2.219   6.135  21.045  0.00  0.00    +0.000 HD
ENDBRANCH  10  11
ENDBRANCH   9  10
ENDBRANCH   8   9
ENDBRANCH   6   8
ENDBRANCH   4   6
BRANCH   1  13
ATOM     13  C   UNL     1       7.354   4.518  15.578  0.00  0.00    +0.000 C 
BRANCH  13  14
ATOM     14  C   UNL     1       6.187   4.692  14.577  0.00  0.00    +0.000 C 
BRANCH  14  15
ATOM     15  N   UNL     1       6.170   3.611  13.597  0.00  0.00    +0.000 NA
ATOM     16  H   UNL     1       6.969   2.967  13.798  0.00  0.00    +0.000 HD
ATOM     17  H   UNL     1       6.322   4.019  12.647  0.00  0.00    +0.000 HD
ENDBRANCH  14  15
ENDBRANCH  13  14
ENDBRANCH   1  13
BRANCH   3  18
ATOM     18  C   UNL     1       4.585   3.624  17.724  0.00  0.00    +0.000 C 
BRANCH  18  19
ATOM     19  C   UNL     1       3.304   3.412  18.505  0.00  0.00    +0.000 A 
ATOM     20  C   UNL     1       2.050   3.305  17.858  0.00  0.00    +0.000 A 
ATOM     21  C   UNL     1       0.895   3.128  18.617  0.00  0.00    +0.000 A 
ATOM     22  C   UNL     1       0.982   3.035  20.005  0.00  0.00    +0.000 A 
ATOM     23  C   UNL     1       2.241   3.121  20.618  0.00  0.00    +0.000 A 
ATOM     24  N   UNL     1       3.354   3.313  19.860  0.00  0.00    +0.000 NA
BRANCH  23  25
ATOM     25  N   UNL     1       2.359   2.993  22.020  0.00  0.00    +0.000 N 
ATOM     26  H   UNL     1       1.599   3.302  22.646  0.00  0.00    +0.000 HD
ATOM     27  H   UNL     1       3.203   2.568  22.428  0.00  0.00    +0.000 HD
ENDBRANCH  23  25
ENDBRANCH  18  19
ENDBRANCH   3  18
TORSDOF 11
ENDMDL
MODEL 5
REMARK VINA RESULT:      -6.6      1.012      1.064
REMARK  Name = 
REMARK  11 active torsions:
REMARK  status: ('A' for Active; 'I' for Inactive)
REMARK    1  A    between atoms: N_1  and  C_2
REMARK    2  A    between atoms: C_2  and  C_3
REMARK    3  A    between atoms: C_3  and  N_4
REMARK    4  A    between atoms: C_6  and  C_7
REMARK    5  A    between atoms: C_7  and  C_8
REMARK    6  A    between atoms: C_12  and  N_13
REMARK    7  A    between atoms: C_15  and  N_16
REMARK    8  A    between atoms: N_16  and  C_17
REMARK    9  A    between atoms: C_17  and  C_18
REMARK   10  A    between atoms: C_18  and  C_19
REMARK   11  A    between atoms: C_19  and  O_20
REMARK                            x       y       z     vdW  Elec       q    Type
REMARK                         _______ _______ _______ _____ _____    ______ ____
ROOT
ATOM      1  N   UNL     1       7.169   5.750  16.612  0.00  0.00    +0.000 NA
ATOM      2  C   UNL     1       5.697   5.889  16.628  0.00  0.00    +0.000 C 
ATOM      3  C   UNL     1       5.106   4.800  15.716  0.00  0.00    +0.000 C 
ATOM      4  C   UNL     1       6.190   4.729  14.633  0.00  0.00    +0.000 C 
ATOM      5  C   UNL     1       7.491   5.021  15.371  0.00  0.00    +0.000 C 
ENDROOT
BRANCH   4   6
ATOM      6  N   UNL     1       6.307   3.455  13.893  0.00  0.00    +0.000 NA
ATOM      7  H   UNL     1       7.142   2.930  14.243  0.00  0.00    +0.000 HD
BRANCH   6   8
ATOM      8  C   UNL     1       6.387   3.542  12.430  0.00  0.00    +0.000 C 
BRANCH   8   9
ATOM      9  C   UNL     1       5.568   2.464  11.724  0.00  0.00    +0.000 C 
BRANCH   9  10
ATOM     10  C   UNL     1       6.503   1.445  11.070  0.00  0.00    +0.000 C 
BRANCH  10  11
ATOM     11  O   UNL     1       6.152   0.147  11.457  0.00  0.00    +0.000 OA
ATOM     12  H   UNL     1       5.550   0.242  12.242  0.00  0.00    +0.000 HD
ENDBRANCH  10  11
ENDBRANCH   9  10
ENDBRANCH   8   9
ENDBRANCH   6   8
ENDBRANCH   4   6
BRANCH   1  13
ATOM     13  C   UNL     1       7.726   5.086  17.817  0.00  0.00    +0.000 C 
BRANCH  13  14
ATOM     14  C   UNL     1       7.641   5.986  19.072  0.00  0.00    +0.000 C 
BRANCH  14  15
ATOM     15  N   UNL     1       8.145   5.292  20.252  0.00  0.00    +0.000 NA
ATOM     16  H   UNL     1       8.514   4.359  19.956  0.00  0.00    +0.000 HD
ATOM     17  H   UNL     1       7.348   5.125  20.907  0.00  0.00    +0.000 HD
ENDBRANCH  14  15
ENDBRANCH  13  14
ENDBRANCH   1  13
BRANCH   3  18
ATOM     18  C   UNL     1       4.758   3.502  16.494  0.00  0.00    +0.000 C 
BRANCH  18  19
ATOM     19  C   UNL     1       3.518   3.691  17.343  0.00  0.00    +0.000 A 
ATOM     20  C   UNL     1       3.098   4.975  17.767  0.00  0.00    +0.000 A 
ATOM     21  C   UNL     1       1.961   5.101  18.562  0.00  0.00    +0.000 A 
ATOM     22  C   UNL     1       1.232   3.968  18.918  0.00  0.00    +0.000 A 
ATOM     23  C   UNL     1       1.658   2.711  18.465  0.00  0.00    +0.000 A 
ATOM     24  N   UNL     1       2.781   2.608  17.705  0.00  0.00    +0.000 NA
BRANCH  23  25
ATOM     25  N   UNL     1       0.914   1.553  18.782  0.00  0.00    +0.000 N 
ATOM     26  H   UNL     1       1.122   0.649  18.329  0.00  0.00    +0.000 HD
ATOM     27  H   UNL     1       0.166   1.599  19.487  0.00  0.00    +0.000 HD
ENDBRANCH  23  25
ENDBRANCH  18  19
ENDBRANCH   3  18
TORSDOF 11
ENDMDL
MODEL 6
REMARK VINA RESULT:      -6.5      1.840      2.038
REMARK  Name = 
REMARK  11 active torsions:
REMARK  status: ('A' for Active; 'I' for Inactive)
REMARK    1  A    between atoms: N_1  and  C_2
REMARK    2  A    between atoms: C_2  and  C_3
REMARK    3  A    between atoms: C_3  and  N_4
REMARK    4  A    between atoms: C_6  and  C_7
REMARK    5  A    between atoms: C_7  and  C_8
REMARK    6  A    between atoms: C_12  and  N_13
REMARK    7  A    between atoms: C_15  and  N_16
REMARK    8  A    between atoms: N_16  and  C_17
REMARK    9  A    between atoms: C_17  and  C_18
REMARK   10  A    between atoms: C_18  and  C_19
REMARK   11  A    between atoms: C_19  and  O_20
REMARK                            x       y       z     vdW  Elec       q    Type
REMARK                         _______ _______ _______ _____ _____    ______ ____
ROOT
ATOM      1  N   UNL     1       5.641   6.067  18.112  0.00  0.00    +0.000 NA
ATOM      2  C   UNL     1       4.196   5.783  17.979  0.00  0.00    +0.000 C 
ATOM      3  C   UNL     1       4.025   4.658  16.943  0.00  0.00    +0.000 C 
ATOM      4  C   UNL     1       5.171   4.996  15.980  0.00  0.00    +0.000 C 
ATOM      5  C   UNL     1       6.264   5.575  16.870  0.00  0.00    +0.000 C 
ENDROOT
BRANCH   4   6
ATOM      6  N   UNL     1       5.714   3.880  15.177  0.00  0.00    +0.000 NA
ATOM      7  H   UNL     1       6.000   3.103  15.818  0.00  0.00    +0.000 HD
BRANCH   6   8
ATOM      8  C   UNL     1       6.838   4.188  14.286  0.00  0.00    +0.000 C 
BRANCH   8   9
ATOM      9  C   UNL     1       6.537   3.881  12.820  0.00  0.00    +0.000 C 
BRANCH   9  10
ATOM     10  C   UNL     1       7.424   4.739  11.916  0.00  0.00    +0.000 C 
BRANCH  10  11
ATOM     11  O   UNL     1       8.116   5.689  12.676  0.00  0.00    +0.000 OA
ATOM     12  H   UNL     1       8.526   6.321  12.028  0.00  0.00    +0.000 HD
ENDBRANCH  10  11
ENDBRANCH   9  10
ENDBRANCH   8   9
ENDBRANCH   6   8
ENDBRANCH   4   6
BRANCH   1  13
ATOM     13  C   UNL     1       6.263   5.480  19.326  0.00  0.00    +0.000 C 
BRANCH  13  14
ATOM     14  C   UNL     1       7.791   5.718  19.371  0.00  0.00    +0.000 C 
BRANCH  14  15
ATOM     15  N   UNL     1       8.359   5.245  20.629  0.00  0.00    +0.000 NA
ATOM     16  H   UNL     1       9.124   4.565  20.413  0.00  0.00    +0.000 HD
ATOM     17  H   UNL     1       7.619   4.731  21.158  0.00  0.00    +0.000 HD
ENDBRANCH  14  15
ENDBRANCH  13  14
ENDBRANCH   1  13
BRANCH   3  18
ATOM     18  C   UNL     1       4.005   3.249  17.595  0.00  0.00    +0.000 C 
BRANCH  18  19
ATOM     19  C   UNL     1       2.841   3.111  18.554  0.00  0.00    +0.000 A 
ATOM     20  C   UNL     1       1.504   3.034  18.094  0.00  0.00    +0.000 A 
ATOM     21  C   UNL     1       0.463   2.925  19.013  0.00  0.00    +0.000 A 
ATOM     22  C   UNL     1       0.742   2.870  20.377  0.00  0.00    +0.000 A 
ATOM     23  C   UNL     1       2.077   2.925  20.804  0.00  0.00    +0.000 A 
ATOM     24  N   UNL     1       3.078   3.051  19.892  0.00  0.00    +0.000 NA
BRANCH  23  25
ATOM     25  N   UNL     1       2.387   2.834  22.179  0.00  0.00    +0.000 N 
ATOM     26  H   UNL     1       2.443   1.918  22.650  0.00  0.00    +0.000 HD
ATOM     27  H   UNL     1       2.579   3.688  22.721  0.00  0.00    +0.000 HD
ENDBRANCH  23  25
ENDBRANCH  18  19
ENDBRANCH   3  18
TORSDOF 11
ENDMDL
MODEL 7
REMARK VINA RESULT:      -6.5      4.177      6.256
REMARK  Name = 
REMARK  11 active torsions:
REMARK  status: ('A' for Active; 'I' for Inactive)
REMARK    1  A    between atoms: N_1  and  C_2
REMARK    2  A    between atoms: C_2  and  C_3
REMARK    3  A    between atoms: C_3  and  N_4
REMARK    4  A    between atoms: C_6  and  C_7
REMARK    5  A    between atoms: C_7  and  C_8
REMARK    6  A    between atoms: C_12  and  N_13
REMARK    7  A    between atoms: C_15  and  N_16
REMARK    8  A    between atoms: N_16  and  C_17
REMARK    9  A    between atoms: C_17  and  C_18
REMARK   10  A    between atoms: C_18  and  C_19
REMARK   11  A    between atoms: C_19  and  O_20
REMARK                            x       y       z     vdW  Elec       q    Type
REMARK                         _______ _______ _______ _____ _____    ______ ____
ROOT
ATOM      1  N   UNL     1       4.622   3.704  17.140  0.00  0.00    +0.000 NA
ATOM      2  C   UNL     1       3.457   4.469  16.648  0.00  0.00    +0.000 C 
ATOM      3  C   UNL     1       2.917   5.316  17.813  0.00  0.00    +0.000 C 
ATOM      4  C   UNL     1       3.192   4.372  18.990  0.00  0.00    +0.000 C 
ATOM      5  C   UNL     1       4.472   3.640  18.606  0.00  0.00    +0.000 C 
ENDROOT
BRANCH   4   6
ATOM      6  N   UNL     1       3.351   4.998  20.320  0.00  0.00    +0.000 NA
ATOM      7  H   UNL     1       4.226   4.637  20.767  0.00  0.00    +0.000 HD
BRANCH   6   8
ATOM      8  C   UNL     1       2.241   4.837  21.267  0.00  0.00    +0.000 C 
BRANCH   8   9
ATOM      9  C   UNL     1       1.242   3.765  20.837  0.00  0.00    +0.000 C 
BRANCH   9  10
ATOM     10  C   UNL     1       1.496   2.475  21.618  0.00  0.00    +0.000 C 
BRANCH  10  11
ATOM     11  O   UNL     1       2.851   2.370  21.955  0.00  0.00    +0.000 OA
ATOM     12  H   UNL     1       2.936   1.561  22.525  0.00  0.00    +0.000 HD
ENDBRANCH  10  11
ENDBRANCH   9  10
ENDBRANCH   8   9
ENDBRANCH   6   8
ENDBRANCH   4   6
BRANCH   1  13
ATOM     13  C   UNL     1       5.932   4.269  16.732  0.00  0.00    +0.000 C 
BRANCH  13  14
ATOM     14  C   UNL     1       6.817   4.630  17.948  0.00  0.00    +0.000 C 
BRANCH  14  15
ATOM     15  N   UNL     1       8.188   4.169  17.758  0.00  0.00    +0.000 NA
ATOM     16  H   UNL     1       8.254   3.700  16.825  0.00  0.00    +0.000 HD
ATOM     17  H   UNL     1       8.404   3.453  18.488  0.00  0.00    +0.000 HD
ENDBRANCH  14  15
ENDBRANCH  13  14
ENDBRANCH   1  13
BRANCH   3  18
ATOM     18  C   UNL     1       3.540   6.738  17.850  0.00  0.00    +0.000 C 
BRANCH  18  19
ATOM     19  C   UNL     1       2.553   7.751  18.393  0.00  0.00    +0.000 A 
ATOM     20  C   UNL     1       1.996   8.759  17.571  0.00  0.00    +0.000 A 
ATOM     21  C   UNL     1       1.105   9.681  18.116  0.00  0.00    +0.000 A 
ATOM     22  C   UNL     1       0.752   9.594  19.462  0.00  0.00    +0.000 A 
ATOM     23  C   UNL     1       1.301   8.571  20.248  0.00  0.00    +0.000 A 
ATOM     24  N   UNL     1       2.183   7.693  19.700  0.00  0.00    +0.000 NA
BRANCH  23  25
ATOM     25  N   UNL     1       0.929   8.440  21.604  0.00  0.00    +0.000 N 
ATOM     26  H   UNL     1       0.407   9.189  22.085  0.00  0.00    +0.000 HD
ATOM     27  H   UNL     1       1.163   7.581  22.121  0.00  0.00    +0.000 HD
ENDBRANCH  23  25
ENDBRANCH  18  19
ENDBRANCH   3  18
TORSDOF 11
ENDMDL
MODEL 8
REMARK VINA RESULT:      -6.5      3.570      5.398
REMARK  Name = 
REMARK  11 active torsions:
REMARK  status: ('A' for Active; 'I' for Inactive)
REMARK    1  A    between atoms: N_1  and  C_2
REMARK    2  A    between atoms: C_2  and  C_3
REMARK    3  A    between atoms: C_3  and  N_4
REMARK    4  A    between atoms: C_6  and  C_7
REMARK    5  A    between atoms: C_7  and  C_8
REMARK    6  A    between atoms: C_12  and  N_13
REMARK    7  A    between atoms: C_15  and  N_16
REMARK    8  A    between atoms: N_16  and  C_17
REMARK    9  A    between atoms: C_17  and  C_18
REMARK   10  A    between atoms: C_18  and  C_19
REMARK   11  A    between atoms: C_19  and  O_20
REMARK                            x       y       z     vdW  Elec       q    Type
REMARK                         _______ _______ _______ _____ _____    ______ ____
ROOT
ATOM      1  N   UNL     1       6.982   5.494  16.853  0.00  0.00    +0.000 NA
ATOM      2  C   UNL     1       6.760   4.792  18.135  0.00  0.00    +0.000 C 
ATOM      3  C   UNL     1       5.251   4.814  18.435  0.00  0.00    +0.000 C 
ATOM      4  C   UNL     1       4.874   6.182  17.853  0.00  0.00    +0.000 C 
ATOM      5  C   UNL     1       5.807   6.364  16.661  0.00  0.00    +0.000 C 
ENDROOT
BRANCH   4   6
ATOM      6  N   UNL     1       3.471   6.359  17.425  0.00  0.00    +0.000 NA
ATOM      7  H   UNL     1       3.454   6.756  16.456  0.00  0.00    +0.000 HD
BRANCH   6   8
ATOM      8  C   UNL     1       2.613   7.184  18.283  0.00  0.00    +0.000 C 
BRANCH   8   9
ATOM      9  C   UNL     1       2.365   8.578  17.712  0.00  0.00    +0.000 C 
BRANCH   9  10
ATOM     10  C   UNL     1       1.377   9.336  18.600  0.00  0.00    +0.000 C 
BRANCH  10  11
ATOM     11  O   UNL     1       0.964  10.515  17.970  0.00  0.00    +0.000 OA
ATOM     12  H   UNL     1       1.390  11.263  18.467  0.00  0.00    +0.000 HD
ENDBRANCH  10  11
ENDBRANCH   9  10
ENDBRANCH   8   9
ENDBRANCH   6   8
ENDBRANCH   4   6
BRANCH   1  13
ATOM     13  C   UNL     1       7.207   4.587  15.699  0.00  0.00    +0.000 C 
BRANCH  13  14
ATOM     14  C   UNL     1       6.042   4.636  14.682  0.00  0.00    +0.000 C 
BRANCH  14  15
ATOM     15  N   UNL     1       6.215   3.635  13.635  0.00  0.00    +0.000 NA
ATOM     16  H   UNL     1       6.327   4.129  12.719  0.00  0.00    +0.000 HD
ATOM     17  H   UNL     1       5.347   3.056  13.579  0.00  0.00    +0.000 HD
ENDBRANCH  14  15
ENDBRANCH  13  14
ENDBRANCH   1  13
BRANCH   3  18
ATOM     18  C   UNL     1       4.520   3.557  17.889  0.00  0.00    +0.000 C 
BRANCH  18  19
ATOM     19  C   UNL     1       3.239   3.297  18.654  0.00  0.00    +0.000 A 
ATOM     20  C   UNL     1       2.026   2.997  17.989  0.00  0.00    +0.000 A 
ATOM     21  C   UNL     1       0.867   2.781  18.732  0.00  0.00    +0.000 A 
ATOM     22  C   UNL     1       0.912   2.842  20.124  0.00  0.00    +0.000 A 
ATOM     23  C   UNL     1       2.133   3.119  20.757  0.00  0.00    +0.000 A 
ATOM     24  N   UNL     1       3.248   3.344  20.013  0.00  0.00    +0.000 NA
BRANCH  23  25
ATOM     25  N   UNL     1       2.211   3.148  22.167  0.00  0.00    +0.000 N 
ATOM     26  H   UNL     1       2.948   2.628  22.668  0.00  0.00    +0.000 HD
ATOM     27  H   UNL     1       1.538   3.709  22.707  0.00  0.00    +0.000 HD
ENDBRANCH  23  25
ENDBRANCH  18  19
ENDBRANCH   3  18
TORSDOF 11
ENDMDL
MODEL 9
REMARK VINA RESULT:      -6.4      3.852      6.963
REMARK  Name = 
REMARK  11 active torsions:
REMARK  status: ('A' for Active; 'I' for Inactive)
REMARK    1  A    between atoms: N_1  and  C_2
REMARK    2  A    between atoms: C_2  and  C_3
REMARK    3  A    between atoms: C_3  and  N_4
REMARK    4  A    between atoms: C_6  and  C_7
REMARK    5  A    between atoms: C_7  and  C_8
REMARK    6  A    between atoms: C_12  and  N_13
REMARK    7  A    between atoms: C_15  and  N_16
REMARK    8  A    between atoms: N_16  and  C_17
REMARK    9  A    between atoms: C_17  and  C_18
REMARK   10  A    between atoms: C_18  and  C_19
REMARK   11  A    between atoms: C_19  and  O_20
REMARK                            x       y       z     vdW  Elec       q    Type
REMARK                         _______ _______ _______ _____ _____    ______ ____
ROOT
ATOM      1  N   UNL     1       1.304   2.849  18.678  0.00  0.00    +0.000 NA
ATOM      2  C   UNL     1       2.303   2.681  17.602  0.00  0.00    +0.000 C 
ATOM      3  C   UNL     1       3.258   3.887  17.645  0.00  0.00    +0.000 C 
ATOM      4  C   UNL     1       2.285   4.992  18.077  0.00  0.00    +0.000 C 
ATOM      5  C   UNL     1       1.286   4.290  18.989  0.00  0.00    +0.000 C 
ENDROOT
BRANCH   4   6
ATOM      6  N   UNL     1       2.870   6.157  18.774  0.00  0.00    +0.000 NA
ATOM      7  H   UNL     1       2.443   6.238  19.726  0.00  0.00    +0.000 HD
BRANCH   6   8
ATOM      8  C   UNL     1       2.763   7.456  18.101  0.00  0.00    +0.000 C 
BRANCH   8   9
ATOM      9  C   UNL     1       1.904   8.456  18.872  0.00  0.00    +0.000 C 
BRANCH   9  10
ATOM     10  C   UNL     1       1.181   9.384  17.894  0.00  0.00    +0.000 C 
BRANCH  10  11
ATOM     11  O   UNL     1       2.046  10.392  17.453  0.00  0.00    +0.000 OA
ATOM     12  H   UNL     1       1.815  11.206  17.974  0.00  0.00    +0.000 HD
ENDBRANCH  10  11
ENDBRANCH   9  10
ENDBRANCH   8   9
ENDBRANCH   6   8
ENDBRANCH   4   6
BRANCH   1  13
ATOM     13  C   UNL     1       1.563   2.016  19.879  0.00  0.00    +0.000 C 
BRANCH  13  14
ATOM     14  C   UNL     1       1.349   2.804  21.193  0.00  0.00    +0.000 C 
BRANCH  14  15
ATOM     15  N   UNL     1       2.522   2.716  22.056  0.00  0.00    +0.000 NA
ATOM     16  H   UNL     1       3.108   3.570  21.908  0.00  0.00    +0.000 HD
ATOM     17  H   UNL     1       3.089   1.888  21.765  0.00  0.00    +0.000 HD
ENDBRANCH  14  15
ENDBRANCH  13  14
ENDBRANCH   1  13
BRANCH   3  18
ATOM     18  C   UNL     1       4.507   3.622  18.528  0.00  0.00    +0.000 C 
BRANCH  18  19
ATOM     19  C   UNL     1       5.644   4.551  18.156  0.00  0.00    +0.000 A 
ATOM     20  C   UNL     1       6.326   5.317  19.131  0.00  0.00    +0.000 A 
ATOM     21  C   UNL     1       7.355   6.172  18.741  0.00  0.00    +0.000 A 
ATOM     22  C   UNL     1       7.720   6.254  17.399  0.00  0.00    +0.000 A 
ATOM     23  C   UNL     1       7.043   5.466  16.457  0.00  0.00    +0.000 A 
ATOM     24  N   UNL     1       6.029   4.652  16.856  0.00  0.00    +0.000 NA
BRANCH  23  25
ATOM     25  N   UNL     1       7.420   5.504  15.097  0.00  0.00    +0.000 N 
ATOM     26  H   UNL     1       8.149   6.156  14.766  0.00  0.00    +0.000 HD
ATOM     27  H   UNL     1       6.981   4.862  14.423  0.00  0.00    +0.000 HD
ENDBRANCH  23  25
ENDBRANCH  18  19
ENDBRANCH   3  18
TORSDOF 11
ENDMDL
