MODEL 1
REMARK VINA RESULT:      -8.1      0.000      0.000
REMARK  Name = 
REMARK  7 active torsions:
REMARK  status: ('A' for Active; 'I' for Inactive)
REMARK    1  A    between atoms: C_1  and  N_2
REMARK    2  A    between atoms: N_2  and  C_3
REMARK    3  A    between atoms: C_3  and  C_4
REMARK    4  A    between atoms: N_6  and  S_7
REMARK    5  A    between atoms: S_7  and  C_10
REMARK    6  A    between atoms: C_15  and  C_16
REMARK    7  A    between atoms: C_17  and  C_18
REMARK                            x       y       z     vdW  Elec       q    Type
REMARK                         _______ _______ _______ _____ _____    ______ ____
ROOT
ATOM      1  C   UNL     1       5.870   4.884  16.712  0.00  0.00    +0.000 A 
ATOM      2  C   UNL     1       4.860   3.948  16.775  0.00  0.00    +0.000 A 
ATOM      3  N   UNL     1       3.751   4.530  17.356  0.00  0.00    +0.000 N 
ATOM      4  C   UNL     1       3.999   5.861  17.695  0.00  0.00    +0.000 A 
ATOM      5  C   UNL     1       5.322   6.043  17.305  0.00  0.00    +0.000 A 
ATOM      6  F   UNL     1       5.995   7.149  17.459  0.00  0.00    +0.000 F 
ENDROOT
BRANCH   4   7
ATOM      7  C   UNL     1       3.081   6.889  18.241  0.00  0.00    +0.000 A 
ATOM      8  C   UNL     1       2.535   7.922  17.477  0.00  0.00    +0.000 A 
ATOM      9  C   UNL     1       1.730   8.905  18.058  0.00  0.00    +0.000 A 
ATOM     10  C   UNL     1       1.411   8.789  19.394  0.00  0.00    +0.000 A 
ATOM     11  N   UNL     1       1.850   7.782  20.168  0.00  0.00    +0.000 NA
ATOM     12  C   UNL     1       2.670   6.871  19.585  0.00  0.00    +0.000 A 
ATOM     13  F   UNL     1       3.114   5.903  20.403  0.00  0.00    +0.000 F 
ENDBRANCH   4   7
BRANCH   3  14
ATOM     14  S   UNL     1       2.311   3.611  17.576  0.00  0.00    +0.000 S 
ATOM     15  O   UNL     1       1.217   4.516  17.266  0.00  0.00    +0.000 OA
ATOM     16  O   UNL     1       2.516   2.410  16.794  0.00  0.00    +0.000 OA
BRANCH  14  17
ATOM     17  C   UNL     1       2.196   3.257  19.293  0.00  0.00    +0.000 A 
ATOM     18  C   UNL     1       0.979   3.537  19.905  0.00  0.00    +0.000 A 
ATOM     19  N   UNL     1       0.713   3.270  21.200  0.00  0.00    +0.000 NA
ATOM     20  C   UNL     1       1.691   2.673  21.908  0.00  0.00    +0.000 A 
ATOM     21  C   UNL     1       2.935   2.349  21.385  0.00  0.00    +0.000 A 
ATOM     22  C   UNL     1       3.207   2.639  20.039  0.00  0.00    +0.000 A 
ATOM     23  C   UNL     1       4.558   2.270  19.492  0.00  0.00    +0.000 C 
ENDBRANCH  14  17
ENDBRANCH   3  14
BRANCH   1  24
ATOM     24  C   UNL     1       7.257   4.719  16.182  0.00  0.00    +0.000 C 
BRANCH  24  26
ATOM     25  C   UNL     1       6.974   4.711  13.798  0.00  0.00    +0.000 C 
ATOM     26  N   UNL     1       7.395   5.499  14.951  0.00  0.00    +0.000 NA
ATOM     27  H   UNL     1       6.809   6.330  15.012  0.00  0.00    +0.000 HD
ENDBRANCH  24  26
ENDBRANCH   1  24
TORSDOF 5
ENDMDL
MODEL 2
REMARK VINA RESULT:      -8.0      1.122      1.596
REMARK  Name = 
REMARK  7 active torsions:
REMARK  status: ('A' for Active; 'I' for Inactive)
REMARK    1  A    between atoms: C_1  and  N_2
REMARK    2  A    between atoms: N_2  and  C_3
REMARK    3  A    between atoms: C_3  and  C_4
REMARK    4  A    between atoms: N_6  and  S_7
REMARK    5  A    between atoms: S_7  and  C_10
REMARK    6  A    between atoms: C_15  and  C_16
REMARK    7  A    between atoms: C_17  and  C_18
REMARK                            x       y       z     vdW  Elec       q    Type
REMARK                         _______ _______ _______ _____ _____    ______ ____
ROOT
ATOM      1  C   UNL     1       5.502   5.338  16.456  0.00  0.00    +0.000 A 
ATOM      2  C   UNL     1       4.562   4.330  16.495  0.00  0.00    +0.000 A 
ATOM      3  N   UNL     1       3.526   4.721  17.319  0.00  0.00    +0.000 N 
ATOM      4  C   UNL     1       3.755   5.992  17.849  0.00  0.00    +0.000 A 
ATOM      5  C   UNL     1       4.994   6.336  17.315  0.00  0.00    +0.000 A 
ATOM      6  F   UNL     1       5.625   7.450  17.565  0.00  0.00    +0.000 F 
ENDROOT
BRANCH   4   7
ATOM      7  C   UNL     1       2.881   6.842  18.692  0.00  0.00    +0.000 A 
ATOM      8  C   UNL     1       2.540   6.532  20.009  0.00  0.00    +0.000 A 
ATOM      9  C   UNL     1       1.656   7.333  20.737  0.00  0.00    +0.000 A 
ATOM     10  C   UNL     1       1.189   8.493  20.155  0.00  0.00    +0.000 A 
ATOM     11  N   UNL     1       1.533   8.882  18.917  0.00  0.00    +0.000 NA
ATOM     12  C   UNL     1       2.354   8.056  18.218  0.00  0.00    +0.000 A 
ATOM     13  F   UNL     1       2.643   8.465  16.972  0.00  0.00    +0.000 F 
ENDBRANCH   4   7
BRANCH   3  14
ATOM     14  S   UNL     1       2.184   3.672  17.575  0.00  0.00    +0.000 S 
ATOM     15  O   UNL     1       1.003   4.476  17.314  0.00  0.00    +0.000 OA
ATOM     16  O   UNL     1       2.472   2.503  16.771  0.00  0.00    +0.000 OA
BRANCH  14  17
ATOM     17  C   UNL     1       2.162   3.292  19.290  0.00  0.00    +0.000 A 
ATOM     18  C   UNL     1       0.923   3.335  19.920  0.00  0.00    +0.000 A 
ATOM     19  N   UNL     1       0.730   3.014  21.216  0.00  0.00    +0.000 NA
ATOM     20  C   UNL     1       1.811   2.606  21.906  0.00  0.00    +0.000 A 
ATOM     21  C   UNL     1       3.086   2.523  21.364  0.00  0.00    +0.000 A 
ATOM     22  C   UNL     1       3.281   2.868  20.018  0.00  0.00    +0.000 A 
ATOM     23  C   UNL     1       4.669   2.761  19.451  0.00  0.00    +0.000 C 
ENDBRANCH  14  17
ENDBRANCH   3  14
BRANCH   1  24
ATOM     24  C   UNL     1       6.799   5.369  15.715  0.00  0.00    +0.000 C 
BRANCH  24  26
ATOM     25  C   UNL     1       7.765   4.624  17.782  0.00  0.00    +0.000 C 
ATOM     26  N   UNL     1       7.729   4.425  16.338  0.00  0.00    +0.000 NA
ATOM     27  H   UNL     1       7.421   3.473  16.145  0.00  0.00    +0.000 HD
ENDBRANCH  24  26
ENDBRANCH   1  24
TORSDOF 5
ENDMDL
MODEL 3
REMARK VINA RESULT:      -7.9      0.991      1.307
REMARK  Name = 
REMARK  7 active torsions:
REMARK  status: ('A' for Active; 'I' for Inactive)
REMARK    1  A    between atoms: C_1  and  N_2
REMARK    2  A    between atoms: N_2  and  C_3
REMARK    3  A    between atoms: C_3  and  C_4
REMARK    4  A    between atoms: N_6  and  S_7
REMARK    5  A    between atoms: S_7  and  C_10
REMARK    6  A    between atoms: C_15  and  C_16
REMARK    7  A    between atoms: C_17  and  C_18
REMARK                            x       y       z     vdW  Elec       q    Type
REMARK                         _______ _______ _______ _____ _____    ______ ____
ROOT
ATOM      1  C   UNL     1       5.697   4.865  16.532  0.00  0.00    +0.000 A 
ATOM      2  C   UNL     1       4.701   3.913  16.587  0.00  0.00    +0.000 A 
ATOM      3  N   UNL     1       3.661   4.403  17.351  0.00  0.00    +0.000 N 
ATOM      4  C   UNL     1       3.942   5.686  17.822  0.00  0.00    +0.000 A 
ATOM      5  C   UNL     1       5.215   5.934  17.318  0.00  0.00    +0.000 A 
ATOM      6  F   UNL     1       5.899   7.023  17.535  0.00  0.00    +0.000 F 
ENDROOT
BRANCH   4   7
ATOM      7  C   UNL     1       3.088   6.626  18.587  0.00  0.00    +0.000 A 
ATOM      8  C   UNL     1       2.690   6.410  19.907  0.00  0.00    +0.000 A 
ATOM      9  C   UNL     1       1.827   7.294  20.558  0.00  0.00    +0.000 A 
ATOM     10  C   UNL     1       1.440   8.441  19.897  0.00  0.00    +0.000 A 
ATOM     11  N   UNL     1       1.842   8.741  18.652  0.00  0.00    +0.000 NA
ATOM     12  C   UNL     1       2.640   7.836  18.028  0.00  0.00    +0.000 A 
ATOM     13  F   UNL     1       2.989   8.158  16.772  0.00  0.00    +0.000 F 
ENDBRANCH   4   7
BRANCH   3  14
ATOM     14  S   UNL     1       2.254   3.443  17.609  0.00  0.00    +0.000 S 
ATOM     15  O   UNL     1       1.129   4.299  17.275  0.00  0.00    +0.000 OA
ATOM     16  O   UNL     1       2.498   2.225  16.866  0.00  0.00    +0.000 OA
BRANCH  14  17
ATOM     17  C   UNL     1       2.160   3.143  19.337  0.00  0.00    +0.000 A 
ATOM     18  C   UNL     1       0.911   3.303  19.928  0.00  0.00    +0.000 A 
ATOM     19  N   UNL     1       0.661   3.055  21.231  0.00  0.00    +0.000 NA
ATOM     20  C   UNL     1       1.692   2.602  21.969  0.00  0.00    +0.000 A 
ATOM     21  C   UNL     1       2.972   2.405  21.468  0.00  0.00    +0.000 A 
ATOM     22  C   UNL     1       3.226   2.674  20.115  0.00  0.00    +0.000 A 
ATOM     23  C   UNL     1       4.617   2.443  19.594  0.00  0.00    +0.000 C 
ENDBRANCH  14  17
ENDBRANCH   3  14
BRANCH   1  24
ATOM     24  C   UNL     1       7.019   4.786  15.840  0.00  0.00    +0.000 C 
BRANCH  24  26
ATOM     25  C   UNL     1       6.545   4.129  13.580  0.00  0.00    +0.000 C 
ATOM     26  N   UNL     1       6.864   5.248  14.459  0.00  0.00    +0.000 NA
ATOM     27  H   UNL     1       6.106   5.927  14.415  0.00  0.00    +0.000 HD
ENDBRANCH  24  26
ENDBRANCH   1  24
TORSDOF 5
ENDMDL
MODEL 4
REMARK VINA RESULT:      -7.7      1.723      4.798
REMARK  Name = 
REMARK  7 active torsions:
REMARK  status: ('A' for Active; 'I' for Inactive)
REMARK    1  A    between atoms: C_1  and  N_2
REMARK    2  A    between atoms: N_2  and  C_3
REMARK    3  A    between atoms: C_3  and  C_4
REMARK    4  A    between atoms: N_6  and  S_7
REMARK    5  A    between atoms: S_7  and  C_10
REMARK    6  A    between atoms: C_15  and  C_16
REMARK    7  A    between atoms: C_17  and  C_18
REMARK                            x       y       z     vdW  Elec       q    Type
REMARK                         _______ _______ _______ _____ _____    ______ ____
ROOT
ATOM      1  C   UNL     1       3.143   7.196  18.301  0.00  0.00    +0.000 A 
ATOM      2  C   UNL     1       3.243   5.971  18.927  0.00  0.00    +0.000 A 
ATOM      3  N   UNL     1       4.028   5.140  18.152  0.00  0.00    +0.000 N 
ATOM      4  C   UNL     1       4.462   5.790  16.995  0.00  0.00    +0.000 A 
ATOM      5  C   UNL     1       3.880   7.050  17.106  0.00  0.00    +0.000 A 
ATOM      6  F   UNL     1       3.994   7.999  16.219  0.00  0.00    +0.000 F 
ENDROOT
BRANCH   4   7
ATOM      7  C   UNL     1       5.391   5.328  15.937  0.00  0.00    +0.000 A 
ATOM      8  C   UNL     1       4.999   4.541  14.854  0.00  0.00    +0.000 A 
ATOM      9  C   UNL     1       5.929   4.074  13.922  0.00  0.00    +0.000 A 
ATOM     10  C   UNL     1       7.241   4.480  14.044  0.00  0.00    +0.000 A 
ATOM     11  N   UNL     1       7.670   5.291  15.024  0.00  0.00    +0.000 NA
ATOM     12  C   UNL     1       6.751   5.686  15.942  0.00  0.00    +0.000 A 
ATOM     13  F   UNL     1       7.230   6.466  16.925  0.00  0.00    +0.000 F 
ENDBRANCH   4   7
BRANCH   3  14
ATOM     14  S   UNL     1       4.347   3.529  18.668  0.00  0.00    +0.000 S 
ATOM     15  O   UNL     1       4.174   2.698  17.488  0.00  0.00    +0.000 OA
ATOM     16  O   UNL     1       5.629   3.602  19.335  0.00  0.00    +0.000 OA
BRANCH  14  17
ATOM     17  C   UNL     1       3.059   3.092  19.781  0.00  0.00    +0.000 A 
ATOM     18  C   UNL     1       3.438   2.816  21.090  0.00  0.00    +0.000 A 
ATOM     19  N   UNL     1       2.564   2.523  22.076  0.00  0.00    +0.000 NA
ATOM     20  C   UNL     1       1.258   2.532  21.750  0.00  0.00    +0.000 A 
ATOM     21  C   UNL     1       0.783   2.801  20.474  0.00  0.00    +0.000 A 
ATOM     22  C   UNL     1       1.698   3.096  19.452  0.00  0.00    +0.000 A 
ATOM     23  C   UNL     1       1.159   3.393  18.080  0.00  0.00    +0.000 C 
ENDBRANCH  14  17
ENDBRANCH   3  14
BRANCH   1  24
ATOM     24  C   UNL     1       2.388   8.407  18.746  0.00  0.00    +0.000 C 
BRANCH  24  26
ATOM     25  C   UNL     1       0.509   9.794  18.194  0.00  0.00    +0.000 C 
ATOM     26  N   UNL     1       1.454   8.803  17.692  0.00  0.00    +0.000 NA
ATOM     27  H   UNL     1       1.974   9.209  16.916  0.00  0.00    +0.000 HD
ENDBRANCH  24  26
ENDBRANCH   1  24
TORSDOF 5
ENDMDL
MODEL 5
REMARK VINA RESULT:      -7.5      0.742      1.378
REMARK  Name = 
REMARK  7 active torsions:
REMARK  status: ('A' for Active; 'I' for Inactive)
REMARK    1  A    between atoms: C_1  and  N_2
REMARK    2  A    between atoms: N_2  and  C_3
REMARK    3  A    between atoms: C_3  and  C_4
REMARK    4  A    between atoms: N_6  and  S_7
REMARK    5  A    between atoms: S_7  and  C_10
REMARK    6  A    between atoms: C_15  and  C_16
REMARK    7  A    between atoms: C_17  and  C_18
REMARK                            x       y       z     vdW  Elec       q    Type
REMARK                         _______ _______ _______ _____ _____    ______ ____
ROOT
ATOM      1  C   UNL     1       5.949   4.891  16.624  0.00  0.00    +0.000 A 
ATOM      2  C   UNL     1       4.957   3.937  16.706  0.00  0.00    +0.000 A 
ATOM      3  N   UNL     1       3.846   4.502  17.301  0.00  0.00    +0.000 N 
ATOM      4  C   UNL     1       4.076   5.839  17.630  0.00  0.00    +0.000 A 
ATOM      5  C   UNL     1       5.390   6.042  17.220  0.00  0.00    +0.000 A 
ATOM      6  F   UNL     1       6.046   7.161  17.360  0.00  0.00    +0.000 F 
ENDROOT
BRANCH   4   7
ATOM      7  C   UNL     1       3.149   6.854  18.186  0.00  0.00    +0.000 A 
ATOM      8  C   UNL     1       2.607   7.898  17.436  0.00  0.00    +0.000 A 
ATOM      9  C   UNL     1       1.792   8.868  18.026  0.00  0.00    +0.000 A 
ATOM     10  C   UNL     1       1.459   8.725  19.356  0.00  0.00    +0.000 A 
ATOM     11  N   UNL     1       1.893   7.706  20.116  0.00  0.00    +0.000 NA
ATOM     12  C   UNL     1       2.724   6.808  19.525  0.00  0.00    +0.000 A 
ATOM     13  F   UNL     1       3.162   5.827  20.330  0.00  0.00    +0.000 F 
ENDBRANCH   4   7
BRANCH   3  14
ATOM     14  S   UNL     1       2.426   3.559  17.546  0.00  0.00    +0.000 S 
ATOM     15  O   UNL     1       1.316   4.490  17.442  0.00  0.00    +0.000 OA
ATOM     16  O   UNL     1       2.551   2.456  16.618  0.00  0.00    +0.000 OA
BRANCH  14  17
ATOM     17  C   UNL     1       2.467   3.013  19.216  0.00  0.00    +0.000 A 
ATOM     18  C   UNL     1       3.716   2.686  19.732  0.00  0.00    +0.000 A 
ATOM     19  N   UNL     1       3.922   2.307  21.010  0.00  0.00    +0.000 NA
ATOM     20  C   UNL     1       2.843   2.278  21.815  0.00  0.00    +0.000 A 
ATOM     21  C   UNL     1       1.558   2.592  21.393  0.00  0.00    +0.000 A 
ATOM     22  C   UNL     1       1.350   2.977  20.060  0.00  0.00    +0.000 A 
ATOM     23  C   UNL     1      -0.048   3.322  19.630  0.00  0.00    +0.000 C 
ENDBRANCH  14  17
ENDBRANCH   3  14
BRANCH   1  24
ATOM     24  C   UNL     1       7.331   4.747  16.074  0.00  0.00    +0.000 C 
BRANCH  24  26
ATOM     25  C   UNL     1       6.713   4.547  13.763  0.00  0.00    +0.000 C 
ATOM     26  N   UNL     1       7.388   5.377  14.754  0.00  0.00    +0.000 NA
ATOM     27  H   UNL     1       6.925   6.284  14.794  0.00  0.00    +0.000 HD
ENDBRANCH  24  26
ENDBRANCH   1  24
TORSDOF 5
ENDMDL
MODEL 6
REMARK VINA RESULT:      -7.3      0.988      1.713
REMARK  Name = 
REMARK  7 active torsions:
REMARK  status: ('A' for Active; 'I' for Inactive)
REMARK    1  A    between atoms: C_1  and  N_2
REMARK    2  A    between atoms: N_2  and  C_3
REMARK    3  A    between atoms: C_3  and  C_4
REMARK    4  A    between atoms: N_6  and  S_7
REMARK    5  A    between atoms: S_7  and  C_10
REMARK    6  A    between atoms: C_15  and  C_16
REMARK    7  A    between atoms: C_17  and  C_18
REMARK                            x       y       z     vdW  Elec       q    Type
REMARK                         _______ _______ _______ _____ _____    ______ ____
ROOT
ATOM      1  C   UNL     1       5.794   5.180  16.573  0.00  0.00    +0.000 A 
ATOM      2  C   UNL     1       4.830   4.197  16.657  0.00  0.00    +0.000 A 
ATOM      3  N   UNL     1       3.722   4.716  17.297  0.00  0.00    +0.000 N 
ATOM      4  C   UNL     1       3.925   6.051  17.654  0.00  0.00    +0.000 A 
ATOM      5  C   UNL     1       5.222   6.300  17.214  0.00  0.00    +0.000 A 
ATOM      6  F   UNL     1       5.851   7.433  17.365  0.00  0.00    +0.000 F 
ENDROOT
BRANCH   4   7
ATOM      7  C   UNL     1       2.987   7.025  18.262  0.00  0.00    +0.000 A 
ATOM      8  C   UNL     1       2.426   8.095  17.564  0.00  0.00    +0.000 A 
ATOM      9  C   UNL     1       1.602   9.024  18.203  0.00  0.00    +0.000 A 
ATOM     10  C   UNL     1       1.279   8.815  19.527  0.00  0.00    +0.000 A 
ATOM     11  N   UNL     1       1.732   7.768  20.236  0.00  0.00    +0.000 NA
ATOM     12  C   UNL     1       2.571   6.911  19.600  0.00  0.00    +0.000 A 
ATOM     13  F   UNL     1       3.028   5.899  20.355  0.00  0.00    +0.000 F 
ENDBRANCH   4   7
BRANCH   3  14
ATOM     14  S   UNL     1       2.335   3.729  17.556  0.00  0.00    +0.000 S 
ATOM     15  O   UNL     1       1.199   4.633  17.522  0.00  0.00    +0.000 OA
ATOM     16  O   UNL     1       2.456   2.662  16.586  0.00  0.00    +0.000 OA
BRANCH  14  17
ATOM     17  C   UNL     1       2.447   3.127  19.203  0.00  0.00    +0.000 A 
ATOM     18  C   UNL     1       3.720   2.809  19.663  0.00  0.00    +0.000 A 
ATOM     19  N   UNL     1       3.979   2.391  20.919  0.00  0.00    +0.000 NA
ATOM     20  C   UNL     1       2.931   2.312  21.759  0.00  0.00    +0.000 A 
ATOM     21  C   UNL     1       1.626   2.612  21.395  0.00  0.00    +0.000 A 
ATOM     22  C   UNL     1       1.362   3.038  20.084  0.00  0.00    +0.000 A 
ATOM     23  C   UNL     1      -0.057   3.368  19.716  0.00  0.00    +0.000 C 
ENDBRANCH  14  17
ENDBRANCH   3  14
BRANCH   1  24
ATOM     24  C   UNL     1       7.163   5.088  15.981  0.00  0.00    +0.000 C 
BRANCH  24  26
ATOM     25  C   UNL     1       7.952   4.679  18.212  0.00  0.00    +0.000 C 
ATOM     26  N   UNL     1       7.992   4.226  16.826  0.00  0.00    +0.000 NA
ATOM     27  H   UNL     1       7.638   3.272  16.781  0.00  0.00    +0.000 HD
ENDBRANCH  24  26
ENDBRANCH   1  24
TORSDOF 5
ENDMDL
MODEL 7
REMARK VINA RESULT:      -7.2      1.239      1.895
REMARK  Name = 
REMARK  7 active torsions:
REMARK  status: ('A' for Active; 'I' for Inactive)
REMARK    1  A    between atoms: C_1  and  N_2
REMARK    2  A    between atoms: N_2  and  C_3
REMARK    3  A    between atoms: C_3  and  C_4
REMARK    4  A    between atoms: N_6  and  S_7
REMARK    5  A    between atoms: S_7  and  C_10
REMARK    6  A    between atoms: C_15  and  C_16
REMARK    7  A    between atoms: C_17  and  C_18
REMARK                            x       y       z     vdW  Elec       q    Type
REMARK                         _______ _______ _______ _____ _____    ______ ____
ROOT
ATOM      1  C   UNL     1       5.806   4.922  16.446  0.00  0.00    +0.000 A 
ATOM      2  C   UNL     1       4.836   3.944  16.505  0.00  0.00    +0.000 A 
ATOM      3  N   UNL     1       3.790   4.403  17.280  0.00  0.00    +0.000 N 
ATOM      4  C   UNL     1       4.041   5.691  17.755  0.00  0.00    +0.000 A 
ATOM      5  C   UNL     1       5.304   5.974  17.241  0.00  0.00    +0.000 A 
ATOM      6  F   UNL     1       5.961   7.080  17.457  0.00  0.00    +0.000 F 
ENDROOT
BRANCH   4   7
ATOM      7  C   UNL     1       3.169   6.605  18.531  0.00  0.00    +0.000 A 
ATOM      8  C   UNL     1       2.776   6.364  19.848  0.00  0.00    +0.000 A 
ATOM      9  C   UNL     1       1.896   7.224  20.510  0.00  0.00    +0.000 A 
ATOM     10  C   UNL     1       1.488   8.371  19.865  0.00  0.00    +0.000 A 
ATOM     11  N   UNL     1       1.884   8.695  18.623  0.00  0.00    +0.000 NA
ATOM     12  C   UNL     1       2.699   7.813  17.988  0.00  0.00    +0.000 A 
ATOM     13  F   UNL     1       3.042   8.158  16.736  0.00  0.00    +0.000 F 
ENDBRANCH   4   7
BRANCH   3  14
ATOM     14  S   UNL     1       2.411   3.406  17.545  0.00  0.00    +0.000 S 
ATOM     15  O   UNL     1       1.260   4.274  17.370  0.00  0.00    +0.000 OA
ATOM     16  O   UNL     1       2.610   2.263  16.679  0.00  0.00    +0.000 OA
BRANCH  14  17
ATOM     17  C   UNL     1       2.440   2.948  19.241  0.00  0.00    +0.000 A 
ATOM     18  C   UNL     1       3.687   2.661  19.786  0.00  0.00    +0.000 A 
ATOM     19  N   UNL     1       3.884   2.351  21.084  0.00  0.00    +0.000 NA
ATOM     20  C   UNL     1       2.797   2.354  21.879  0.00  0.00    +0.000 A 
ATOM     21  C   UNL     1       1.514   2.633  21.429  0.00  0.00    +0.000 A 
ATOM     22  C   UNL     1       1.316   2.945  20.076  0.00  0.00    +0.000 A 
ATOM     23  C   UNL     1      -0.082   3.253  19.615  0.00  0.00    +0.000 C 
ENDBRANCH  14  17
ENDBRANCH   3  14
BRANCH   1  24
ATOM     24  C   UNL     1       7.124   4.881  15.742  0.00  0.00    +0.000 C 
BRANCH  24  26
ATOM     25  C   UNL     1       6.583   4.124  13.529  0.00  0.00    +0.000 C 
ATOM     26  N   UNL     1       6.933   5.280  14.346  0.00  0.00    +0.000 NA
ATOM     27  H   UNL     1       6.177   5.961  14.292  0.00  0.00    +0.000 HD
ENDBRANCH  24  26
ENDBRANCH   1  24
TORSDOF 5
ENDMDL
MODEL 8
REMARK VINA RESULT:      -7.2      1.326      2.090
REMARK  Name = 
REMARK  7 active torsions:
REMARK  status: ('A' for Active; 'I' for Inactive)
REMARK    1  A    between atoms: C_1  and  N_2
REMARK    2  A    between atoms: N_2  and  C_3
REMARK    3  A    between atoms: C_3  and  C_4
REMARK    4  A    between atoms: N_6  and  S_7
REMARK    5  A    between atoms: S_7  and  C_10
REMARK    6  A    between atoms: C_15  and  C_16
REMARK    7  A    between atoms: C_17  and  C_18
REMARK                            x       y       z     vdW  Elec       q    Type
REMARK                         _______ _______ _______ _____ _____    ______ ____
ROOT
ATOM      1  C   UNL     1       5.582   5.244  16.371  0.00  0.00    +0.000 A 
ATOM      2  C   UNL     1       4.653   4.226  16.429  0.00  0.00    +0.000 A 
ATOM      3  N   UNL     1       3.626   4.610  17.267  0.00  0.00    +0.000 N 
ATOM      4  C   UNL     1       3.849   5.887  17.786  0.00  0.00    +0.000 A 
ATOM      5  C   UNL     1       5.075   6.241  17.232  0.00  0.00    +0.000 A 
ATOM      6  F   UNL     1       5.699   7.362  17.468  0.00  0.00    +0.000 F 
ENDROOT
BRANCH   4   7
ATOM      7  C   UNL     1       2.978   6.732  18.638  0.00  0.00    +0.000 A 
ATOM      8  C   UNL     1       2.628   6.405  19.949  0.00  0.00    +0.000 A 
ATOM      9  C   UNL     1       1.747   7.203  20.684  0.00  0.00    +0.000 A 
ATOM     10  C   UNL     1       1.293   8.375  20.117  0.00  0.00    +0.000 A 
ATOM     11  N   UNL     1       1.646   8.779  18.886  0.00  0.00    +0.000 NA
ATOM     12  C   UNL     1       2.463   7.957  18.179  0.00  0.00    +0.000 A 
ATOM     13  F   UNL     1       2.762   8.381  16.940  0.00  0.00    +0.000 F 
ENDBRANCH   4   7
BRANCH   3  14
ATOM     14  S   UNL     1       2.299   3.548  17.547  0.00  0.00    +0.000 S 
ATOM     15  O   UNL     1       1.109   4.377  17.464  0.00  0.00    +0.000 OA
ATOM     16  O   UNL     1       2.500   2.455  16.620  0.00  0.00    +0.000 OA
BRANCH  14  17
ATOM     17  C   UNL     1       2.424   3.016  19.217  0.00  0.00    +0.000 A 
ATOM     18  C   UNL     1       3.701   2.721  19.681  0.00  0.00    +0.000 A 
ATOM     19  N   UNL     1       3.971   2.356  20.951  0.00  0.00    +0.000 NA
ATOM     20  C   UNL     1       2.928   2.311  21.802  0.00  0.00    +0.000 A 
ATOM     21  C   UNL     1       1.620   2.594  21.435  0.00  0.00    +0.000 A 
ATOM     22  C   UNL     1       1.346   2.963  20.109  0.00  0.00    +0.000 A 
ATOM     23  C   UNL     1      -0.077   3.274  19.738  0.00  0.00    +0.000 C 
ENDBRANCH  14  17
ENDBRANCH   3  14
BRANCH   1  24
ATOM     24  C   UNL     1       6.868   5.284  15.611  0.00  0.00    +0.000 C 
BRANCH  24  26
ATOM     25  C   UNL     1       7.781   4.592  17.721  0.00  0.00    +0.000 C 
ATOM     26  N   UNL     1       7.843   4.417  16.274  0.00  0.00    +0.000 NA
ATOM     27  H   UNL     1       7.634   3.445  16.051  0.00  0.00    +0.000 HD
ENDBRANCH  24  26
ENDBRANCH   1  24
TORSDOF 5
ENDMDL
MODEL 9
REMARK VINA RESULT:      -7.0      2.220      5.771
REMARK  Name = 
REMARK  7 active torsions:
REMARK  status: ('A' for Active; 'I' for Inactive)
REMARK    1  A    between atoms: C_1  and  N_2
REMARK    2  A    between atoms: N_2  and  C_3
REMARK    3  A    between atoms: C_3  and  C_4
REMARK    4  A    between atoms: N_6  and  S_7
REMARK    5  A    between atoms: S_7  and  C_10
REMARK    6  A    between atoms: C_15  and  C_16
REMARK    7  A    between atoms: C_17  and  C_18
REMARK                            x       y       z     vdW  Elec       q    Type
REMARK                         _______ _______ _______ _____ _____    ______ ____
ROOT
ATOM      1  C   UNL     1       2.948   7.981  18.298  0.00  0.00    +0.000 A 
ATOM      2  C   UNL     1       4.131   7.314  18.059  0.00  0.00    +0.000 A 
ATOM      3  N   UNL     1       4.076   6.079  18.673  0.00  0.00    +0.000 N 
ATOM      4  C   UNL     1       2.861   5.899  19.337  0.00  0.00    +0.000 A 
ATOM      5  C   UNL     1       2.196   7.100  19.105  0.00  0.00    +0.000 A 
ATOM      6  F   UNL     1       1.013   7.393  19.569  0.00  0.00    +0.000 F 
ENDROOT
BRANCH   4   7
ATOM      7  C   UNL     1       2.329   4.707  20.039  0.00  0.00    +0.000 A 
ATOM      8  C   UNL     1       2.614   4.404  21.372  0.00  0.00    +0.000 A 
ATOM      9  C   UNL     1       2.143   3.231  21.965  0.00  0.00    +0.000 A 
ATOM     10  C   UNL     1       1.312   2.411  21.231  0.00  0.00    +0.000 A 
ATOM     11  N   UNL     1       0.945   2.681  19.967  0.00  0.00    +0.000 NA
ATOM     12  C   UNL     1       1.461   3.803  19.403  0.00  0.00    +0.000 A 
ATOM     13  F   UNL     1       1.098   4.015  18.128  0.00  0.00    +0.000 F 
ENDBRANCH   4   7
BRANCH   3  14
ATOM     14  S   UNL     1       5.411   4.998  18.557  0.00  0.00    +0.000 S 
ATOM     15  O   UNL     1       6.516   5.666  19.224  0.00  0.00    +0.000 OA
ATOM     16  O   UNL     1       4.908   3.735  19.053  0.00  0.00    +0.000 OA
BRANCH  14  17
ATOM     17  C   UNL     1       5.837   4.905  16.855  0.00  0.00    +0.000 A 
ATOM     18  C   UNL     1       7.067   5.444  16.492  0.00  0.00    +0.000 A 
ATOM     19  N   UNL     1       7.563   5.400  15.238  0.00  0.00    +0.000 NA
ATOM     20  C   UNL     1       6.816   4.768  14.313  0.00  0.00    +0.000 A 
ATOM     21  C   UNL     1       5.581   4.194  14.580  0.00  0.00    +0.000 A 
ATOM     22  C   UNL     1       5.067   4.252  15.885  0.00  0.00    +0.000 A 
ATOM     23  C   UNL     1       3.732   3.615  16.151  0.00  0.00    +0.000 C 
ENDBRANCH  14  17
ENDBRANCH   3  14
BRANCH   1  24
ATOM     24  C   UNL     1       2.548   9.350  17.853  0.00  0.00    +0.000 C 
BRANCH  24  26
ATOM     25  C   UNL     1       0.346  10.229  18.229  0.00  0.00    +0.000 C 
ATOM     26  N   UNL     1       1.151   9.323  17.418  0.00  0.00    +0.000 NA
ATOM     27  H   UNL     1       1.096   9.617  16.444  0.00  0.00    +0.000 HD
ENDBRANCH  24  26
ENDBRANCH   1  24
TORSDOF 5
ENDMDL
