MODEL 1
REMARK VINA RESULT:      -6.9      0.000      0.000
REMARK  Name = 
REMARK  5 active torsions:
REMARK  status: ('A' for Active; 'I' for Inactive)
REMARK    1  A    between atoms: C_1  and  C_2
REMARK    2  A    between atoms: C_2  and  C_3
REMARK    3  A    between atoms: C_6  and  C_7
REMARK    4  A    between atoms: C_16  and  C_18
REMARK    5  A    between atoms: C_18  and  N_19
REMARK                            x       y       z     vdW  Elec       q    Type
REMARK                         _______ _______ _______ _____ _____    ______ ____
ROOT
ATOM      1  C   UNL     1       3.194   6.345  17.607  0.00  0.00    +0.000 C 
ATOM      2  C   UNL     1       2.835   7.842  17.485  0.00  0.00    +0.000 C 
ATOM      3  C   UNL     1       2.125   8.098  18.770  0.00  0.00    +0.000 A 
ATOM      4  C   UNL     1       1.468   9.266  19.134  0.00  0.00    +0.000 A 
ATOM      5  C   UNL     1       0.904   9.340  20.406  0.00  0.00    +0.000 A 
ATOM      6  C   UNL     1       1.013   8.254  21.287  0.00  0.00    +0.000 A 
ATOM      7  C   UNL     1       1.690   7.086  20.908  0.00  0.00    +0.000 A 
ATOM      8  C   UNL     1       2.242   7.014  19.641  0.00  0.00    +0.000 A 
ATOM      9  N   UNL     1       2.953   5.954  19.023  0.00  0.00    +0.000 N 
ATOM     10  C   UNL     1       3.160   4.700  19.586  0.00  0.00    +0.000 C 
ATOM     11  O   UNL     1       2.794   4.381  20.724  0.00  0.00    +0.000 OA
ENDROOT
BRANCH   1  15
ATOM     12  C   UNL     1       6.381   5.498  16.151  0.00  0.00    +0.000 A 
ATOM     13  C   UNL     1       6.809   6.006  17.356  0.00  0.00    +0.000 A 
ATOM     14  N   UNL     1       5.676   6.433  17.987  0.00  0.00    +0.000 N 
ATOM     15  C   UNL     1       4.609   6.151  17.167  0.00  0.00    +0.000 A 
ATOM     16  N   UNL     1       5.023   5.648  16.025  0.00  0.00    +0.000 NA
ATOM     17  H   UNL     1       5.624   6.834  18.915  0.00  0.00    +0.000 HD
BRANCH  12  19
ATOM     18  C   UNL     1       6.188   3.962  14.231  0.00  0.00    +0.000 C 
ATOM     19  C   UNL     1       7.140   4.760  15.111  0.00  0.00    +0.000 C 
ENDBRANCH  12  19
ENDBRANCH   1  15
BRANCH  10  20
ATOM     20  C   UNL     1       3.941   3.673  18.742  0.00  0.00    +0.000 C 
BRANCH  20  21
ATOM     21  N   UNL     1       5.272   3.405  19.319  0.00  0.00    +0.000 NA
ATOM     22  H   UNL     1       5.173   3.450  20.339  0.00  0.00    +0.000 HD
ATOM     23  H   UNL     1       5.897   4.167  19.061  0.00  0.00    +0.000 HD
ENDBRANCH  20  21
ENDBRANCH  10  20
TORSDOF 4
ENDMDL
MODEL 2
REMARK VINA RESULT:      -6.8      2.692      3.483
REMARK  Name = 
REMARK  5 active torsions:
REMARK  status: ('A' for Active; 'I' for Inactive)
REMARK    1  A    between atoms: C_1  and  C_2
REMARK    2  A    between atoms: C_2  and  C_3
REMARK    3  A    between atoms: C_6  and  C_7
REMARK    4  A    between atoms: C_16  and  C_18
REMARK    5  A    between atoms: C_18  and  N_19
REMARK                            x       y       z     vdW  Elec       q    Type
REMARK                         _______ _______ _______ _____ _____    ______ ____
ROOT
ATOM      1  C   UNL     1       4.615   3.468  17.215  0.00  0.00    +0.000 C 
ATOM      2  C   UNL     1       3.102   3.189  17.087  0.00  0.00    +0.000 C 
ATOM      3  C   UNL     1       2.583   3.677  18.396  0.00  0.00    +0.000 A 
ATOM      4  C   UNL     1       1.285   3.547  18.872  0.00  0.00    +0.000 A 
ATOM      5  C   UNL     1       0.972   4.117  20.105  0.00  0.00    +0.000 A 
ATOM      6  C   UNL     1       1.955   4.806  20.830  0.00  0.00    +0.000 A 
ATOM      7  C   UNL     1       3.258   4.938  20.331  0.00  0.00    +0.000 A 
ATOM      8  C   UNL     1       3.567   4.364  19.109  0.00  0.00    +0.000 A 
ATOM      9  N   UNL     1       4.797   4.344  18.404  0.00  0.00    +0.000 N 
ATOM     10  C   UNL     1       5.997   4.857  18.883  0.00  0.00    +0.000 C 
ATOM     11  O   UNL     1       6.118   5.445  19.965  0.00  0.00    +0.000 OA
ENDROOT
BRANCH   1  15
ATOM     12  C   UNL     1       6.145   4.477  14.110  0.00  0.00    +0.000 A 
ATOM     13  C   UNL     1       5.641   5.690  14.521  0.00  0.00    +0.000 A 
ATOM     14  N   UNL     1       4.965   5.424  15.678  0.00  0.00    +0.000 N 
ATOM     15  C   UNL     1       5.101   4.081  15.942  0.00  0.00    +0.000 A 
ATOM     16  N   UNL     1       5.753   3.482  14.970  0.00  0.00    +0.000 NA
ATOM     17  H   UNL     1       4.498   6.102  16.265  0.00  0.00    +0.000 HD
BRANCH  12  19
ATOM     18  C   UNL     1       6.410   3.263  11.980  0.00  0.00    +0.000 C 
ATOM     19  C   UNL     1       7.084   4.167  13.004  0.00  0.00    +0.000 C 
ENDBRANCH  12  19
ENDBRANCH   1  15
BRANCH  10  20
ATOM     20  C   UNL     1       7.232   4.718  17.972  0.00  0.00    +0.000 C 
BRANCH  20  21
ATOM     21  N   UNL     1       7.635   6.021  17.411  0.00  0.00    +0.000 NA
ATOM     22  H   UNL     1       8.650   6.104  17.537  0.00  0.00    +0.000 HD
ATOM     23  H   UNL     1       7.218   6.760  17.975  0.00  0.00    +0.000 HD
ENDBRANCH  20  21
ENDBRANCH  10  20
TORSDOF 4
ENDMDL
MODEL 3
REMARK VINA RESULT:      -6.7      1.928      5.652
REMARK  Name = 
REMARK  5 active torsions:
REMARK  status: ('A' for Active; 'I' for Inactive)
REMARK    1  A    between atoms: C_1  and  C_2
REMARK    2  A    between atoms: C_2  and  C_3
REMARK    3  A    between atoms: C_6  and  C_7
REMARK    4  A    between atoms: C_16  and  C_18
REMARK    5  A    between atoms: C_18  and  N_19
REMARK                            x       y       z     vdW  Elec       q    Type
REMARK                         _______ _______ _______ _____ _____    ______ ____
ROOT
ATOM      1  C   UNL     1       3.904   5.157  19.214  0.00  0.00    +0.000 C 
ATOM      2  C   UNL     1       5.274   5.846  19.030  0.00  0.00    +0.000 C 
ATOM      3  C   UNL     1       5.772   5.220  17.772  0.00  0.00    +0.000 A 
ATOM      4  C   UNL     1       7.030   5.383  17.208  0.00  0.00    +0.000 A 
ATOM      5  C   UNL     1       7.297   4.756  15.993  0.00  0.00    +0.000 A 
ATOM      6  C   UNL     1       6.305   3.988  15.366  0.00  0.00    +0.000 A 
ATOM      7  C   UNL     1       5.036   3.842  15.943  0.00  0.00    +0.000 A 
ATOM      8  C   UNL     1       4.777   4.461  17.154  0.00  0.00    +0.000 A 
ATOM      9  N   UNL     1       3.596   4.456  17.938  0.00  0.00    +0.000 N 
ATOM     10  C   UNL     1       2.453   3.718  17.650  0.00  0.00    +0.000 C 
ATOM     11  O   UNL     1       2.313   3.020  16.638  0.00  0.00    +0.000 OA
ENDROOT
BRANCH   1  15
ATOM     12  C   UNL     1       1.714   7.981  19.690  0.00  0.00    +0.000 A 
ATOM     13  C   UNL     1       1.536   7.348  20.900  0.00  0.00    +0.000 A 
ATOM     14  N   UNL     1       2.277   6.203  20.817  0.00  0.00    +0.000 N 
ATOM     15  C   UNL     1       2.892   6.191  19.587  0.00  0.00    +0.000 A 
ATOM     16  N   UNL     1       2.509   7.223  18.868  0.00  0.00    +0.000 NA
ATOM     17  H   UNL     1       2.397   5.516  21.549  0.00  0.00    +0.000 HD
BRANCH  12  19
ATOM     18  C   UNL     1       1.879   9.664  17.896  0.00  0.00    +0.000 C 
ATOM     19  C   UNL     1       1.278   9.330  19.255  0.00  0.00    +0.000 C 
ENDBRANCH  12  19
ENDBRANCH   1  15
BRANCH  10  20
ATOM     20  C   UNL     1       1.278   3.830  18.642  0.00  0.00    +0.000 C 
BRANCH  20  21
ATOM     21  N   UNL     1       0.705   2.505  18.946  0.00  0.00    +0.000 NA
ATOM     22  H   UNL     1       0.672   2.417  19.967  0.00  0.00    +0.000 HD
ATOM     23  H   UNL     1       1.352   1.789  18.620  0.00  0.00    +0.000 HD
ENDBRANCH  20  21
ENDBRANCH  10  20
TORSDOF 4
ENDMDL
MODEL 4
REMARK VINA RESULT:      -6.7      1.173      1.902
REMARK  Name = 
REMARK  5 active torsions:
REMARK  status: ('A' for Active; 'I' for Inactive)
REMARK    1  A    between atoms: C_1  and  C_2
REMARK    2  A    between atoms: C_2  and  C_3
REMARK    3  A    between atoms: C_6  and  C_7
REMARK    4  A    between atoms: C_16  and  C_18
REMARK    5  A    between atoms: C_18  and  N_19
REMARK                            x       y       z     vdW  Elec       q    Type
REMARK                         _______ _______ _______ _____ _____    ______ ____
ROOT
ATOM      1  C   UNL     1       2.933   5.500  17.941  0.00  0.00    +0.000 C 
ATOM      2  C   UNL     1       2.896   7.005  17.597  0.00  0.00    +0.000 C 
ATOM      3  C   UNL     1       2.202   7.579  18.785  0.00  0.00    +0.000 A 
ATOM      4  C   UNL     1       1.785   8.894  18.945  0.00  0.00    +0.000 A 
ATOM      5  C   UNL     1       1.197   9.260  20.154  0.00  0.00    +0.000 A 
ATOM      6  C   UNL     1       1.044   8.311  21.176  0.00  0.00    +0.000 A 
ATOM      7  C   UNL     1       1.481   6.990  21.003  0.00  0.00    +0.000 A 
ATOM      8  C   UNL     1       2.058   6.629  19.797  0.00  0.00    +0.000 A 
ATOM      9  N   UNL     1       2.560   5.372  19.375  0.00  0.00    +0.000 N 
ATOM     10  C   UNL     1       2.482   4.196  20.113  0.00  0.00    +0.000 C 
ATOM     11  O   UNL     1       2.011   4.122  21.254  0.00  0.00    +0.000 OA
ENDROOT
BRANCH   1  15
ATOM     12  C   UNL     1       6.411   4.622  17.578  0.00  0.00    +0.000 A 
ATOM     13  C   UNL     1       5.919   4.091  16.407  0.00  0.00    +0.000 A 
ATOM     14  N   UNL     1       4.570   4.303  16.457  0.00  0.00    +0.000 N 
ATOM     15  C   UNL     1       4.295   4.969  17.628  0.00  0.00    +0.000 A 
ATOM     16  N   UNL     1       5.386   5.109  18.348  0.00  0.00    +0.000 NA
ATOM     17  H   UNL     1       3.902   4.065  15.737  0.00  0.00    +0.000 HD
BRANCH  12  19
ATOM     18  C   UNL     1       7.882   5.839  19.138  0.00  0.00    +0.000 C 
ATOM     19  C   UNL     1       7.817   4.817  18.011  0.00  0.00    +0.000 C 
ENDBRANCH  12  19
ENDBRANCH   1  15
BRANCH  10  20
ATOM     20  C   UNL     1       3.068   2.924  19.468  0.00  0.00    +0.000 C 
BRANCH  20  21
ATOM     21  N   UNL     1       4.349   2.547  20.094  0.00  0.00    +0.000 NA
ATOM     22  H   UNL     1       4.653   1.671  19.655  0.00  0.00    +0.000 HD
ATOM     23  H   UNL     1       4.179   2.329  21.075  0.00  0.00    +0.000 HD
ENDBRANCH  20  21
ENDBRANCH  10  20
TORSDOF 4
ENDMDL
MODEL 5
REMARK VINA RESULT:      -6.6      0.872      1.795
REMARK  Name = 
REMARK  5 active torsions:
REMARK  status: ('A' for Active; 'I' for Inactive)
REMARK    1  A    between atoms: C_1  and  C_2
REMARK    2  A    between atoms: C_2  and  C_3
REMARK    3  A    between atoms: C_6  and  C_7
REMARK    4  A    between atoms: C_16  and  C_18
REMARK    5  A    between atoms: C_18  and  N_19
REMARK                            x       y       z     vdW  Elec       q    Type
REMARK                         _______ _______ _______ _____ _____    ______ ____
ROOT
ATOM      1  C   UNL     1       2.935   6.526  17.911  0.00  0.00    +0.000 C 
ATOM      2  C   UNL     1       2.608   8.021  17.704  0.00  0.00    +0.000 C 
ATOM      3  C   UNL     1       1.856   8.351  18.948  0.00  0.00    +0.000 A 
ATOM      4  C   UNL     1       1.207   9.545  19.231  0.00  0.00    +0.000 A 
ATOM      5  C   UNL     1       0.598   9.690  20.476  0.00  0.00    +0.000 A 
ATOM      6  C   UNL     1       0.655   8.645  21.411  0.00  0.00    +0.000 A 
ATOM      7  C   UNL     1       1.324   7.449  21.115  0.00  0.00    +0.000 A 
ATOM      8  C   UNL     1       1.921   7.308  19.873  0.00  0.00    +0.000 A 
ATOM      9  N   UNL     1       2.635   6.208  19.334  0.00  0.00    +0.000 N 
ATOM     10  C   UNL     1       2.799   4.980  19.964  0.00  0.00    +0.000 C 
ATOM     11  O   UNL     1       2.385   4.721  21.100  0.00  0.00    +0.000 OA
ENDROOT
BRANCH   1  15
ATOM     12  C   UNL     1       6.499   6.385  17.389  0.00  0.00    +0.000 A 
ATOM     13  C   UNL     1       6.075   5.771  16.233  0.00  0.00    +0.000 A 
ATOM     14  N   UNL     1       4.715   5.700  16.343  0.00  0.00    +0.000 N 
ATOM     15  C   UNL     1       4.361   6.289  17.534  0.00  0.00    +0.000 A 
ATOM     16  N   UNL     1       5.431   6.647  18.209  0.00  0.00    +0.000 NA
ATOM     17  H   UNL     1       4.079   5.333  15.648  0.00  0.00    +0.000 HD
BRANCH  12  19
ATOM     18  C   UNL     1       7.915   8.383  17.680  0.00  0.00    +0.000 C 
ATOM     19  C   UNL     1       7.852   6.864  17.765  0.00  0.00    +0.000 C 
ENDBRANCH  12  19
ENDBRANCH   1  15
BRANCH  10  20
ATOM     20  C   UNL     1       3.591   3.900  19.200  0.00  0.00    +0.000 C 
BRANCH  20  21
ATOM     21  N   UNL     1       4.978   3.803  19.693  0.00  0.00    +0.000 NA
ATOM     22  H   UNL     1       5.247   2.815  19.644  0.00  0.00    +0.000 HD
ATOM     23  H   UNL     1       4.989   4.052  20.681  0.00  0.00    +0.000 HD
ENDBRANCH  20  21
ENDBRANCH  10  20
TORSDOF 4
ENDMDL
MODEL 6
REMARK VINA RESULT:      -6.5      2.501      4.061
REMARK  Name = 
REMARK  5 active torsions:
REMARK  status: ('A' for Active; 'I' for Inactive)
REMARK    1  A    between atoms: C_1  and  C_2
REMARK    2  A    between atoms: C_2  and  C_3
REMARK    3  A    between atoms: C_6  and  C_7
REMARK    4  A    between atoms: C_16  and  C_18
REMARK    5  A    between atoms: C_18  and  N_19
REMARK                            x       y       z     vdW  Elec       q    Type
REMARK                         _______ _______ _______ _____ _____    ______ ____
ROOT
ATOM      1  C   UNL     1       5.078   4.065  17.544  0.00  0.00    +0.000 C 
ATOM      2  C   UNL     1       4.490   2.650  17.737  0.00  0.00    +0.000 C 
ATOM      3  C   UNL     1       3.216   2.937  18.455  0.00  0.00    +0.000 A 
ATOM      4  C   UNL     1       2.341   2.003  18.995  0.00  0.00    +0.000 A 
ATOM      5  C   UNL     1       1.165   2.461  19.586  0.00  0.00    +0.000 A 
ATOM      6  C   UNL     1       0.885   3.835  19.620  0.00  0.00    +0.000 A 
ATOM      7  C   UNL     1       1.773   4.764  19.060  0.00  0.00    +0.000 A 
ATOM      8  C   UNL     1       2.944   4.305  18.480  0.00  0.00    +0.000 A 
ATOM      9  N   UNL     1       3.995   5.033  17.868  0.00  0.00    +0.000 N 
ATOM     10  C   UNL     1       4.076   6.420  17.812  0.00  0.00    +0.000 C 
ATOM     11  O   UNL     1       3.205   7.184  18.245  0.00  0.00    +0.000 OA
ENDROOT
BRANCH   1  15
ATOM     12  C   UNL     1       5.846   4.021  14.022  0.00  0.00    +0.000 A 
ATOM     13  C   UNL     1       7.080   4.372  14.520  0.00  0.00    +0.000 A 
ATOM     14  N   UNL     1       6.901   4.490  15.869  0.00  0.00    +0.000 N 
ATOM     15  C   UNL     1       5.589   4.186  16.145  0.00  0.00    +0.000 A 
ATOM     16  N   UNL     1       4.921   3.967  15.034  0.00  0.00    +0.000 NA
ATOM     17  H   UNL     1       7.618   4.706  16.549  0.00  0.00    +0.000 HD
BRANCH  12  19
ATOM     18  C   UNL     1       6.694   3.206  11.855  0.00  0.00    +0.000 C 
ATOM     19  C   UNL     1       5.460   3.613  12.648  0.00  0.00    +0.000 C 
ENDBRANCH  12  19
ENDBRANCH   1  15
BRANCH  10  20
ATOM     20  C   UNL     1       5.314   7.023  17.120  0.00  0.00    +0.000 C 
BRANCH  20  21
ATOM     21  N   UNL     1       5.103   7.160  15.666  0.00  0.00    +0.000 NA
ATOM     22  H   UNL     1       5.373   6.269  15.237  0.00  0.00    +0.000 HD
ATOM     23  H   UNL     1       5.755   7.857  15.309  0.00  0.00    +0.000 HD
ENDBRANCH  20  21
ENDBRANCH  10  20
TORSDOF 4
ENDMDL
MODEL 7
REMARK VINA RESULT:      -6.5      2.803      4.668
REMARK  Name = 
REMARK  5 active torsions:
REMARK  status: ('A' for Active; 'I' for Inactive)
REMARK    1  A    between atoms: C_1  and  C_2
REMARK    2  A    between atoms: C_2  and  C_3
REMARK    3  A    between atoms: C_6  and  C_7
REMARK    4  A    between atoms: C_16  and  C_18
REMARK    5  A    between atoms: C_18  and  N_19
REMARK                            x       y       z     vdW  Elec       q    Type
REMARK                         _______ _______ _______ _____ _____    ______ ____
ROOT
ATOM      1  C   UNL     1       4.880   6.299  16.872  0.00  0.00    +0.000 C 
ATOM      2  C   UNL     1       3.698   6.489  17.848  0.00  0.00    +0.000 C 
ATOM      3  C   UNL     1       3.066   5.139  17.840  0.00  0.00    +0.000 A 
ATOM      4  C   UNL     1       1.874   4.779  18.453  0.00  0.00    +0.000 A 
ATOM      5  C   UNL     1       1.467   3.448  18.381  0.00  0.00    +0.000 A 
ATOM      6  C   UNL     1       2.259   2.507  17.707  0.00  0.00    +0.000 A 
ATOM      7  C   UNL     1       3.467   2.884  17.102  0.00  0.00    +0.000 A 
ATOM      8  C   UNL     1       3.863   4.209  17.170  0.00  0.00    +0.000 A 
ATOM      9  N   UNL     1       5.017   4.836  16.636  0.00  0.00    +0.000 N 
ATOM     10  C   UNL     1       5.965   4.208  15.835  0.00  0.00    +0.000 C 
ATOM     11  O   UNL     1       5.940   3.007  15.541  0.00  0.00    +0.000 OA
ENDROOT
BRANCH   1  15
ATOM     12  C   UNL     1       7.781   8.196  17.859  0.00  0.00    +0.000 A 
ATOM     13  C   UNL     1       8.038   7.023  18.531  0.00  0.00    +0.000 A 
ATOM     14  N   UNL     1       6.954   6.227  18.287  0.00  0.00    +0.000 N 
ATOM     15  C   UNL     1       6.099   6.925  17.466  0.00  0.00    +0.000 A 
ATOM     16  N   UNL     1       6.552   8.141  17.254  0.00  0.00    +0.000 NA
ATOM     17  H   UNL     1       6.829   5.276  18.607  0.00  0.00    +0.000 HD
BRANCH  12  19
ATOM     18  C   UNL     1       9.082   9.973  18.970  0.00  0.00    +0.000 C 
ATOM     19  C   UNL     1       8.661   9.371  17.636  0.00  0.00    +0.000 C 
ENDBRANCH  12  19
ENDBRANCH   1  15
BRANCH  10  20
ATOM     20  C   UNL     1       7.140   5.071  15.333  0.00  0.00    +0.000 C 
BRANCH  20  21
ATOM     21  N   UNL     1       7.143   5.167  13.861  0.00  0.00    +0.000 NA
ATOM     22  H   UNL     1       7.998   4.707  13.530  0.00  0.00    +0.000 HD
ATOM     23  H   UNL     1       7.230   6.149  13.600  0.00  0.00    +0.000 HD
ENDBRANCH  20  21
ENDBRANCH  10  20
TORSDOF 4
ENDMDL
MODEL 8
REMARK VINA RESULT:      -6.3      3.768      6.914
REMARK  Name = 
REMARK  5 active torsions:
REMARK  status: ('A' for Active; 'I' for Inactive)
REMARK    1  A    between atoms: C_1  and  C_2
REMARK    2  A    between atoms: C_2  and  C_3
REMARK    3  A    between atoms: C_6  and  C_7
REMARK    4  A    between atoms: C_16  and  C_18
REMARK    5  A    between atoms: C_18  and  N_19
REMARK                            x       y       z     vdW  Elec       q    Type
REMARK                         _______ _______ _______ _____ _____    ______ ____
ROOT
ATOM      1  C   UNL     1       1.245  10.092  18.936  0.00  0.00    +0.000 C 
ATOM      2  C   UNL     1       1.933   9.420  17.726  0.00  0.00    +0.000 C 
ATOM      3  C   UNL     1       2.409   8.135  18.313  0.00  0.00    +0.000 A 
ATOM      4  C   UNL     1       3.214   7.190  17.691  0.00  0.00    +0.000 A 
ATOM      5  C   UNL     1       3.515   6.018  18.383  0.00  0.00    +0.000 A 
ATOM      6  C   UNL     1       3.002   5.813  19.673  0.00  0.00    +0.000 A 
ATOM      7  C   UNL     1       2.181   6.772  20.282  0.00  0.00    +0.000 A 
ATOM      8  C   UNL     1       1.891   7.938  19.594  0.00  0.00    +0.000 A 
ATOM      9  N   UNL     1       1.109   9.052  19.991  0.00  0.00    +0.000 N 
ATOM     10  C   UNL     1       0.530   9.211  21.245  0.00  0.00    +0.000 C 
ATOM     11  O   UNL     1       0.585   8.366  22.147  0.00  0.00    +0.000 OA
ENDROOT
BRANCH   1  15
ATOM     12  C   UNL     1      -1.988  10.950  17.593  0.00  0.00    +0.000 A 
ATOM     13  C   UNL     1      -1.498  12.214  17.831  0.00  0.00    +0.000 A 
ATOM     14  N   UNL     1      -0.279  12.020  18.416  0.00  0.00    +0.000 N 
ATOM     15  C   UNL     1      -0.061  10.665  18.489  0.00  0.00    +0.000 A 
ATOM     16  N   UNL     1      -1.112  10.003  18.059  0.00  0.00    +0.000 NA
ATOM     17  H   UNL     1       0.372  12.744  18.693  0.00  0.00    +0.000 HD
BRANCH  12  19
ATOM     18  C   UNL     1      -2.875  10.363  15.368  0.00  0.00    +0.000 C 
ATOM     19  C   UNL     1      -3.200  10.530  16.847  0.00  0.00    +0.000 C 
ENDBRANCH  12  19
ENDBRANCH   1  15
BRANCH  10  20
ATOM     20  C   UNL     1      -0.267  10.507  21.490  0.00  0.00    +0.000 C 
BRANCH  20  21
ATOM     21  N   UNL     1      -0.325  10.839  22.927  0.00  0.00    +0.000 NA
ATOM     22  H   UNL     1      -0.571  11.831  22.998  0.00  0.00    +0.000 HD
ATOM     23  H   UNL     1       0.612  10.750  23.318  0.00  0.00    +0.000 HD
ENDBRANCH  20  21
ENDBRANCH  10  20
TORSDOF 4
ENDMDL
MODEL 9
REMARK VINA RESULT:      -6.3      2.456      3.917
REMARK  Name = 
REMARK  5 active torsions:
REMARK  status: ('A' for Active; 'I' for Inactive)
REMARK    1  A    between atoms: C_1  and  C_2
REMARK    2  A    between atoms: C_2  and  C_3
REMARK    3  A    between atoms: C_6  and  C_7
REMARK    4  A    between atoms: C_16  and  C_18
REMARK    5  A    between atoms: C_18  and  N_19
REMARK                            x       y       z     vdW  Elec       q    Type
REMARK                         _______ _______ _______ _____ _____    ______ ____
ROOT
ATOM      1  C   UNL     1       3.933   5.677  18.224  0.00  0.00    +0.000 C 
ATOM      2  C   UNL     1       3.215   5.980  19.557  0.00  0.00    +0.000 C 
ATOM      3  C   UNL     1       2.496   4.701  19.821  0.00  0.00    +0.000 A 
ATOM      4  C   UNL     1       1.581   4.460  20.837  0.00  0.00    +0.000 A 
ATOM      5  C   UNL     1       1.049   3.178  20.959  0.00  0.00    +0.000 A 
ATOM      6  C   UNL     1       1.443   2.166  20.072  0.00  0.00    +0.000 A 
ATOM      7  C   UNL     1       2.377   2.422  19.058  0.00  0.00    +0.000 A 
ATOM      8  C   UNL     1       2.898   3.699  18.936  0.00  0.00    +0.000 A 
ATOM      9  N   UNL     1       3.832   4.209  17.999  0.00  0.00    +0.000 N 
ATOM     10  C   UNL     1       4.355   3.494  16.927  0.00  0.00    +0.000 C 
ATOM     11  O   UNL     1       4.107   2.304  16.699  0.00  0.00    +0.000 OA
ENDROOT
BRANCH   1  15
ATOM     12  C   UNL     1       7.198   7.181  17.953  0.00  0.00    +0.000 A 
ATOM     13  C   UNL     1       7.510   6.103  18.750  0.00  0.00    +0.000 A 
ATOM     14  N   UNL     1       6.319   5.477  18.986  0.00  0.00    +0.000 N 
ATOM     15  C   UNL     1       5.341   6.171  18.313  0.00  0.00    +0.000 A 
ATOM     16  N   UNL     1       5.845   7.241  17.740  0.00  0.00    +0.000 NA
ATOM     17  H   UNL     1       6.188   4.624  19.514  0.00  0.00    +0.000 HD
BRANCH  12  19
ATOM     18  C   UNL     1       8.411   9.318  18.168  0.00  0.00    +0.000 C 
ATOM     19  C   UNL     1       8.097   8.137  17.259  0.00  0.00    +0.000 C 
ENDBRANCH  12  19
ENDBRANCH   1  15
BRANCH  10  20
ATOM     20  C   UNL     1       5.343   4.236  16.005  0.00  0.00    +0.000 C 
BRANCH  20  21
ATOM     21  N   UNL     1       6.728   3.777  16.223  0.00  0.00    +0.000 NA
ATOM     22  H   UNL     1       6.683   2.969  16.853  0.00  0.00    +0.000 HD
ATOM     23  H   UNL     1       7.235   4.503  16.727  0.00  0.00    +0.000 HD
ENDBRANCH  20  21
ENDBRANCH  10  20
TORSDOF 4
ENDMDL
