MODEL 1
REMARK VINA RESULT:      -6.8      0.000      0.000
REMARK  Name = 
REMARK  7 active torsions:
REMARK  status: ('A' for Active; 'I' for Inactive)
REMARK    1  A    between atoms: C_1  and  C_2
REMARK    2  A    between atoms: C_3  and  O_4
REMARK    3  A    between atoms: C_8  and  O_9
REMARK    4  A    between atoms: C_13  and  C_14
REMARK    5  A    between atoms: C_13  and  C_15
REMARK    6  A    between atoms: C_15  and  C_16
REMARK    7  A    between atoms: C_15  and  O_17
REMARK                            x       y       z     vdW  Elec       q    Type
REMARK                         _______ _______ _______ _____ _____    ______ ____
ROOT
ATOM      1  C   UNL     1       2.359   3.575  20.683  0.00  0.00    +0.000 C 
ATOM      2  C   UNL     1       3.423   4.072  19.744  0.00  0.00    +0.000 A 
ATOM      3  C   UNL     1       4.616   3.369  19.464  0.00  0.00    +0.000 A 
ATOM      4  C   UNL     1       5.595   3.884  18.608  0.00  0.00    +0.000 A 
ATOM      5  C   UNL     1       5.369   5.102  17.997  0.00  0.00    +0.000 A 
ATOM      6  C   UNL     1       4.196   5.783  18.239  0.00  0.00    +0.000 A 
ATOM      7  C   UNL     1       3.226   5.311  19.109  0.00  0.00    +0.000 A 
ATOM      8  C   UNL     1       4.168   6.974  17.409  0.00  0.00    +0.000 C 
ATOM      9  O   UNL     1       3.273   7.800  17.401  0.00  0.00    +0.000 OA
ATOM     10  O   UNL     1       5.289   6.944  16.633  0.00  0.00    +0.000 OA
ATOM     11  C   UNL     1       6.198   5.881  17.038  0.00  0.00    +0.000 C 
ATOM     12  C   UNL     1       7.376   6.551  17.756  0.00  0.00    +0.000 C 
ENDROOT
BRANCH   3  13
ATOM     13  O   UNL     1       4.918   2.143  19.986  0.00  0.00    +0.000 OA
ATOM     14  H   UNL     1       4.802   2.147  20.949  0.00  0.00    +0.000 HD
ENDBRANCH   3  13
BRANCH   7  15
ATOM     15  O   UNL     1       2.085   6.020  19.358  0.00  0.00    +0.000 OA
ATOM     16  H   UNL     1       1.398   5.411  19.709  0.00  0.00    +0.000 HD
ENDBRANCH   7  15
BRANCH  11  17
ATOM     17  C   UNL     1       6.664   5.062  15.804  0.00  0.00    +0.000 C 
ATOM     18  C   UNL     1       5.555   4.736  14.803  0.00  0.00    +0.000 C 
BRANCH  17  19
ATOM     19  O   UNL     1       7.690   5.761  15.089  0.00  0.00    +0.000 OA
ATOM     20  H   UNL     1       8.516   5.253  15.194  0.00  0.00    +0.000 HD
ENDBRANCH  17  19
ENDBRANCH  11  17
TORSDOF 4
ENDMDL
MODEL 2
REMARK VINA RESULT:      -6.7      1.491      3.471
REMARK  Name = 
REMARK  7 active torsions:
REMARK  status: ('A' for Active; 'I' for Inactive)
REMARK    1  A    between atoms: C_1  and  C_2
REMARK    2  A    between atoms: C_3  and  O_4
REMARK    3  A    between atoms: C_8  and  O_9
REMARK    4  A    between atoms: C_13  and  C_14
REMARK    5  A    between atoms: C_13  and  C_15
REMARK    6  A    between atoms: C_15  and  C_16
REMARK    7  A    between atoms: C_15  and  O_17
REMARK                            x       y       z     vdW  Elec       q    Type
REMARK                         _______ _______ _______ _____ _____    ______ ____
ROOT
ATOM      1  C   UNL     1       1.393   7.111  20.591  0.00  0.00    +0.000 C 
ATOM      2  C   UNL     1       2.459   6.763  19.589  0.00  0.00    +0.000 A 
ATOM      3  C   UNL     1       2.767   7.557  18.462  0.00  0.00    +0.000 A 
ATOM      4  C   UNL     1       3.745   7.178  17.536  0.00  0.00    +0.000 A 
ATOM      5  C   UNL     1       4.448   6.008  17.753  0.00  0.00    +0.000 A 
ATOM      6  C   UNL     1       4.176   5.242  18.865  0.00  0.00    +0.000 A 
ATOM      7  C   UNL     1       3.189   5.577  19.778  0.00  0.00    +0.000 A 
ATOM      8  C   UNL     1       5.110   4.131  18.906  0.00  0.00    +0.000 C 
ATOM      9  O   UNL     1       5.123   3.259  19.755  0.00  0.00    +0.000 OA
ATOM     10  O   UNL     1       5.969   4.295  17.859  0.00  0.00    +0.000 OA
ATOM     11  C   UNL     1       5.541   5.369  16.973  0.00  0.00    +0.000 C 
ATOM     12  C   UNL     1       4.988   4.706  15.705  0.00  0.00    +0.000 C 
ENDROOT
BRANCH   3  13
ATOM     13  O   UNL     1       2.157   8.745  18.177  0.00  0.00    +0.000 OA
ATOM     14  H   UNL     1       1.918   8.787  17.238  0.00  0.00    +0.000 HD
ENDBRANCH   3  13
BRANCH   7  15
ATOM     15  O   UNL     1       2.916   4.783  20.857  0.00  0.00    +0.000 OA
ATOM     16  H   UNL     1       2.413   3.995  20.557  0.00  0.00    +0.000 HD
ENDBRANCH   7  15
BRANCH  11  17
ATOM     17  C   UNL     1       6.726   6.321  16.656  0.00  0.00    +0.000 C 
ATOM     18  C   UNL     1       7.549   6.737  17.877  0.00  0.00    +0.000 C 
BRANCH  17  19
ATOM     19  O   UNL     1       7.628   5.717  15.722  0.00  0.00    +0.000 OA
ATOM     20  H   UNL     1       8.511   5.708  16.135  0.00  0.00    +0.000 HD
ENDBRANCH  17  19
ENDBRANCH  11  17
TORSDOF 4
ENDMDL
MODEL 3
REMARK VINA RESULT:      -6.6      1.436      1.436
REMARK  Name = 
REMARK  7 active torsions:
REMARK  status: ('A' for Active; 'I' for Inactive)
REMARK    1  A    between atoms: C_1  and  C_2
REMARK    2  A    between atoms: C_3  and  O_4
REMARK    3  A    between atoms: C_8  and  O_9
REMARK    4  A    between atoms: C_13  and  C_14
REMARK    5  A    between atoms: C_13  and  C_15
REMARK    6  A    between atoms: C_15  and  C_16
REMARK    7  A    between atoms: C_15  and  O_17
REMARK                            x       y       z     vdW  Elec       q    Type
REMARK                         _______ _______ _______ _____ _____    ______ ____
ROOT
ATOM      1  C   UNL     1       1.093   3.418  18.805  0.00  0.00    +0.000 C 
ATOM      2  C   UNL     1       2.450   3.712  18.229  0.00  0.00    +0.000 A 
ATOM      3  C   UNL     1       3.383   2.715  17.866  0.00  0.00    +0.000 A 
ATOM      4  C   UNL     1       4.649   3.034  17.363  0.00  0.00    +0.000 A 
ATOM      5  C   UNL     1       4.979   4.365  17.191  0.00  0.00    +0.000 A 
ATOM      6  C   UNL     1       4.066   5.345  17.514  0.00  0.00    +0.000 A 
ATOM      7  C   UNL     1       2.819   5.057  18.045  0.00  0.00    +0.000 A 
ATOM      8  C   UNL     1       4.620   6.637  17.151  0.00  0.00    +0.000 C 
ATOM      9  O   UNL     1       4.068   7.708  17.324  0.00  0.00    +0.000 OA
ATOM     10  O   UNL     1       5.822   6.400  16.550  0.00  0.00    +0.000 OA
ATOM     11  C   UNL     1       6.216   5.003  16.666  0.00  0.00    +0.000 C 
ATOM     12  C   UNL     1       7.342   4.942  17.706  0.00  0.00    +0.000 C 
ENDROOT
BRANCH   3  13
ATOM     13  O   UNL     1       3.142   1.374  17.963  0.00  0.00    +0.000 OA
ATOM     14  H   UNL     1       2.387   1.207  18.548  0.00  0.00    +0.000 HD
ENDBRANCH   3  13
BRANCH   7  15
ATOM     15  O   UNL     1       1.943   6.047  18.388  0.00  0.00    +0.000 OA
ATOM     16  H   UNL     1       2.371   6.919  18.246  0.00  0.00    +0.000 HD
ENDBRANCH   7  15
BRANCH  11  17
ATOM     17  C   UNL     1       6.672   4.448  15.289  0.00  0.00    +0.000 C 
ATOM     18  C   UNL     1       5.553   4.327  14.253  0.00  0.00    +0.000 C 
BRANCH  17  19
ATOM     19  O   UNL     1       7.691   5.278  14.719  0.00  0.00    +0.000 OA
ATOM     20  H   UNL     1       8.325   4.691  14.267  0.00  0.00    +0.000 HD
ENDBRANCH  17  19
ENDBRANCH  11  17
TORSDOF 4
ENDMDL
MODEL 4
REMARK VINA RESULT:      -6.3      1.659      5.471
REMARK  Name = 
REMARK  7 active torsions:
REMARK  status: ('A' for Active; 'I' for Inactive)
REMARK    1  A    between atoms: C_1  and  C_2
REMARK    2  A    between atoms: C_3  and  O_4
REMARK    3  A    between atoms: C_8  and  O_9
REMARK    4  A    between atoms: C_13  and  C_14
REMARK    5  A    between atoms: C_13  and  C_15
REMARK    6  A    between atoms: C_15  and  C_16
REMARK    7  A    between atoms: C_15  and  O_17
REMARK                            x       y       z     vdW  Elec       q    Type
REMARK                         _______ _______ _______ _____ _____    ______ ____
ROOT
ATOM      1  C   UNL     1       6.602   6.379  17.021  0.00  0.00    +0.000 C 
ATOM      2  C   UNL     1       5.428   5.797  17.759  0.00  0.00    +0.000 A 
ATOM      3  C   UNL     1       4.146   6.388  17.786  0.00  0.00    +0.000 A 
ATOM      4  C   UNL     1       3.089   5.829  18.513  0.00  0.00    +0.000 A 
ATOM      5  C   UNL     1       3.305   4.649  19.198  0.00  0.00    +0.000 A 
ATOM      6  C   UNL     1       4.544   4.048  19.155  0.00  0.00    +0.000 A 
ATOM      7  C   UNL     1       5.616   4.599  18.471  0.00  0.00    +0.000 A 
ATOM      8  C   UNL     1       4.476   2.787  19.871  0.00  0.00    +0.000 C 
ATOM      9  O   UNL     1       5.411   2.023  20.032  0.00  0.00    +0.000 OA
ATOM     10  O   UNL     1       3.181   2.621  20.264  0.00  0.00    +0.000 OA
ATOM     11  C   UNL     1       2.387   3.819  20.025  0.00  0.00    +0.000 C 
ATOM     12  C   UNL     1       2.146   4.474  21.391  0.00  0.00    +0.000 C 
ENDROOT
BRANCH   3  13
ATOM     13  O   UNL     1       3.819   7.531  17.115  0.00  0.00    +0.000 OA
ATOM     14  H   UNL     1       4.600   7.900  16.674  0.00  0.00    +0.000 HD
ENDBRANCH   3  13
BRANCH   7  15
ATOM     15  O   UNL     1       6.845   4.001  18.470  0.00  0.00    +0.000 OA
ATOM     16  H   UNL     1       6.746   3.064  18.194  0.00  0.00    +0.000 HD
ENDBRANCH   7  15
BRANCH  11  17
ATOM     17  C   UNL     1       1.055   3.459  19.314  0.00  0.00    +0.000 C 
ATOM     18  C   UNL     1       1.155   2.283  18.341  0.00  0.00    +0.000 C 
BRANCH  17  19
ATOM     19  O   UNL     1       0.040   3.133  20.271  0.00  0.00    +0.000 OA
ATOM     20  H   UNL     1      -0.632   2.597  19.811  0.00  0.00    +0.000 HD
ENDBRANCH  17  19
ENDBRANCH  11  17
TORSDOF 4
ENDMDL
MODEL 5
REMARK VINA RESULT:      -6.3      1.087      1.151
REMARK  Name = 
REMARK  7 active torsions:
REMARK  status: ('A' for Active; 'I' for Inactive)
REMARK    1  A    between atoms: C_1  and  C_2
REMARK    2  A    between atoms: C_3  and  O_4
REMARK    3  A    between atoms: C_8  and  O_9
REMARK    4  A    between atoms: C_13  and  C_14
REMARK    5  A    between atoms: C_13  and  C_15
REMARK    6  A    between atoms: C_15  and  C_16
REMARK    7  A    between atoms: C_15  and  O_17
REMARK                            x       y       z     vdW  Elec       q    Type
REMARK                         _______ _______ _______ _____ _____    ______ ____
ROOT
ATOM      1  C   UNL     1       2.507   3.162  21.193  0.00  0.00    +0.000 C 
ATOM      2  C   UNL     1       3.325   3.808  20.110  0.00  0.00    +0.000 A 
ATOM      3  C   UNL     1       4.481   3.225  19.545  0.00  0.00    +0.000 A 
ATOM      4  C   UNL     1       5.233   3.877  18.561  0.00  0.00    +0.000 A 
ATOM      5  C   UNL     1       4.809   5.113  18.112  0.00  0.00    +0.000 A 
ATOM      6  C   UNL     1       3.666   5.678  18.635  0.00  0.00    +0.000 A 
ATOM      7  C   UNL     1       2.924   5.069  19.634  0.00  0.00    +0.000 A 
ATOM      8  C   UNL     1       3.394   6.917  17.930  0.00  0.00    +0.000 C 
ATOM      9  O   UNL     1       2.464   7.667  18.167  0.00  0.00    +0.000 OA
ATOM     10  O   UNL     1       4.336   7.034  16.950  0.00  0.00    +0.000 OA
ATOM     11  C   UNL     1       5.376   6.022  17.078  0.00  0.00    +0.000 C 
ATOM     12  C   UNL     1       6.627   6.733  17.608  0.00  0.00    +0.000 C 
ENDROOT
BRANCH   3  13
ATOM     13  O   UNL     1       4.962   1.995  19.892  0.00  0.00    +0.000 OA
ATOM     14  H   UNL     1       5.637   2.077  20.584  0.00  0.00    +0.000 HD
ENDBRANCH   3  13
BRANCH   7  15
ATOM     15  O   UNL     1       1.812   5.663  20.160  0.00  0.00    +0.000 OA
ATOM     16  H   UNL     1       1.500   6.363  19.545  0.00  0.00    +0.000 HD
ENDBRANCH   7  15
BRANCH  11  17
ATOM     17  C   UNL     1       5.638   5.332  15.712  0.00  0.00    +0.000 C 
ATOM     18  C   UNL     1       7.061   4.803  15.532  0.00  0.00    +0.000 C 
BRANCH  17  19
ATOM     19  O   UNL     1       4.746   4.227  15.521  0.00  0.00    +0.000 OA
ATOM     20  H   UNL     1       4.610   4.126  14.561  0.00  0.00    +0.000 HD
ENDBRANCH  17  19
ENDBRANCH  11  17
TORSDOF 4
ENDMDL
MODEL 6
REMARK VINA RESULT:      -6.3      1.531      1.628
REMARK  Name = 
REMARK  7 active torsions:
REMARK  status: ('A' for Active; 'I' for Inactive)
REMARK    1  A    between atoms: C_1  and  C_2
REMARK    2  A    between atoms: C_3  and  O_4
REMARK    3  A    between atoms: C_8  and  O_9
REMARK    4  A    between atoms: C_13  and  C_14
REMARK    5  A    between atoms: C_13  and  C_15
REMARK    6  A    between atoms: C_15  and  C_16
REMARK    7  A    between atoms: C_15  and  O_17
REMARK                            x       y       z     vdW  Elec       q    Type
REMARK                         _______ _______ _______ _____ _____    ______ ____
ROOT
ATOM      1  C   UNL     1       0.878   3.636  20.037  0.00  0.00    +0.000 C 
ATOM      2  C   UNL     1       2.090   3.817  19.166  0.00  0.00    +0.000 A 
ATOM      3  C   UNL     1       2.835   2.747  18.622  0.00  0.00    +0.000 A 
ATOM      4  C   UNL     1       3.976   2.961  17.842  0.00  0.00    +0.000 A 
ATOM      5  C   UNL     1       4.363   4.260  17.574  0.00  0.00    +0.000 A 
ATOM      6  C   UNL     1       3.627   5.312  18.075  0.00  0.00    +0.000 A 
ATOM      7  C   UNL     1       2.514   5.127  18.878  0.00  0.00    +0.000 A 
ATOM      8  C   UNL     1       4.186   6.554  17.571  0.00  0.00    +0.000 C 
ATOM      9  O   UNL     1       3.775   7.667  17.844  0.00  0.00    +0.000 OA
ATOM     10  O   UNL     1       5.199   6.219  16.721  0.00  0.00    +0.000 OA
ATOM     11  C   UNL     1       5.497   4.794  16.772  0.00  0.00    +0.000 C 
ATOM     12  C   UNL     1       6.820   4.642  17.534  0.00  0.00    +0.000 C 
ENDROOT
BRANCH   3  13
ATOM     13  O   UNL     1       2.516   1.430  18.796  0.00  0.00    +0.000 OA
ATOM     14  H   UNL     1       2.168   1.281  19.689  0.00  0.00    +0.000 HD
ENDBRANCH   3  13
BRANCH   7  15
ATOM     15  O   UNL     1       1.819   6.186  19.389  0.00  0.00    +0.000 OA
ATOM     16  H   UNL     1       0.965   5.865  19.754  0.00  0.00    +0.000 HD
ENDBRANCH   7  15
BRANCH  11  17
ATOM     17  C   UNL     1       5.585   4.203  15.339  0.00  0.00    +0.000 C 
ATOM     18  C   UNL     1       6.453   5.011  14.373  0.00  0.00    +0.000 C 
BRANCH  17  19
ATOM     19  O   UNL     1       6.112   2.871  15.370  0.00  0.00    +0.000 OA
ATOM     20  H   UNL     1       6.023   2.545  16.285  0.00  0.00    +0.000 HD
ENDBRANCH  17  19
ENDBRANCH  11  17
TORSDOF 4
ENDMDL
MODEL 7
REMARK VINA RESULT:      -6.2      1.771      4.853
REMARK  Name = 
REMARK  7 active torsions:
REMARK  status: ('A' for Active; 'I' for Inactive)
REMARK    1  A    between atoms: C_1  and  C_2
REMARK    2  A    between atoms: C_3  and  O_4
REMARK    3  A    between atoms: C_8  and  O_9
REMARK    4  A    between atoms: C_13  and  C_14
REMARK    5  A    between atoms: C_13  and  C_15
REMARK    6  A    between atoms: C_15  and  C_16
REMARK    7  A    between atoms: C_15  and  O_17
REMARK                            x       y       z     vdW  Elec       q    Type
REMARK                         _______ _______ _______ _____ _____    ______ ____
ROOT
ATOM      1  C   UNL     1       5.586   6.261  15.844  0.00  0.00    +0.000 C 
ATOM      2  C   UNL     1       4.776   5.418  16.789  0.00  0.00    +0.000 A 
ATOM      3  C   UNL     1       4.797   4.006  16.799  0.00  0.00    +0.000 A 
ATOM      4  C   UNL     1       4.001   3.260  17.675  0.00  0.00    +0.000 A 
ATOM      5  C   UNL     1       3.195   3.932  18.575  0.00  0.00    +0.000 A 
ATOM      6  C   UNL     1       3.189   5.309  18.594  0.00  0.00    +0.000 A 
ATOM      7  C   UNL     1       3.941   6.070  17.715  0.00  0.00    +0.000 A 
ATOM      8  C   UNL     1       2.341   5.756  19.685  0.00  0.00    +0.000 C 
ATOM      9  O   UNL     1       2.110   6.920  19.959  0.00  0.00    +0.000 OA
ATOM     10  O   UNL     1       1.915   4.640  20.342  0.00  0.00    +0.000 OA
ATOM     11  C   UNL     1       2.272   3.423  19.626  0.00  0.00    +0.000 C 
ATOM     12  C   UNL     1       0.982   2.880  18.999  0.00  0.00    +0.000 C 
ENDROOT
BRANCH   3  13
ATOM     13  O   UNL     1       5.583   3.250  15.978  0.00  0.00    +0.000 OA
ATOM     14  H   UNL     1       6.312   2.852  16.478  0.00  0.00    +0.000 HD
ENDBRANCH   3  13
BRANCH   7  15
ATOM     15  O   UNL     1       3.894   7.436  17.731  0.00  0.00    +0.000 OA
ATOM     16  H   UNL     1       3.541   7.735  18.598  0.00  0.00    +0.000 HD
ENDBRANCH   7  15
BRANCH  11  17
ATOM     17  C   UNL     1       2.924   2.394  20.588  0.00  0.00    +0.000 C 
ATOM     18  C   UNL     1       4.449   2.315  20.495  0.00  0.00    +0.000 C 
BRANCH  17  19
ATOM     19  O   UNL     1       2.597   2.693  21.950  0.00  0.00    +0.000 OA
ATOM     20  H   UNL     1       3.160   2.132  22.514  0.00  0.00    +0.000 HD
ENDBRANCH  17  19
ENDBRANCH  11  17
TORSDOF 4
ENDMDL
MODEL 8
REMARK VINA RESULT:      -6.1      1.836      3.123
REMARK  Name = 
REMARK  7 active torsions:
REMARK  status: ('A' for Active; 'I' for Inactive)
REMARK    1  A    between atoms: C_1  and  C_2
REMARK    2  A    between atoms: C_3  and  O_4
REMARK    3  A    between atoms: C_8  and  O_9
REMARK    4  A    between atoms: C_13  and  C_14
REMARK    5  A    between atoms: C_13  and  C_15
REMARK    6  A    between atoms: C_15  and  C_16
REMARK    7  A    between atoms: C_15  and  O_17
REMARK                            x       y       z     vdW  Elec       q    Type
REMARK                         _______ _______ _______ _____ _____    ______ ____
ROOT
ATOM      1  C   UNL     1       1.000   4.337  20.431  0.00  0.00    +0.000 C 
ATOM      2  C   UNL     1       2.146   4.848  19.603  0.00  0.00    +0.000 A 
ATOM      3  C   UNL     1       2.615   6.180  19.647  0.00  0.00    +0.000 A 
ATOM      4  C   UNL     1       3.665   6.622  18.834  0.00  0.00    +0.000 A 
ATOM      5  C   UNL     1       4.277   5.716  17.989  0.00  0.00    +0.000 A 
ATOM      6  C   UNL     1       3.847   4.407  17.959  0.00  0.00    +0.000 A 
ATOM      7  C   UNL     1       2.788   3.953  18.728  0.00  0.00    +0.000 A 
ATOM      8  C   UNL     1       4.711   3.653  17.069  0.00  0.00    +0.000 C 
ATOM      9  O   UNL     1       4.586   2.469  16.810  0.00  0.00    +0.000 OA
ATOM     10  O   UNL     1       5.684   4.506  16.640  0.00  0.00    +0.000 OA
ATOM     11  C   UNL     1       5.412   5.880  17.040  0.00  0.00    +0.000 C 
ATOM     12  C   UNL     1       4.962   6.630  15.780  0.00  0.00    +0.000 C 
ENDROOT
BRANCH   3  13
ATOM     13  O   UNL     1       2.105   7.141  20.472  0.00  0.00    +0.000 OA
ATOM     14  H   UNL     1       2.818   7.682  20.845  0.00  0.00    +0.000 HD
ENDBRANCH   3  13
BRANCH   7  15
ATOM     15  O   UNL     1       2.358   2.658  18.658  0.00  0.00    +0.000 OA
ATOM     16  H   UNL     1       2.576   2.295  17.772  0.00  0.00    +0.000 HD
ENDBRANCH   7  15
BRANCH  11  17
ATOM     17  C   UNL     1       6.673   6.524  17.676  0.00  0.00    +0.000 C 
ATOM     18  C   UNL     1       7.404   5.630  18.679  0.00  0.00    +0.000 C 
BRANCH  17  19
ATOM     19  O   UNL     1       7.619   6.893  16.667  0.00  0.00    +0.000 OA
ATOM     20  H   UNL     1       7.218   7.608  16.139  0.00  0.00    +0.000 HD
ENDBRANCH  17  19
ENDBRANCH  11  17
TORSDOF 4
ENDMDL
MODEL 9
REMARK VINA RESULT:      -6.1      1.772      3.009
REMARK  Name = 
REMARK  7 active torsions:
REMARK  status: ('A' for Active; 'I' for Inactive)
REMARK    1  A    between atoms: C_1  and  C_2
REMARK    2  A    between atoms: C_3  and  O_4
REMARK    3  A    between atoms: C_8  and  O_9
REMARK    4  A    between atoms: C_13  and  C_14
REMARK    5  A    between atoms: C_13  and  C_15
REMARK    6  A    between atoms: C_15  and  C_16
REMARK    7  A    between atoms: C_15  and  O_17
REMARK                            x       y       z     vdW  Elec       q    Type
REMARK                         _______ _______ _______ _____ _____    ______ ____
ROOT
ATOM      1  C   UNL     1       2.138   2.606  20.052  0.00  0.00    +0.000 C 
ATOM      2  C   UNL     1       3.030   3.606  19.369  0.00  0.00    +0.000 A 
ATOM      3  C   UNL     1       3.202   4.936  19.812  0.00  0.00    +0.000 A 
ATOM      4  C   UNL     1       4.017   5.844  19.127  0.00  0.00    +0.000 A 
ATOM      5  C   UNL     1       4.694   5.411  18.002  0.00  0.00    +0.000 A 
ATOM      6  C   UNL     1       4.556   4.108  17.578  0.00  0.00    +0.000 A 
ATOM      7  C   UNL     1       3.729   3.199  18.219  0.00  0.00    +0.000 A 
ATOM      8  C   UNL     1       5.438   3.890  16.446  0.00  0.00    +0.000 C 
ATOM      9  O   UNL     1       5.538   2.845  15.828  0.00  0.00    +0.000 OA
ATOM     10  O   UNL     1       6.141   5.044  16.260  0.00  0.00    +0.000 OA
ATOM     11  C   UNL     1       5.633   6.125  17.095  0.00  0.00    +0.000 C 
ATOM     12  C   UNL     1       4.872   7.083  16.170  0.00  0.00    +0.000 C 
ENDROOT
BRANCH   3  13
ATOM     13  O   UNL     1       2.609   5.451  20.929  0.00  0.00    +0.000 OA
ATOM     14  H   UNL     1       3.218   5.417  21.683  0.00  0.00    +0.000 HD
ENDBRANCH   3  13
BRANCH   7  15
ATOM     15  O   UNL     1       3.583   1.920  17.760  0.00  0.00    +0.000 OA
ATOM     16  H   UNL     1       4.364   1.390  18.033  0.00  0.00    +0.000 HD
ENDBRANCH   7  15
BRANCH  11  17
ATOM     17  C   UNL     1       6.798   6.838  17.833  0.00  0.00    +0.000 C 
ATOM     18  C   UNL     1       7.677   5.912  18.674  0.00  0.00    +0.000 C 
BRANCH  17  19
ATOM     19  O   UNL     1       7.656   7.507  16.901  0.00  0.00    +0.000 OA
ATOM     20  H   UNL     1       8.520   7.626  17.335  0.00  0.00    +0.000 HD
ENDBRANCH  17  19
ENDBRANCH  11  17
TORSDOF 4
ENDMDL
