MODEL 1
REMARK VINA RESULT:      -8.2      0.000      0.000
REMARK  Name = 
REMARK  7 active torsions:
REMARK  status: ('A' for Active; 'I' for Inactive)
REMARK    1  A    between atoms: C_5  and  C_6
REMARK    2  A    between atoms: C_6  and  C_7
REMARK    3  A    between atoms: C_10  and  S_11
REMARK    4  A    between atoms: S_11  and  C_12
REMARK    5  A    between atoms: C_12  and  C_13
REMARK    6  A    between atoms: C_20  and  O_21
REMARK    7  A    between atoms: O_21  and  C_22
REMARK                            x       y       z     vdW  Elec       q    Type
REMARK                         _______ _______ _______ _____ _____    ______ ____
ROOT
ATOM      1 CL   UNL     1       0.961   2.928  20.617  0.00  0.00    +0.000 Cl
ATOM      2  C   UNL     1       1.770   3.994  19.535  0.00  0.00    +0.000 A 
ATOM      3  C   UNL     1       2.377   3.484  18.394  0.00  0.00    +0.000 A 
ATOM      4  C   UNL     1       3.045   4.343  17.517  0.00  0.00    +0.000 A 
ATOM      5  C   UNL     1       3.155   5.715  17.798  0.00  0.00    +0.000 A 
ATOM      6  C   UNL     1       2.571   6.207  18.993  0.00  0.00    +0.000 A 
ATOM      7  C   UNL     1       1.830   5.355  19.822  0.00  0.00    +0.000 A 
ENDROOT
BRANCH   5   8
ATOM      8  C   UNL     1       3.868   6.684  16.870  0.00  0.00    +0.000 C 
BRANCH   8   9
ATOM      9  C   UNL     1       5.360   6.725  16.939  0.00  0.00    +0.000 A 
ATOM     10  N   UNL     1       6.223   6.274  16.045  0.00  0.00    +0.000 NA
ATOM     11  N   UNL     1       7.492   6.635  16.452  0.00  0.00    +0.000 NA
ATOM     12  C   UNL     1       7.368   7.285  17.579  0.00  0.00    +0.000 A 
ATOM     13  N   UNL     1       6.060   7.331  17.952  0.00  0.00    +0.000 N 
ATOM     14  H   UNL     1       5.689   7.778  18.776  0.00  0.00    +0.000 HD
BRANCH  12  15
ATOM     15  S   UNL     1       8.580   8.045  18.531  0.00  0.00    +0.000 S 
BRANCH  15  16
ATOM     16  C   UNL     1       8.276   9.797  18.126  0.00  0.00    +0.000 C 
BRANCH  16  17
ATOM     17  C   UNL     1       9.376  10.675  18.678  0.00  0.00    +0.000 A 
ATOM     18  C   UNL     1      10.374  11.188  17.833  0.00  0.00    +0.000 A 
ATOM     19  C   UNL     1      11.414  11.960  18.348  0.00  0.00    +0.000 A 
ATOM     20  C   UNL     1      11.475  12.232  19.717  0.00  0.00    +0.000 A 
ATOM     21  C   UNL     1      10.487  11.739  20.566  0.00  0.00    +0.000 A 
ATOM     22  C   UNL     1       9.446  10.963  20.051  0.00  0.00    +0.000 A 
ENDBRANCH  16  17
ENDBRANCH  15  16
ENDBRANCH  12  15
ENDBRANCH   8   9
ENDBRANCH   5   8
BRANCH   6  23
ATOM     23  O   UNL     1       2.754   7.552  19.255  0.00  0.00    +0.000 OA
BRANCH  23  24
ATOM     24  C   UNL     1       1.689   8.426  19.279  0.00  0.00    +0.000 A 
ATOM     25  C   UNL     1       1.339   8.951  18.025  0.00  0.00    +0.000 A 
ATOM     26  C   UNL     1       0.319   9.899  17.904  0.00  0.00    +0.000 A 
ATOM     27  C   UNL     1      -0.373  10.322  19.033  0.00  0.00    +0.000 A 
ATOM     28  C   UNL     1      -0.016   9.829  20.289  0.00  0.00    +0.000 A 
ATOM     29  C   UNL     1       1.037   8.913  20.422  0.00  0.00    +0.000 A 
ATOM     30 CL   UNL     1       1.514   8.511  22.035  0.00  0.00    +0.000 Cl
ENDBRANCH  23  24
ENDBRANCH   6  23
TORSDOF 7
ENDMDL
MODEL 2
REMARK VINA RESULT:      -7.8      4.508      8.254
REMARK  Name = 
REMARK  7 active torsions:
REMARK  status: ('A' for Active; 'I' for Inactive)
REMARK    1  A    between atoms: C_5  and  C_6
REMARK    2  A    between atoms: C_6  and  C_7
REMARK    3  A    between atoms: C_10  and  S_11
REMARK    4  A    between atoms: S_11  and  C_12
REMARK    5  A    between atoms: C_12  and  C_13
REMARK    6  A    between atoms: C_20  and  O_21
REMARK    7  A    between atoms: O_21  and  C_22
REMARK                            x       y       z     vdW  Elec       q    Type
REMARK                         _______ _______ _______ _____ _____    ______ ____
ROOT
ATOM      1 CL   UNL     1       2.021   1.571  18.756  0.00  0.00    +0.000 Cl
ATOM      2  C   UNL     1       2.071   3.200  19.310  0.00  0.00    +0.000 A 
ATOM      3  C   UNL     1       0.994   3.718  20.020  0.00  0.00    +0.000 A 
ATOM      4  C   UNL     1       1.023   5.043  20.462  0.00  0.00    +0.000 A 
ATOM      5  C   UNL     1       2.110   5.880  20.157  0.00  0.00    +0.000 A 
ATOM      6  C   UNL     1       3.175   5.346  19.390  0.00  0.00    +0.000 A 
ATOM      7  C   UNL     1       3.179   3.994  19.024  0.00  0.00    +0.000 A 
ENDROOT
BRANCH   5   8
ATOM      8  C   UNL     1       2.183   7.324  20.622  0.00  0.00    +0.000 C 
BRANCH   8   9
ATOM      9  C   UNL     1       1.780   8.380  19.645  0.00  0.00    +0.000 A 
ATOM     10  N   UNL     1       1.886   8.345  18.328  0.00  0.00    +0.000 NA
ATOM     11  N   UNL     1       1.273   9.472  17.817  0.00  0.00    +0.000 NA
ATOM     12  C   UNL     1       0.821  10.161  18.832  0.00  0.00    +0.000 A 
ATOM     13  N   UNL     1       1.150   9.546  20.000  0.00  0.00    +0.000 N 
ATOM     14  H   UNL     1       0.916   9.863  20.928  0.00  0.00    +0.000 HD
BRANCH  12  15
ATOM     15  S   UNL     1      -0.093  11.616  18.831  0.00  0.00    +0.000 S 
BRANCH  15  16
ATOM     16  C   UNL     1      -1.766  10.963  19.145  0.00  0.00    +0.000 C 
BRANCH  16  17
ATOM     17  C   UNL     1      -2.545  10.834  17.857  0.00  0.00    +0.000 A 
ATOM     18  C   UNL     1      -2.083  10.006  16.821  0.00  0.00    +0.000 A 
ATOM     19  C   UNL     1      -2.776   9.923  15.614  0.00  0.00    +0.000 A 
ATOM     20  C   UNL     1      -3.943  10.665  15.422  0.00  0.00    +0.000 A 
ATOM     21  C   UNL     1      -4.419  11.484  16.444  0.00  0.00    +0.000 A 
ATOM     22  C   UNL     1      -3.724  11.569  17.652  0.00  0.00    +0.000 A 
ENDBRANCH  16  17
ENDBRANCH  15  16
ENDBRANCH  12  15
ENDBRANCH   8   9
ENDBRANCH   5   8
BRANCH   6  23
ATOM     23  O   UNL     1       4.195   6.223  19.067  0.00  0.00    +0.000 OA
BRANCH  23  24
ATOM     24  C   UNL     1       5.083   5.940  18.051  0.00  0.00    +0.000 A 
ATOM     25  C   UNL     1       4.499   5.839  16.779  0.00  0.00    +0.000 A 
ATOM     26  C   UNL     1       5.267   5.494  15.663  0.00  0.00    +0.000 A 
ATOM     27  C   UNL     1       6.630   5.260  15.804  0.00  0.00    +0.000 A 
ATOM     28  C   UNL     1       7.217   5.330  17.067  0.00  0.00    +0.000 A 
ATOM     29  C   UNL     1       6.444   5.630  18.198  0.00  0.00    +0.000 A 
ATOM     30 CL   UNL     1       7.234   5.507  19.731  0.00  0.00    +0.000 Cl
ENDBRANCH  23  24
ENDBRANCH   6  23
TORSDOF 7
ENDMDL
MODEL 3
REMARK VINA RESULT:      -7.8      3.067      4.798
REMARK  Name = 
REMARK  7 active torsions:
REMARK  status: ('A' for Active; 'I' for Inactive)
REMARK    1  A    between atoms: C_5  and  C_6
REMARK    2  A    between atoms: C_6  and  C_7
REMARK    3  A    between atoms: C_10  and  S_11
REMARK    4  A    between atoms: S_11  and  C_12
REMARK    5  A    between atoms: C_12  and  C_13
REMARK    6  A    between atoms: C_20  and  O_21
REMARK    7  A    between atoms: O_21  and  C_22
REMARK                            x       y       z     vdW  Elec       q    Type
REMARK                         _______ _______ _______ _____ _____    ______ ____
ROOT
ATOM      1 CL   UNL     1       4.876   3.553  12.893  0.00  0.00    +0.000 Cl
ATOM      2  C   UNL     1       5.629   4.190  14.304  0.00  0.00    +0.000 A 
ATOM      3  C   UNL     1       6.988   4.479  14.285  0.00  0.00    +0.000 A 
ATOM      4  C   UNL     1       7.608   4.985  15.431  0.00  0.00    +0.000 A 
ATOM      5  C   UNL     1       6.885   5.161  16.623  0.00  0.00    +0.000 A 
ATOM      6  C   UNL     1       5.511   4.813  16.633  0.00  0.00    +0.000 A 
ATOM      7  C   UNL     1       4.877   4.388  15.459  0.00  0.00    +0.000 A 
ENDROOT
BRANCH   5   8
ATOM      8  C   UNL     1       7.519   5.712  17.889  0.00  0.00    +0.000 C 
BRANCH   8   9
ATOM      9  C   UNL     1       7.845   7.170  17.913  0.00  0.00    +0.000 A 
ATOM     10  N   UNL     1       7.413   8.108  17.089  0.00  0.00    +0.000 NA
ATOM     11  N   UNL     1       7.859   9.329  17.556  0.00  0.00    +0.000 NA
ATOM     12  C   UNL     1       8.552   9.100  18.640  0.00  0.00    +0.000 A 
ATOM     13  N   UNL     1       8.614   7.763  18.883  0.00  0.00    +0.000 N 
ATOM     14  H   UNL     1       9.080   7.318  19.658  0.00  0.00    +0.000 HD
BRANCH  12  15
ATOM     15  S   UNL     1       9.297  10.223  19.706  0.00  0.00    +0.000 S 
BRANCH  15  16
ATOM     16  C   UNL     1       9.449  11.675  18.614  0.00  0.00    +0.000 C 
BRANCH  16  17
ATOM     17  C   UNL     1       9.490  12.953  19.420  0.00  0.00    +0.000 A 
ATOM     18  C   UNL     1       8.952  14.143  18.902  0.00  0.00    +0.000 A 
ATOM     19  C   UNL     1       9.031  15.332  19.624  0.00  0.00    +0.000 A 
ATOM     20  C   UNL     1       9.649  15.353  20.877  0.00  0.00    +0.000 A 
ATOM     21  C   UNL     1      10.179  14.179  21.408  0.00  0.00    +0.000 A 
ATOM     22  C   UNL     1      10.102  12.987  20.683  0.00  0.00    +0.000 A 
ENDBRANCH  16  17
ENDBRANCH  15  16
ENDBRANCH  12  15
ENDBRANCH   8   9
ENDBRANCH   5   8
BRANCH   6  23
ATOM     23  O   UNL     1       4.855   4.949  17.843  0.00  0.00    +0.000 OA
BRANCH  23  24
ATOM     24  C   UNL     1       3.714   4.227  18.122  0.00  0.00    +0.000 A 
ATOM     25  C   UNL     1       3.895   2.836  18.132  0.00  0.00    +0.000 A 
ATOM     26  C   UNL     1       2.814   1.974  18.336  0.00  0.00    +0.000 A 
ATOM     27  C   UNL     1       1.541   2.494  18.547  0.00  0.00    +0.000 A 
ATOM     28  C   UNL     1       1.344   3.875  18.511  0.00  0.00    +0.000 A 
ATOM     29  C   UNL     1       2.416   4.742  18.261  0.00  0.00    +0.000 A 
ATOM     30 CL   UNL     1       2.027   6.415  18.054  0.00  0.00    +0.000 Cl
ENDBRANCH  23  24
ENDBRANCH   6  23
TORSDOF 7
ENDMDL
MODEL 4
REMARK VINA RESULT:      -7.6      4.978      8.595
REMARK  Name = 
REMARK  7 active torsions:
REMARK  status: ('A' for Active; 'I' for Inactive)
REMARK    1  A    between atoms: C_5  and  C_6
REMARK    2  A    between atoms: C_6  and  C_7
REMARK    3  A    between atoms: C_10  and  S_11
REMARK    4  A    between atoms: S_11  and  C_12
REMARK    5  A    between atoms: C_12  and  C_13
REMARK    6  A    between atoms: C_20  and  O_21
REMARK    7  A    between atoms: O_21  and  C_22
REMARK                            x       y       z     vdW  Elec       q    Type
REMARK                         _______ _______ _______ _____ _____    ______ ____
ROOT
ATOM      1 CL   UNL     1       1.530   1.668  18.776  0.00  0.00    +0.000 Cl
ATOM      2  C   UNL     1       1.863   3.312  19.158  0.00  0.00    +0.000 A 
ATOM      3  C   UNL     1       1.139   3.944  20.162  0.00  0.00    +0.000 A 
ATOM      4  C   UNL     1       1.396   5.283  20.470  0.00  0.00    +0.000 A 
ATOM      5  C   UNL     1       2.347   6.018  19.744  0.00  0.00    +0.000 A 
ATOM      6  C   UNL     1       3.039   5.369  18.691  0.00  0.00    +0.000 A 
ATOM      7  C   UNL     1       2.838   4.004  18.445  0.00  0.00    +0.000 A 
ENDROOT
BRANCH   5   8
ATOM      8  C   UNL     1       2.660   7.473  20.048  0.00  0.00    +0.000 C 
BRANCH   8   9
ATOM      9  C   UNL     1       1.552   8.312  20.596  0.00  0.00    +0.000 A 
ATOM     10  N   UNL     1       1.173   8.427  21.857  0.00  0.00    +0.000 NA
ATOM     11  N   UNL     1       0.199   9.404  21.926  0.00  0.00    +0.000 NA
ATOM     12  C   UNL     1       0.009   9.848  20.712  0.00  0.00    +0.000 A 
ATOM     13  N   UNL     1       0.796   9.168  19.835  0.00  0.00    +0.000 N 
ATOM     14  H   UNL     1       0.849   9.318  18.839  0.00  0.00    +0.000 HD
BRANCH  12  15
ATOM     15  S   UNL     1      -1.020  11.113  20.170  0.00  0.00    +0.000 S 
BRANCH  15  16
ATOM     16  C   UNL     1      -0.910  10.888  18.365  0.00  0.00    +0.000 C 
BRANCH  16  17
ATOM     17  C   UNL     1      -2.267  11.043  17.718  0.00  0.00    +0.000 A 
ATOM     18  C   UNL     1      -2.424  10.869  16.333  0.00  0.00    +0.000 A 
ATOM     19  C   UNL     1      -3.666  11.058  15.729  0.00  0.00    +0.000 A 
ATOM     20  C   UNL     1      -4.773  11.424  16.499  0.00  0.00    +0.000 A 
ATOM     21  C   UNL     1      -4.635  11.591  17.875  0.00  0.00    +0.000 A 
ATOM     22  C   UNL     1      -3.390  11.404  18.481  0.00  0.00    +0.000 A 
ENDBRANCH  16  17
ENDBRANCH  15  16
ENDBRANCH  12  15
ENDBRANCH   8   9
ENDBRANCH   5   8
BRANCH   6  23
ATOM     23  O   UNL     1       3.924   6.148  17.968  0.00  0.00    +0.000 OA
BRANCH  23  24
ATOM     24  C   UNL     1       5.006   5.588  17.324  0.00  0.00    +0.000 A 
ATOM     25  C   UNL     1       4.773   5.249  15.982  0.00  0.00    +0.000 A 
ATOM     26  C   UNL     1       5.759   4.614  15.221  0.00  0.00    +0.000 A 
ATOM     27  C   UNL     1       6.995   4.325  15.789  0.00  0.00    +0.000 A 
ATOM     28  C   UNL     1       7.229   4.631  17.130  0.00  0.00    +0.000 A 
ATOM     29  C   UNL     1       6.228   5.226  17.911  0.00  0.00    +0.000 A 
ATOM     30 CL   UNL     1       6.560   5.392  19.600  0.00  0.00    +0.000 Cl
ENDBRANCH  23  24
ENDBRANCH   6  23
TORSDOF 7
ENDMDL
MODEL 5
REMARK VINA RESULT:      -7.5      4.678      8.375
REMARK  Name = 
REMARK  7 active torsions:
REMARK  status: ('A' for Active; 'I' for Inactive)
REMARK    1  A    between atoms: C_5  and  C_6
REMARK    2  A    between atoms: C_6  and  C_7
REMARK    3  A    between atoms: C_10  and  S_11
REMARK    4  A    between atoms: S_11  and  C_12
REMARK    5  A    between atoms: C_12  and  C_13
REMARK    6  A    between atoms: C_20  and  O_21
REMARK    7  A    between atoms: O_21  and  C_22
REMARK                            x       y       z     vdW  Elec       q    Type
REMARK                         _______ _______ _______ _____ _____    ______ ____
ROOT
ATOM      1 CL   UNL     1       6.774   4.384  15.648  0.00  0.00    +0.000 Cl
ATOM      2  C   UNL     1       5.460   5.169  16.435  0.00  0.00    +0.000 A 
ATOM      3  C   UNL     1       5.551   6.522  16.739  0.00  0.00    +0.000 A 
ATOM      4  C   UNL     1       4.493   7.164  17.389  0.00  0.00    +0.000 A 
ATOM      5  C   UNL     1       3.351   6.446  17.785  0.00  0.00    +0.000 A 
ATOM      6  C   UNL     1       3.300   5.057  17.509  0.00  0.00    +0.000 A 
ATOM      7  C   UNL     1       4.326   4.440  16.782  0.00  0.00    +0.000 A 
ENDROOT
BRANCH   5   8
ATOM      8  C   UNL     1       2.177   7.105  18.489  0.00  0.00    +0.000 C 
BRANCH   8   9
ATOM      9  C   UNL     1       2.041   8.587  18.353  0.00  0.00    +0.000 A 
ATOM     10  N   UNL     1       2.771   9.401  17.611  0.00  0.00    +0.000 NA
ATOM     11  N   UNL     1       2.217  10.664  17.686  0.00  0.00    +0.000 NA
ATOM     12  C   UNL     1       1.177  10.585  18.473  0.00  0.00    +0.000 A 
ATOM     13  N   UNL     1       1.048   9.319  18.954  0.00  0.00    +0.000 N 
ATOM     14  H   UNL     1       0.326   8.987  19.575  0.00  0.00    +0.000 HD
BRANCH  12  15
ATOM     15  S   UNL     1       0.042  11.805  18.894  0.00  0.00    +0.000 S 
BRANCH  15  16
ATOM     16  C   UNL     1      -1.439  10.792  19.215  0.00  0.00    +0.000 C 
BRANCH  16  17
ATOM     17  C   UNL     1      -2.333  10.743  17.998  0.00  0.00    +0.000 A 
ATOM     18  C   UNL     1      -1.965   9.991  16.870  0.00  0.00    +0.000 A 
ATOM     19  C   UNL     1      -2.766   9.983  15.729  0.00  0.00    +0.000 A 
ATOM     20  C   UNL     1      -3.949  10.727  15.696  0.00  0.00    +0.000 A 
ATOM     21  C   UNL     1      -4.331  11.469  16.811  0.00  0.00    +0.000 A 
ATOM     22  C   UNL     1      -3.528  11.480  17.953  0.00  0.00    +0.000 A 
ENDBRANCH  16  17
ENDBRANCH  15  16
ENDBRANCH  12  15
ENDBRANCH   8   9
ENDBRANCH   5   8
BRANCH   6  23
ATOM     23  O   UNL     1       2.183   4.383  17.969  0.00  0.00    +0.000 OA
BRANCH  23  24
ATOM     24  C   UNL     1       2.209   3.688  19.159  0.00  0.00    +0.000 A 
ATOM     25  C   UNL     1       1.753   4.416  20.268  0.00  0.00    +0.000 A 
ATOM     26  C   UNL     1       1.781   3.862  21.551  0.00  0.00    +0.000 A 
ATOM     27  C   UNL     1       2.253   2.567  21.737  0.00  0.00    +0.000 A 
ATOM     28  C   UNL     1       2.735   1.843  20.647  0.00  0.00    +0.000 A 
ATOM     29  C   UNL     1       2.751   2.410  19.365  0.00  0.00    +0.000 A 
ATOM     30 CL   UNL     1       3.539   1.498  18.124  0.00  0.00    +0.000 Cl
ENDBRANCH  23  24
ENDBRANCH   6  23
TORSDOF 7
ENDMDL
MODEL 6
REMARK VINA RESULT:      -7.3      5.346      7.967
REMARK  Name = 
REMARK  7 active torsions:
REMARK  status: ('A' for Active; 'I' for Inactive)
REMARK    1  A    between atoms: C_5  and  C_6
REMARK    2  A    between atoms: C_6  and  C_7
REMARK    3  A    between atoms: C_10  and  S_11
REMARK    4  A    between atoms: S_11  and  C_12
REMARK    5  A    between atoms: C_12  and  C_13
REMARK    6  A    between atoms: C_20  and  O_21
REMARK    7  A    between atoms: O_21  and  C_22
REMARK                            x       y       z     vdW  Elec       q    Type
REMARK                         _______ _______ _______ _____ _____    ______ ____
ROOT
ATOM      1 CL   UNL     1      -4.643  11.867  17.168  0.00  0.00    +0.000 Cl
ATOM      2  C   UNL     1      -3.156  11.308  17.829  0.00  0.00    +0.000 A 
ATOM      3  C   UNL     1      -2.677  10.052  17.479  0.00  0.00    +0.000 A 
ATOM      4  C   UNL     1      -1.476   9.587  18.021  0.00  0.00    +0.000 A 
ATOM      5  C   UNL     1      -0.764  10.355  18.958  0.00  0.00    +0.000 A 
ATOM      6  C   UNL     1      -1.296  11.613  19.339  0.00  0.00    +0.000 A 
ATOM      7  C   UNL     1      -2.454  12.109  18.727  0.00  0.00    +0.000 A 
ENDROOT
BRANCH   5   8
ATOM      8  C   UNL     1       0.547   9.890  19.568  0.00  0.00    +0.000 C 
BRANCH   8   9
ATOM      9  C   UNL     1       1.486   9.138  18.682  0.00  0.00    +0.000 A 
ATOM     10  N   UNL     1       2.075   9.568  17.579  0.00  0.00    +0.000 NA
ATOM     11  N   UNL     1       2.957   8.594  17.156  0.00  0.00    +0.000 NA
ATOM     12  C   UNL     1       2.875   7.601  18.002  0.00  0.00    +0.000 A 
ATOM     13  N   UNL     1       1.937   7.870  18.950  0.00  0.00    +0.000 N 
ATOM     14  H   UNL     1       1.682   7.276  19.723  0.00  0.00    +0.000 HD
BRANCH  12  15
ATOM     15  S   UNL     1       3.776   6.139  18.047  0.00  0.00    +0.000 S 
BRANCH  15  16
ATOM     16  C   UNL     1       2.433   4.912  17.934  0.00  0.00    +0.000 C 
BRANCH  16  17
ATOM     17  C   UNL     1       2.381   4.053  19.176  0.00  0.00    +0.000 A 
ATOM     18  C   UNL     1       1.213   3.991  19.955  0.00  0.00    +0.000 A 
ATOM     19  C   UNL     1       1.179   3.236  21.127  0.00  0.00    +0.000 A 
ATOM     20  C   UNL     1       2.312   2.531  21.540  0.00  0.00    +0.000 A 
ATOM     21  C   UNL     1       3.474   2.576  20.774  0.00  0.00    +0.000 A 
ATOM     22  C   UNL     1       3.510   3.333  19.601  0.00  0.00    +0.000 A 
ENDBRANCH  16  17
ENDBRANCH  15  16
ENDBRANCH  12  15
ENDBRANCH   8   9
ENDBRANCH   5   8
BRANCH   6  23
ATOM     23  O   UNL     1      -0.591  12.307  20.306  0.00  0.00    +0.000 OA
BRANCH  23  24
ATOM     24  C   UNL     1      -1.220  12.808  21.426  0.00  0.00    +0.000 A 
ATOM     25  C   UNL     1      -1.750  11.830  22.281  0.00  0.00    +0.000 A 
ATOM     26  C   UNL     1      -2.471  12.191  23.423  0.00  0.00    +0.000 A 
ATOM     27  C   UNL     1      -2.659  13.534  23.730  0.00  0.00    +0.000 A 
ATOM     28  C   UNL     1      -2.162  14.516  22.872  0.00  0.00    +0.000 A 
ATOM     29  C   UNL     1      -1.477  14.160  21.701  0.00  0.00    +0.000 A 
ATOM     30 CL   UNL     1      -1.069  15.447  20.620  0.00  0.00    +0.000 Cl
ENDBRANCH  23  24
ENDBRANCH   6  23
TORSDOF 7
ENDMDL
MODEL 7
REMARK VINA RESULT:      -7.3      4.769      8.557
REMARK  Name = 
REMARK  7 active torsions:
REMARK  status: ('A' for Active; 'I' for Inactive)
REMARK    1  A    between atoms: C_5  and  C_6
REMARK    2  A    between atoms: C_6  and  C_7
REMARK    3  A    between atoms: C_10  and  S_11
REMARK    4  A    between atoms: S_11  and  C_12
REMARK    5  A    between atoms: C_12  and  C_13
REMARK    6  A    between atoms: C_20  and  O_21
REMARK    7  A    between atoms: O_21  and  C_22
REMARK                            x       y       z     vdW  Elec       q    Type
REMARK                         _______ _______ _______ _____ _____    ______ ____
ROOT
ATOM      1 CL   UNL     1       3.655   2.839  20.317  0.00  0.00    +0.000 Cl
ATOM      2  C   UNL     1       3.329   4.427  19.738  0.00  0.00    +0.000 A 
ATOM      3  C   UNL     1       2.265   5.146  20.270  0.00  0.00    +0.000 A 
ATOM      4  C   UNL     1       1.986   6.431  19.796  0.00  0.00    +0.000 A 
ATOM      5  C   UNL     1       2.740   6.992  18.752  0.00  0.00    +0.000 A 
ATOM      6  C   UNL     1       3.789   6.222  18.190  0.00  0.00    +0.000 A 
ATOM      7  C   UNL     1       4.117   4.970  18.727  0.00  0.00    +0.000 A 
ENDROOT
BRANCH   5   8
ATOM      8  C   UNL     1       2.474   8.386  18.211  0.00  0.00    +0.000 C 
BRANCH   8   9
ATOM      9  C   UNL     1       1.390   9.180  18.865  0.00  0.00    +0.000 A 
ATOM     10  N   UNL     1       0.322   9.710  18.296  0.00  0.00    +0.000 NA
ATOM     11  N   UNL     1      -0.475  10.242  19.291  0.00  0.00    +0.000 NA
ATOM     12  C   UNL     1       0.131  10.029  20.429  0.00  0.00    +0.000 A 
ATOM     13  N   UNL     1       1.323   9.408  20.216  0.00  0.00    +0.000 N 
ATOM     14  H   UNL     1       1.982   9.124  20.924  0.00  0.00    +0.000 HD
BRANCH  12  15
ATOM     15  S   UNL     1      -0.399  10.393  22.023  0.00  0.00    +0.000 S 
BRANCH  15  16
ATOM     16  C   UNL     1      -0.421  12.215  21.962  0.00  0.00    +0.000 C 
BRANCH  16  17
ATOM     17  C   UNL     1      -1.472  12.772  22.893  0.00  0.00    +0.000 A 
ATOM     18  C   UNL     1      -2.670  12.074  23.120  0.00  0.00    +0.000 A 
ATOM     19  C   UNL     1      -3.661  12.609  23.942  0.00  0.00    +0.000 A 
ATOM     20  C   UNL     1      -3.471  13.851  24.552  0.00  0.00    +0.000 A 
ATOM     21  C   UNL     1      -2.284  14.551  24.345  0.00  0.00    +0.000 A 
ATOM     22  C   UNL     1      -1.293  14.017  23.519  0.00  0.00    +0.000 A 
ENDBRANCH  16  17
ENDBRANCH  15  16
ENDBRANCH  12  15
ENDBRANCH   8   9
ENDBRANCH   5   8
BRANCH   6  23
ATOM     23  O   UNL     1       4.466   6.792  17.127  0.00  0.00    +0.000 OA
BRANCH  23  24
ATOM     24  C   UNL     1       5.377   6.067  16.390  0.00  0.00    +0.000 A 
ATOM     25  C   UNL     1       4.824   5.364  15.309  0.00  0.00    +0.000 A 
ATOM     26  C   UNL     1       5.617   4.535  14.511  0.00  0.00    +0.000 A 
ATOM     27  C   UNL     1       6.977   4.411  14.776  0.00  0.00    +0.000 A 
ATOM     28  C   UNL     1       7.533   5.082  15.865  0.00  0.00    +0.000 A 
ATOM     29  C   UNL     1       6.734   5.879  16.696  0.00  0.00    +0.000 A 
ATOM     30 CL   UNL     1       7.486   6.513  18.118  0.00  0.00    +0.000 Cl
ENDBRANCH  23  24
ENDBRANCH   6  23
TORSDOF 7
ENDMDL
MODEL 8
REMARK VINA RESULT:      -7.3      4.967      7.102
REMARK  Name = 
REMARK  7 active torsions:
REMARK  status: ('A' for Active; 'I' for Inactive)
REMARK    1  A    between atoms: C_5  and  C_6
REMARK    2  A    between atoms: C_6  and  C_7
REMARK    3  A    between atoms: C_10  and  S_11
REMARK    4  A    between atoms: S_11  and  C_12
REMARK    5  A    between atoms: C_12  and  C_13
REMARK    6  A    between atoms: C_20  and  O_21
REMARK    7  A    between atoms: O_21  and  C_22
REMARK                            x       y       z     vdW  Elec       q    Type
REMARK                         _______ _______ _______ _____ _____    ______ ____
ROOT
ATOM      1 CL   UNL     1       1.748   1.713  18.818  0.00  0.00    +0.000 Cl
ATOM      2  C   UNL     1       1.992   3.395  19.090  0.00  0.00    +0.000 A 
ATOM      3  C   UNL     1       1.253   4.047  20.071  0.00  0.00    +0.000 A 
ATOM      4  C   UNL     1       1.438   5.414  20.289  0.00  0.00    +0.000 A 
ATOM      5  C   UNL     1       2.330   6.156  19.496  0.00  0.00    +0.000 A 
ATOM      6  C   UNL     1       3.037   5.482  18.468  0.00  0.00    +0.000 A 
ATOM      7  C   UNL     1       2.910   4.096  18.312  0.00  0.00    +0.000 A 
ENDROOT
BRANCH   5   8
ATOM      8  C   UNL     1       2.564   7.643  19.703  0.00  0.00    +0.000 C 
BRANCH   8   9
ATOM      9  C   UNL     1       1.474   8.422  20.364  0.00  0.00    +0.000 A 
ATOM     10  N   UNL     1       1.036   8.306  21.605  0.00  0.00    +0.000 NA
ATOM     11  N   UNL     1       0.113   9.308  21.830  0.00  0.00    +0.000 NA
ATOM     12  C   UNL     1       0.010   9.997  20.724  0.00  0.00    +0.000 A 
ATOM     13  N   UNL     1       0.805   9.458  19.761  0.00  0.00    +0.000 N 
ATOM     14  H   UNL     1       0.917   9.800  18.819  0.00  0.00    +0.000 HD
BRANCH  12  15
ATOM     15  S   UNL     1      -0.922  11.405  20.409  0.00  0.00    +0.000 S 
BRANCH  15  16
ATOM     16  C   UNL     1      -0.413  11.769  18.696  0.00  0.00    +0.000 C 
BRANCH  16  17
ATOM     17  C   UNL     1       0.485  12.984  18.648  0.00  0.00    +0.000 A 
ATOM     18  C   UNL     1       1.873  12.841  18.481  0.00  0.00    +0.000 A 
ATOM     19  C   UNL     1       2.708  13.957  18.483  0.00  0.00    +0.000 A 
ATOM     20  C   UNL     1       2.170  15.235  18.653  0.00  0.00    +0.000 A 
ATOM     21  C   UNL     1       0.795  15.393  18.810  0.00  0.00    +0.000 A 
ATOM     22  C   UNL     1      -0.041  14.275  18.810  0.00  0.00    +0.000 A 
ENDBRANCH  16  17
ENDBRANCH  15  16
ENDBRANCH  12  15
ENDBRANCH   8   9
ENDBRANCH   5   8
BRANCH   6  23
ATOM     23  O   UNL     1       3.859   6.263  17.677  0.00  0.00    +0.000 OA
BRANCH  23  24
ATOM     24  C   UNL     1       4.994   5.742  17.094  0.00  0.00    +0.000 A 
ATOM     25  C   UNL     1       4.879   5.494  15.718  0.00  0.00    +0.000 A 
ATOM     26  C   UNL     1       5.928   4.906  15.006  0.00  0.00    +0.000 A 
ATOM     27  C   UNL     1       7.110   4.573  15.659  0.00  0.00    +0.000 A 
ATOM     28  C   UNL     1       7.226   4.788  17.032  0.00  0.00    +0.000 A 
ATOM     29  C   UNL     1       6.160   5.335  17.761  0.00  0.00    +0.000 A 
ATOM     30 CL   UNL     1       6.342   5.387  19.480  0.00  0.00    +0.000 Cl
ENDBRANCH  23  24
ENDBRANCH   6  23
TORSDOF 7
ENDMDL
MODEL 9
REMARK VINA RESULT:      -7.3      4.787      8.135
REMARK  Name = 
REMARK  7 active torsions:
REMARK  status: ('A' for Active; 'I' for Inactive)
REMARK    1  A    between atoms: C_5  and  C_6
REMARK    2  A    between atoms: C_6  and  C_7
REMARK    3  A    between atoms: C_10  and  S_11
REMARK    4  A    between atoms: S_11  and  C_12
REMARK    5  A    between atoms: C_12  and  C_13
REMARK    6  A    between atoms: C_20  and  O_21
REMARK    7  A    between atoms: O_21  and  C_22
REMARK                            x       y       z     vdW  Elec       q    Type
REMARK                         _______ _______ _______ _____ _____    ______ ____
ROOT
ATOM      1 CL   UNL     1       1.379   1.584  18.779  0.00  0.00    +0.000 Cl
ATOM      2  C   UNL     1       1.776   3.235  19.063  0.00  0.00    +0.000 A 
ATOM      3  C   UNL     1       1.193   3.908  20.129  0.00  0.00    +0.000 A 
ATOM      4  C   UNL     1       1.502   5.252  20.358  0.00  0.00    +0.000 A 
ATOM      5  C   UNL     1       2.361   5.950  19.493  0.00  0.00    +0.000 A 
ATOM      6  C   UNL     1       2.906   5.257  18.383  0.00  0.00    +0.000 A 
ATOM      7  C   UNL     1       2.661   3.889  18.209  0.00  0.00    +0.000 A 
ENDROOT
BRANCH   5   8
ATOM      8  C   UNL     1       2.727   7.409  19.708  0.00  0.00    +0.000 C 
BRANCH   8   9
ATOM      9  C   UNL     1       1.844   8.436  19.076  0.00  0.00    +0.000 A 
ATOM     10  N   UNL     1       1.647   8.648  17.787  0.00  0.00    +0.000 NA
ATOM     11  N   UNL     1       0.658   9.603  17.655  0.00  0.00    +0.000 NA
ATOM     12  C   UNL     1       0.290   9.949  18.860  0.00  0.00    +0.000 A 
ATOM     13  N   UNL     1       1.031   9.283  19.786  0.00  0.00    +0.000 N 
ATOM     14  H   UNL     1       0.945   9.359  20.788  0.00  0.00    +0.000 HD
BRANCH  12  15
ATOM     15  S   UNL     1      -0.948  11.038  19.344  0.00  0.00    +0.000 S 
BRANCH  15  16
ATOM     16  C   UNL     1      -0.682  11.071  21.147  0.00  0.00    +0.000 C 
BRANCH  16  17
ATOM     17  C   UNL     1      -1.526  12.144  21.797  0.00  0.00    +0.000 A 
ATOM     18  C   UNL     1      -1.102  12.766  22.983  0.00  0.00    +0.000 A 
ATOM     19  C   UNL     1      -1.901  13.722  23.609  0.00  0.00    +0.000 A 
ATOM     20  C   UNL     1      -3.137  14.073  23.059  0.00  0.00    +0.000 A 
ATOM     21  C   UNL     1      -3.566  13.471  21.878  0.00  0.00    +0.000 A 
ATOM     22  C   UNL     1      -2.767  12.511  21.252  0.00  0.00    +0.000 A 
ENDBRANCH  16  17
ENDBRANCH  15  16
ENDBRANCH  12  15
ENDBRANCH   8   9
ENDBRANCH   5   8
BRANCH   6  23
ATOM     23  O   UNL     1       3.700   6.000  17.528  0.00  0.00    +0.000 OA
BRANCH  23  24
ATOM     24  C   UNL     1       4.884   5.496  17.034  0.00  0.00    +0.000 A 
ATOM     25  C   UNL     1       4.860   5.191  15.665  0.00  0.00    +0.000 A 
ATOM     26  C   UNL     1       5.968   4.612  15.039  0.00  0.00    +0.000 A 
ATOM     27  C   UNL     1       7.118   4.345  15.773  0.00  0.00    +0.000 A 
ATOM     28  C   UNL     1       7.145   4.617  17.141  0.00  0.00    +0.000 A 
ATOM     29  C   UNL     1       6.020   5.155  17.784  0.00  0.00    +0.000 A 
ATOM     30 CL   UNL     1       6.097   5.278  19.507  0.00  0.00    +0.000 Cl
ENDBRANCH  23  24
ENDBRANCH   6  23
TORSDOF 7
ENDMDL
