MODEL 1
REMARK VINA RESULT:      -7.1      0.000      0.000
REMARK  Name = 
REMARK  2 active torsions:
REMARK  status: ('A' for Active; 'I' for Inactive)
REMARK    1  A    between atoms: S_2  and  N_4
REMARK    2  A    between atoms: S_2  and  C_12
REMARK                            x       y       z     vdW  Elec       q    Type
REMARK                         _______ _______ _______ _____ _____    ______ ____
ROOT
ATOM      1  O   UNL     1       4.984   6.115  15.979  0.00  0.00    +0.000 OA
ATOM      2  S   UNL     1       6.265   5.441  16.017  0.00  0.00    +0.000 S 
ATOM      3  O   UNL     1       7.465   6.158  16.394  0.00  0.00    +0.000 OA
ENDROOT
BRANCH   2   4
ATOM      4  N   UNL     1       6.067   4.109  17.032  0.00  0.00    +0.000 N 
ATOM      5  C   UNL     1       4.827   4.019  17.695  0.00  0.00    +0.000 A 
ATOM      6  C   UNL     1       3.701   3.483  17.094  0.00  0.00    +0.000 A 
ATOM      7  C   UNL     1       2.537   3.395  17.855  0.00  0.00    +0.000 A 
ATOM      8  C   UNL     1       2.548   3.870  19.162  0.00  0.00    +0.000 A 
ATOM      9 BR   UNL     1       1.009   3.755  20.243  0.00  0.00    +0.000 Br
ATOM     10  C   UNL     1       3.724   4.420  19.656  0.00  0.00    +0.000 A 
ATOM     11  N   UNL     1       4.876   4.502  18.946  0.00  0.00    +0.000 NA
ATOM     12  H   UNL     1       6.820   4.078  17.715  0.00  0.00    +0.000 HD
ENDBRANCH   2   4
BRANCH   2  13
ATOM     13  C   UNL     1       6.516   4.741  14.417  0.00  0.00    +0.000 A 
ATOM     14  C   UNL     1       5.621   3.809  13.890  0.00  0.00    +0.000 A 
ATOM     15  C   UNL     1       5.810   3.359  12.585  0.00  0.00    +0.000 A 
ATOM     16  C   UNL     1       6.880   3.867  11.863  0.00  0.00    +0.000 A 
ATOM     17  N   UNL     1       7.754   4.777  12.352  0.00  0.00    +0.000 NA
ATOM     18  C   UNL     1       7.545   5.206  13.621  0.00  0.00    +0.000 A 
ENDBRANCH   2  13
TORSDOF 2
ENDMDL
MODEL 2
REMARK VINA RESULT:      -7.1      3.236      3.839
REMARK  Name = 
REMARK  2 active torsions:
REMARK  status: ('A' for Active; 'I' for Inactive)
REMARK    1  A    between atoms: S_2  and  N_4
REMARK    2  A    between atoms: S_2  and  C_12
REMARK                            x       y       z     vdW  Elec       q    Type
REMARK                         _______ _______ _______ _____ _____    ______ ____
ROOT
ATOM      1  O   UNL     1       5.390   5.554  19.687  0.00  0.00    +0.000 OA
ATOM      2  S   UNL     1       4.934   4.362  19.000  0.00  0.00    +0.000 S 
ATOM      3  O   UNL     1       5.143   3.052  19.579  0.00  0.00    +0.000 OA
ENDROOT
BRANCH   2   4
ATOM      4  N   UNL     1       3.289   4.588  18.705  0.00  0.00    +0.000 N 
ATOM      5  C   UNL     1       2.802   5.894  18.905  0.00  0.00    +0.000 A 
ATOM      6  C   UNL     1       2.911   6.882  17.942  0.00  0.00    +0.000 A 
ATOM      7  C   UNL     1       2.351   8.128  18.220  0.00  0.00    +0.000 A 
ATOM      8  C   UNL     1       1.738   8.331  19.452  0.00  0.00    +0.000 A 
ATOM      9 BR   UNL     1       0.945   9.988  19.872  0.00  0.00    +0.000 Br
ATOM     10  C   UNL     1       1.713   7.281  20.360  0.00  0.00    +0.000 A 
ATOM     11  N   UNL     1       2.232   6.054  20.110  0.00  0.00    +0.000 NA
ATOM     12  H   UNL     1       2.744   3.933  19.262  0.00  0.00    +0.000 HD
ENDBRANCH   2   4
BRANCH   2  13
ATOM     13  C   UNL     1       5.675   4.386  17.400  0.00  0.00    +0.000 A 
ATOM     14  C   UNL     1       4.906   4.227  16.246  0.00  0.00    +0.000 A 
ATOM     15  C   UNL     1       5.524   4.350  15.004  0.00  0.00    +0.000 A 
ATOM     16  C   UNL     1       6.880   4.635  14.969  0.00  0.00    +0.000 A 
ATOM     17  N   UNL     1       7.643   4.801  16.075  0.00  0.00    +0.000 NA
ATOM     18  C   UNL     1       7.018   4.685  17.272  0.00  0.00    +0.000 A 
ENDBRANCH   2  13
TORSDOF 2
ENDMDL
MODEL 3
REMARK VINA RESULT:      -6.7      0.703      1.191
REMARK  Name = 
REMARK  2 active torsions:
REMARK  status: ('A' for Active; 'I' for Inactive)
REMARK    1  A    between atoms: S_2  and  N_4
REMARK    2  A    between atoms: S_2  and  C_12
REMARK                            x       y       z     vdW  Elec       q    Type
REMARK                         _______ _______ _______ _____ _____    ______ ____
ROOT
ATOM      1  O   UNL     1       5.137   6.137  16.198  0.00  0.00    +0.000 OA
ATOM      2  S   UNL     1       6.322   5.304  16.150  0.00  0.00    +0.000 S 
ATOM      3  O   UNL     1       7.586   5.790  16.661  0.00  0.00    +0.000 OA
ENDROOT
BRANCH   2   4
ATOM      4  N   UNL     1       5.918   3.866  16.931  0.00  0.00    +0.000 N 
ATOM      5  C   UNL     1       4.700   3.871  17.639  0.00  0.00    +0.000 A 
ATOM      6  C   UNL     1       3.482   3.649  17.022  0.00  0.00    +0.000 A 
ATOM      7  C   UNL     1       2.341   3.625  17.822  0.00  0.00    +0.000 A 
ATOM      8  C   UNL     1       2.471   3.850  19.188  0.00  0.00    +0.000 A 
ATOM      9 BR   UNL     1       0.965   3.806  20.320  0.00  0.00    +0.000 Br
ATOM     10  C   UNL     1       3.738   4.095  19.701  0.00  0.00    +0.000 A 
ATOM     11  N   UNL     1       4.867   4.106  18.950  0.00  0.00    +0.000 NA
ATOM     12  H   UNL     1       6.672   3.586  17.554  0.00  0.00    +0.000 HD
ENDBRANCH   2   4
BRANCH   2  13
ATOM     13  C   UNL     1       6.545   4.841  14.463  0.00  0.00    +0.000 A 
ATOM     14  C   UNL     1       7.583   5.376  13.699  0.00  0.00    +0.000 A 
ATOM     15  C   UNL     1       7.775   4.906  12.402  0.00  0.00    +0.000 A 
ATOM     16  C   UNL     1       6.927   3.917  11.928  0.00  0.00    +0.000 A 
ATOM     17  N   UNL     1       5.920   3.378  12.655  0.00  0.00    +0.000 NA
ATOM     18  C   UNL     1       5.758   3.845  13.917  0.00  0.00    +0.000 A 
ENDBRANCH   2  13
TORSDOF 2
ENDMDL
MODEL 4
REMARK VINA RESULT:      -6.7      1.163      1.634
REMARK  Name = 
REMARK  2 active torsions:
REMARK  status: ('A' for Active; 'I' for Inactive)
REMARK    1  A    between atoms: S_2  and  N_4
REMARK    2  A    between atoms: S_2  and  C_12
REMARK                            x       y       z     vdW  Elec       q    Type
REMARK                         _______ _______ _______ _____ _____    ______ ____
ROOT
ATOM      1  O   UNL     1       7.478   6.543  16.391  0.00  0.00    +0.000 OA
ATOM      2  S   UNL     1       6.645   5.362  16.293  0.00  0.00    +0.000 S 
ATOM      3  O   UNL     1       6.847   4.242  17.188  0.00  0.00    +0.000 OA
ENDROOT
BRANCH   2   4
ATOM      4  N   UNL     1       5.051   5.897  16.416  0.00  0.00    +0.000 N 
ATOM      5  C   UNL     1       4.291   5.334  17.460  0.00  0.00    +0.000 A 
ATOM      6  C   UNL     1       4.345   5.810  18.758  0.00  0.00    +0.000 A 
ATOM      7  C   UNL     1       3.515   5.214  19.706  0.00  0.00    +0.000 A 
ATOM      8  C   UNL     1       2.697   4.159  19.316  0.00  0.00    +0.000 A 
ATOM      9 BR   UNL     1       1.538   3.331  20.551  0.00  0.00    +0.000 Br
ATOM     10  C   UNL     1       2.745   3.737  17.994  0.00  0.00    +0.000 A 
ATOM     11  N   UNL     1       3.528   4.310  17.047  0.00  0.00    +0.000 NA
ATOM     12  H   UNL     1       4.569   5.757  15.531  0.00  0.00    +0.000 HD
ENDBRANCH   2   4
BRANCH   2  13
ATOM     13  C   UNL     1       6.787   4.780  14.634  0.00  0.00    +0.000 A 
ATOM     14  C   UNL     1       5.913   3.815  14.131  0.00  0.00    +0.000 A 
ATOM     15  C   UNL     1       6.005   3.459  12.788  0.00  0.00    +0.000 A 
ATOM     16  C   UNL     1       6.961   4.089  12.004  0.00  0.00    +0.000 A 
ATOM     17  N   UNL     1       7.812   5.033  12.469  0.00  0.00    +0.000 NA
ATOM     18  C   UNL     1       7.698   5.369  13.778  0.00  0.00    +0.000 A 
ENDBRANCH   2  13
TORSDOF 2
ENDMDL
MODEL 5
REMARK VINA RESULT:      -6.6      3.045      5.809
REMARK  Name = 
REMARK  2 active torsions:
REMARK  status: ('A' for Active; 'I' for Inactive)
REMARK    1  A    between atoms: S_2  and  N_4
REMARK    2  A    between atoms: S_2  and  C_12
REMARK                            x       y       z     vdW  Elec       q    Type
REMARK                         _______ _______ _______ _____ _____    ______ ____
ROOT
ATOM      1  O   UNL     1       7.965   4.347  17.764  0.00  0.00    +0.000 OA
ATOM      2  S   UNL     1       7.306   5.581  18.139  0.00  0.00    +0.000 S 
ATOM      3  O   UNL     1       7.951   6.521  19.031  0.00  0.00    +0.000 OA
ENDROOT
BRANCH   2   4
ATOM      4  N   UNL     1       6.908   6.360  16.697  0.00  0.00    +0.000 N 
ATOM      5  C   UNL     1       6.584   5.521  15.614  0.00  0.00    +0.000 A 
ATOM      6  C   UNL     1       5.320   4.983  15.444  0.00  0.00    +0.000 A 
ATOM      7  C   UNL     1       5.089   4.205  14.311  0.00  0.00    +0.000 A 
ATOM      8  C   UNL     1       6.136   3.982  13.422  0.00  0.00    +0.000 A 
ATOM      9 BR   UNL     1       5.874   2.958  11.862  0.00  0.00    +0.000 Br
ATOM     10  C   UNL     1       7.375   4.542  13.705  0.00  0.00    +0.000 A 
ATOM     11  N   UNL     1       7.623   5.318  14.789  0.00  0.00    +0.000 NA
ATOM     12  H   UNL     1       7.659   6.991  16.425  0.00  0.00    +0.000 HD
ENDBRANCH   2   4
BRANCH   2  13
ATOM     13  C   UNL     1       5.750   5.131  18.839  0.00  0.00    +0.000 A 
ATOM     14  C   UNL     1       4.734   6.072  19.004  0.00  0.00    +0.000 A 
ATOM     15  C   UNL     1       3.492   5.647  19.471  0.00  0.00    +0.000 A 
ATOM     16  C   UNL     1       3.319   4.299  19.744  0.00  0.00    +0.000 A 
ATOM     17  N   UNL     1       4.288   3.367  19.583  0.00  0.00    +0.000 NA
ATOM     18  C   UNL     1       5.485   3.804  19.120  0.00  0.00    +0.000 A 
ENDBRANCH   2  13
TORSDOF 2
ENDMDL
MODEL 6
REMARK VINA RESULT:      -6.6      1.253      1.402
REMARK  Name = 
REMARK  2 active torsions:
REMARK  status: ('A' for Active; 'I' for Inactive)
REMARK    1  A    between atoms: S_2  and  N_4
REMARK    2  A    between atoms: S_2  and  C_12
REMARK                            x       y       z     vdW  Elec       q    Type
REMARK                         _______ _______ _______ _____ _____    ______ ____
ROOT
ATOM      1  O   UNL     1       5.152   6.298  16.210  0.00  0.00    +0.000 OA
ATOM      2  S   UNL     1       5.583   4.915  16.188  0.00  0.00    +0.000 S 
ATOM      3  O   UNL     1       6.495   4.411  17.193  0.00  0.00    +0.000 OA
ENDROOT
BRANCH   2   4
ATOM      4  N   UNL     1       4.177   3.984  16.189  0.00  0.00    +0.000 N 
ATOM      5  C   UNL     1       3.552   3.814  17.440  0.00  0.00    +0.000 A 
ATOM      6  C   UNL     1       2.693   4.758  17.974  0.00  0.00    +0.000 A 
ATOM      7  C   UNL     1       2.087   4.471  19.196  0.00  0.00    +0.000 A 
ATOM      8  C   UNL     1       2.390   3.272  19.833  0.00  0.00    +0.000 A 
ATOM      9 BR   UNL     1       1.583   2.822  21.475  0.00  0.00    +0.000 Br
ATOM     10  C   UNL     1       3.292   2.409  19.224  0.00  0.00    +0.000 A 
ATOM     11  N   UNL     1       3.882   2.654  18.028  0.00  0.00    +0.000 NA
ATOM     12  H   UNL     1       4.365   3.072  15.777  0.00  0.00    +0.000 HD
ENDBRANCH   2   4
BRANCH   2  13
ATOM     13  C   UNL     1       6.296   4.633  14.599  0.00  0.00    +0.000 A 
ATOM     14  C   UNL     1       5.742   3.708  13.714  0.00  0.00    +0.000 A 
ATOM     15  C   UNL     1       6.284   3.592  12.436  0.00  0.00    +0.000 A 
ATOM     16  C   UNL     1       7.350   4.410  12.097  0.00  0.00    +0.000 A 
ATOM     17  N   UNL     1       7.898   5.320  12.937  0.00  0.00    +0.000 NA
ATOM     18  C   UNL     1       7.348   5.421  14.172  0.00  0.00    +0.000 A 
ENDBRANCH   2  13
TORSDOF 2
ENDMDL
MODEL 7
REMARK VINA RESULT:      -6.5      3.190      5.984
REMARK  Name = 
REMARK  2 active torsions:
REMARK  status: ('A' for Active; 'I' for Inactive)
REMARK    1  A    between atoms: S_2  and  N_4
REMARK    2  A    between atoms: S_2  and  C_12
REMARK                            x       y       z     vdW  Elec       q    Type
REMARK                         _______ _______ _______ _____ _____    ______ ____
ROOT
ATOM      1  O   UNL     1       7.342   4.062  18.276  0.00  0.00    +0.000 OA
ATOM      2  S   UNL     1       6.607   5.226  18.728  0.00  0.00    +0.000 S 
ATOM      3  O   UNL     1       7.137   6.072  19.776  0.00  0.00    +0.000 OA
ENDROOT
BRANCH   2   4
ATOM      4  N   UNL     1       6.308   6.157  17.354  0.00  0.00    +0.000 N 
ATOM      5  C   UNL     1       6.258   5.455  16.134  0.00  0.00    +0.000 A 
ATOM      6  C   UNL     1       5.119   4.802  15.699  0.00  0.00    +0.000 A 
ATOM      7  C   UNL     1       5.159   4.179  14.453  0.00  0.00    +0.000 A 
ATOM      8  C   UNL     1       6.340   4.218  13.719  0.00  0.00    +0.000 A 
ATOM      9 BR   UNL     1       6.445   3.412  12.018  0.00  0.00    +0.000 Br
ATOM     10  C   UNL     1       7.437   4.873  14.263  0.00  0.00    +0.000 A 
ATOM     11  N   UNL     1       7.421   5.503  15.464  0.00  0.00    +0.000 NA
ATOM     12  H   UNL     1       6.993   6.906  17.287  0.00  0.00    +0.000 HD
ENDBRANCH   2   4
BRANCH   2  13
ATOM     13  C   UNL     1       5.014   4.655  19.227  0.00  0.00    +0.000 A 
ATOM     14  C   UNL     1       4.763   3.297  19.420  0.00  0.00    +0.000 A 
ATOM     15  C   UNL     1       3.518   2.905  19.907  0.00  0.00    +0.000 A 
ATOM     16  C   UNL     1       2.582   3.890  20.187  0.00  0.00    +0.000 A 
ATOM     17  N   UNL     1       2.808   5.213  20.015  0.00  0.00    +0.000 NA
ATOM     18  C   UNL     1       4.029   5.570  19.548  0.00  0.00    +0.000 A 
ENDBRANCH   2  13
TORSDOF 2
ENDMDL
MODEL 8
REMARK VINA RESULT:      -6.4      3.192      6.007
REMARK  Name = 
REMARK  2 active torsions:
REMARK  status: ('A' for Active; 'I' for Inactive)
REMARK    1  A    between atoms: S_2  and  N_4
REMARK    2  A    between atoms: S_2  and  C_12
REMARK                            x       y       z     vdW  Elec       q    Type
REMARK                         _______ _______ _______ _____ _____    ______ ____
ROOT
ATOM      1  O   UNL     1       6.907   3.875  18.346  0.00  0.00    +0.000 OA
ATOM      2  S   UNL     1       6.305   5.112  18.802  0.00  0.00    +0.000 S 
ATOM      3  O   UNL     1       6.902   5.869  19.882  0.00  0.00    +0.000 OA
ENDROOT
BRANCH   2   4
ATOM      4  N   UNL     1       6.164   6.096  17.440  0.00  0.00    +0.000 N 
ATOM      5  C   UNL     1       6.176   5.433  16.197  0.00  0.00    +0.000 A 
ATOM      6  C   UNL     1       5.043   4.853  15.655  0.00  0.00    +0.000 A 
ATOM      7  C   UNL     1       5.151   4.265  14.396  0.00  0.00    +0.000 A 
ATOM      8  C   UNL     1       6.386   4.261  13.757  0.00  0.00    +0.000 A 
ATOM      9 BR   UNL     1       6.585   3.500  12.045  0.00  0.00    +0.000 Br
ATOM     10  C   UNL     1       7.468   4.842  14.406  0.00  0.00    +0.000 A 
ATOM     11  N   UNL     1       7.388   5.438  15.622  0.00  0.00    +0.000 NA
ATOM     12  H   UNL     1       6.889   6.810  17.451  0.00  0.00    +0.000 HD
ENDBRANCH   2   4
BRANCH   2  13
ATOM     13  C   UNL     1       4.641   4.731  19.244  0.00  0.00    +0.000 A 
ATOM     14  C   UNL     1       3.734   5.739  19.574  0.00  0.00    +0.000 A 
ATOM     15  C   UNL     1       2.407   5.395  19.822  0.00  0.00    +0.000 A 
ATOM     16  C   UNL     1       2.043   4.061  19.721  0.00  0.00    +0.000 A 
ATOM     17  N   UNL     1       2.904   3.069  19.394  0.00  0.00    +0.000 NA
ATOM     18  C   UNL     1       4.188   3.429  19.149  0.00  0.00    +0.000 A 
ENDBRANCH   2  13
TORSDOF 2
ENDMDL
MODEL 9
REMARK VINA RESULT:      -6.4      4.301      6.671
REMARK  Name = 
REMARK  2 active torsions:
REMARK  status: ('A' for Active; 'I' for Inactive)
REMARK    1  A    between atoms: S_2  and  N_4
REMARK    2  A    between atoms: S_2  and  C_12
REMARK                            x       y       z     vdW  Elec       q    Type
REMARK                         _______ _______ _______ _____ _____    ______ ____
ROOT
ATOM      1  O   UNL     1       2.081   5.005  18.238  0.00  0.00    +0.000 OA
ATOM      2  S   UNL     1       2.654   5.687  19.381  0.00  0.00    +0.000 S 
ATOM      3  O   UNL     1       2.397   5.216  20.726  0.00  0.00    +0.000 OA
ENDROOT
BRANCH   2   4
ATOM      4  N   UNL     1       4.318   5.737  19.114  0.00  0.00    +0.000 N 
ATOM      5  C   UNL     1       4.741   5.427  17.807  0.00  0.00    +0.000 A 
ATOM      6  C   UNL     1       4.747   6.362  16.788  0.00  0.00    +0.000 A 
ATOM      7  C   UNL     1       5.233   5.966  15.543  0.00  0.00    +0.000 A 
ATOM      8  C   UNL     1       5.660   4.653  15.373  0.00  0.00    +0.000 A 
ATOM      9 BR   UNL     1       6.347   4.070  13.717  0.00  0.00    +0.000 Br
ATOM     10  C   UNL     1       5.581   3.786  16.454  0.00  0.00    +0.000 A 
ATOM     11  N   UNL     1       5.131   4.148  17.681  0.00  0.00    +0.000 NA
ATOM     12  H   UNL     1       4.794   5.130  19.779  0.00  0.00    +0.000 HD
ENDBRANCH   2   4
BRANCH   2  13
ATOM     13  C   UNL     1       2.141   7.371  19.275  0.00  0.00    +0.000 A 
ATOM     14  C   UNL     1       2.128   8.045  18.053  0.00  0.00    +0.000 A 
ATOM     15  C   UNL     1       1.624   9.342  18.006  0.00  0.00    +0.000 A 
ATOM     16  C   UNL     1       1.147   9.906  19.180  0.00  0.00    +0.000 A 
ATOM     17  N   UNL     1       1.143   9.268  20.373  0.00  0.00    +0.000 NA
ATOM     18  C   UNL     1       1.630   8.003  20.393  0.00  0.00    +0.000 A 
ENDBRANCH   2  13
TORSDOF 2
ENDMDL
