MODEL 1
REMARK VINA RESULT:      -5.5      0.000      0.000
REMARK  Name = 
REMARK  25 active torsions:
REMARK  status: ('A' for Active; 'I' for Inactive)
REMARK    1  A    between atoms: C_1  and  C_2
REMARK    2  A    between atoms: C_2  and  C_3
REMARK    3  A    between atoms: C_3  and  C_4
REMARK    4  A    between atoms: C_4  and  C_5
REMARK    5  A    between atoms: C_5  and  C_6
REMARK    6  A    between atoms: C_6  and  C_7
REMARK    7  A    between atoms: C_7  and  C_8
REMARK    8  A    between atoms: C_8  and  C_9
REMARK    9  A    between atoms: C_9  and  C_10
REMARK   10  A    between atoms: C_10  and  C_11
REMARK   11  A    between atoms: C_11  and  C_12
REMARK   12  A    between atoms: C_12  and  C_13
REMARK   13  A    between atoms: C_13  and  C_14
REMARK   14  A    between atoms: C_14  and  C_15
REMARK   15  A    between atoms: C_15  and  C_16
REMARK   16  A    between atoms: C_16  and  O_18
REMARK   17  A    between atoms: O_18  and  C_19
REMARK   18  A    between atoms: C_19  and  C_20
REMARK   19  A    between atoms: C_20  and  C_21
REMARK   20  A    between atoms: C_20  and  O_27
REMARK   21  A    between atoms: C_21  and  O_22
REMARK   22  A    between atoms: O_22  and  P_23
REMARK   23  A    between atoms: P_23  and  O_25
REMARK   24  A    between atoms: P_23  and  O_26
REMARK   25  A    between atoms: O_27  and  C_28
REMARK                            x       y       z     vdW  Elec       q    Type
REMARK                         _______ _______ _______ _____ _____    ______ ____
ROOT
ATOM      1  C   UNL     1       7.148   7.261  17.130  0.00  0.00    +0.000 C 
ENDROOT
BRANCH   1   2
ATOM      2  C   UNL     1       7.954   6.951  18.352  0.00  0.00    +0.000 C 
ATOM      3  O   UNL     1       7.938   5.860  18.913  0.00  0.00    +0.000 OA
BRANCH   2   4
ATOM      4  O   UNL     1       8.586   8.071  18.815  0.00  0.00    +0.000 OA
BRANCH   4   5
ATOM      5  C   UNL     1       8.403   9.247  18.010  0.00  0.00    +0.000 C 
BRANCH   5   6
ATOM      6  C   UNL     1       9.157  10.513  18.483  0.00  0.00    +0.000 C 
BRANCH   6   7
ATOM      7  O   UNL     1       9.057  10.645  19.924  0.00  0.00    +0.000 OA
ATOM      8  C   UNL     1      10.120  11.406  20.519  0.00  0.00    +0.000 C 
ENDBRANCH   6   7
BRANCH   6   9
ATOM      9  C   UNL     1       8.497  11.735  17.754  0.00  0.00    +0.000 C 
BRANCH   9  10
ATOM     10  O   UNL     1       9.340  12.876  17.611  0.00  0.00    +0.000 OA
BRANCH  10  11
ATOM     11  P   UNL     1       9.107  14.323  18.261  0.00  0.00    +0.000 P 
ATOM     12  O   UNL     1       8.229  14.279  19.501  0.00  0.00    +0.000 OA
BRANCH  11  13
ATOM     13  O   UNL     1       8.414  15.361  17.250  0.00  0.00    +0.000 OA
ATOM     14  H   UNL     1       7.769  14.887  16.668  0.00  0.00    +0.000 HD
ENDBRANCH  11  13
BRANCH  11  15
ATOM     15  O   UNL     1      10.516  14.974  18.652  0.00  0.00    +0.000 OA
ATOM     16  H   UNL     1      10.586  15.873  18.271  0.00  0.00    +0.000 HD
ENDBRANCH  11  15
ENDBRANCH  10  11
ENDBRANCH   9  10
ENDBRANCH   6   9
ENDBRANCH   5   6
ENDBRANCH   4   5
ENDBRANCH   2   4
ENDBRANCH   1   2
BRANCH   1  17
ATOM     17  C   UNL     1       5.673   7.021  17.407  0.00  0.00    +0.000 C 
BRANCH  17  18
ATOM     18  C   UNL     1       5.002   6.286  16.254  0.00  0.00    +0.000 C 
BRANCH  18  19
ATOM     19  C   UNL     1       5.452   4.832  16.254  0.00  0.00    +0.000 C 
BRANCH  19  20
ATOM     20  C   UNL     1       4.492   3.960  17.045  0.00  0.00    +0.000 C 
BRANCH  20  21
ATOM     21  C   UNL     1       5.051   3.685  18.435  0.00  0.00    +0.000 C 
BRANCH  21  22
ATOM     22  C   UNL     1       4.122   2.752  19.197  0.00  0.00    +0.000 C 
BRANCH  22  23
ATOM     23  C   UNL     1       3.216   1.998  18.235  0.00  0.00    +0.000 C 
BRANCH  23  24
ATOM     24  C   UNL     1       1.763   2.144  18.658  0.00  0.00    +0.000 C 
BRANCH  24  25
ATOM     25  C   UNL     1       1.677   2.553  20.121  0.00  0.00    +0.000 C 
BRANCH  25  26
ATOM     26  C   UNL     1       0.774   3.767  20.279  0.00  0.00    +0.000 C 
BRANCH  26  27
ATOM     27  C   UNL     1       1.603   5.023  20.503  0.00  0.00    +0.000 C 
BRANCH  27  28
ATOM     28  C   UNL     1       1.997   5.645  19.170  0.00  0.00    +0.000 C 
BRANCH  28  30
ATOM     29  C   UNL     1       2.225   7.925  18.161  0.00  0.00    +0.000 C 
ATOM     30  C   UNL     1       2.533   7.059  19.365  0.00  0.00    +0.000 C 
ENDBRANCH  28  30
ENDBRANCH  27  28
ENDBRANCH  26  27
ENDBRANCH  25  26
ENDBRANCH  24  25
ENDBRANCH  23  24
ENDBRANCH  22  23
ENDBRANCH  21  22
ENDBRANCH  20  21
ENDBRANCH  19  20
ENDBRANCH  18  19
ENDBRANCH  17  18
ENDBRANCH   1  17
TORSDOF 23
ENDMDL
MODEL 2
REMARK VINA RESULT:      -5.4      4.572      7.538
REMARK  Name = 
REMARK  25 active torsions:
REMARK  status: ('A' for Active; 'I' for Inactive)
REMARK    1  A    between atoms: C_1  and  C_2
REMARK    2  A    between atoms: C_2  and  C_3
REMARK    3  A    between atoms: C_3  and  C_4
REMARK    4  A    between atoms: C_4  and  C_5
REMARK    5  A    between atoms: C_5  and  C_6
REMARK    6  A    between atoms: C_6  and  C_7
REMARK    7  A    between atoms: C_7  and  C_8
REMARK    8  A    between atoms: C_8  and  C_9
REMARK    9  A    between atoms: C_9  and  C_10
REMARK   10  A    between atoms: C_10  and  C_11
REMARK   11  A    between atoms: C_11  and  C_12
REMARK   12  A    between atoms: C_12  and  C_13
REMARK   13  A    between atoms: C_13  and  C_14
REMARK   14  A    between atoms: C_14  and  C_15
REMARK   15  A    between atoms: C_15  and  C_16
REMARK   16  A    between atoms: C_16  and  O_18
REMARK   17  A    between atoms: O_18  and  C_19
REMARK   18  A    between atoms: C_19  and  C_20
REMARK   19  A    between atoms: C_20  and  C_21
REMARK   20  A    between atoms: C_20  and  O_27
REMARK   21  A    between atoms: C_21  and  O_22
REMARK   22  A    between atoms: O_22  and  P_23
REMARK   23  A    between atoms: P_23  and  O_25
REMARK   24  A    between atoms: P_23  and  O_26
REMARK   25  A    between atoms: O_27  and  C_28
REMARK                            x       y       z     vdW  Elec       q    Type
REMARK                         _______ _______ _______ _____ _____    ______ ____
ROOT
ATOM      1  C   UNL     1       2.647   3.555  19.037  0.00  0.00    +0.000 C 
ENDROOT
BRANCH   1   2
ATOM      2  C   UNL     1       2.815   3.678  17.555  0.00  0.00    +0.000 C 
ATOM      3  O   UNL     1       2.458   2.814  16.761  0.00  0.00    +0.000 OA
BRANCH   2   4
ATOM      4  O   UNL     1       3.526   4.802  17.237  0.00  0.00    +0.000 OA
BRANCH   4   5
ATOM      5  C   UNL     1       4.483   4.633  16.179  0.00  0.00    +0.000 C 
BRANCH   5   6
ATOM      6  C   UNL     1       5.244   5.910  15.748  0.00  0.00    +0.000 C 
BRANCH   6   7
ATOM      7  O   UNL     1       6.362   5.561  14.892  0.00  0.00    +0.000 OA
ATOM      8  C   UNL     1       6.456   4.159  14.594  0.00  0.00    +0.000 C 
ENDBRANCH   6   7
BRANCH   6   9
ATOM      9  C   UNL     1       5.734   6.613  17.062  0.00  0.00    +0.000 C 
BRANCH   9  10
ATOM     10  O   UNL     1       7.050   6.256  17.480  0.00  0.00    +0.000 OA
BRANCH  10  11
ATOM     11  P   UNL     1       7.452   5.010  18.405  0.00  0.00    +0.000 P 
ATOM     12  O   UNL     1       8.221   5.422  19.651  0.00  0.00    +0.000 OA
BRANCH  11  13
ATOM     13  O   UNL     1       8.366   3.932  17.643  0.00  0.00    +0.000 OA
ATOM     14  H   UNL     1       8.727   4.324  16.809  0.00  0.00    +0.000 HD
ENDBRANCH  11  13
BRANCH  11  15
ATOM     15  O   UNL     1       6.134   4.220  18.854  0.00  0.00    +0.000 OA
ATOM     16  H   UNL     1       5.831   4.544  19.727  0.00  0.00    +0.000 HD
ENDBRANCH  11  15
ENDBRANCH  10  11
ENDBRANCH   9  10
ENDBRANCH   6   9
ENDBRANCH   5   6
ENDBRANCH   4   5
ENDBRANCH   2   4
ENDBRANCH   1   2
BRANCH   1  17
ATOM     17  C   UNL     1       1.537   4.478  19.511  0.00  0.00    +0.000 C 
BRANCH  17  18
ATOM     18  C   UNL     1       2.020   5.411  20.615  0.00  0.00    +0.000 C 
BRANCH  18  19
ATOM     19  C   UNL     1       1.791   6.854  20.189  0.00  0.00    +0.000 C 
BRANCH  19  20
ATOM     20  C   UNL     1       2.837   7.302  19.183  0.00  0.00    +0.000 C 
BRANCH  20  21
ATOM     21  C   UNL     1       2.167   7.842  17.927  0.00  0.00    +0.000 C 
BRANCH  21  22
ATOM     22  C   UNL     1       1.219   8.976  18.286  0.00  0.00    +0.000 C 
BRANCH  22  23
ATOM     23  C   UNL     1       1.979  10.287  18.410  0.00  0.00    +0.000 C 
BRANCH  23  24
ATOM     24  C   UNL     1       1.006  11.446  18.561  0.00  0.00    +0.000 C 
BRANCH  24  25
ATOM     25  C   UNL     1      -0.238  10.996  19.312  0.00  0.00    +0.000 C 
BRANCH  25  26
ATOM     26  C   UNL     1      -1.480  11.640  18.714  0.00  0.00    +0.000 C 
BRANCH  26  27
ATOM     27  C   UNL     1      -2.465  10.574  18.255  0.00  0.00    +0.000 C 
BRANCH  27  28
ATOM     28  C   UNL     1      -2.001   9.950  16.945  0.00  0.00    +0.000 C 
BRANCH  28  30
ATOM     29  C   UNL     1      -2.973  10.371  14.677  0.00  0.00    +0.000 C 
ATOM     30  C   UNL     1      -3.181   9.693  16.016  0.00  0.00    +0.000 C 
ENDBRANCH  28  30
ENDBRANCH  27  28
ENDBRANCH  26  27
ENDBRANCH  25  26
ENDBRANCH  24  25
ENDBRANCH  23  24
ENDBRANCH  22  23
ENDBRANCH  21  22
ENDBRANCH  20  21
ENDBRANCH  19  20
ENDBRANCH  18  19
ENDBRANCH  17  18
ENDBRANCH   1  17
TORSDOF 23
ENDMDL
MODEL 3
REMARK VINA RESULT:      -5.4      5.540      7.605
REMARK  Name = 
REMARK  25 active torsions:
REMARK  status: ('A' for Active; 'I' for Inactive)
REMARK    1  A    between atoms: C_1  and  C_2
REMARK    2  A    between atoms: C_2  and  C_3
REMARK    3  A    between atoms: C_3  and  C_4
REMARK    4  A    between atoms: C_4  and  C_5
REMARK    5  A    between atoms: C_5  and  C_6
REMARK    6  A    between atoms: C_6  and  C_7
REMARK    7  A    between atoms: C_7  and  C_8
REMARK    8  A    between atoms: C_8  and  C_9
REMARK    9  A    between atoms: C_9  and  C_10
REMARK   10  A    between atoms: C_10  and  C_11
REMARK   11  A    between atoms: C_11  and  C_12
REMARK   12  A    between atoms: C_12  and  C_13
REMARK   13  A    between atoms: C_13  and  C_14
REMARK   14  A    between atoms: C_14  and  C_15
REMARK   15  A    between atoms: C_15  and  C_16
REMARK   16  A    between atoms: C_16  and  O_18
REMARK   17  A    between atoms: O_18  and  C_19
REMARK   18  A    between atoms: C_19  and  C_20
REMARK   19  A    between atoms: C_20  and  C_21
REMARK   20  A    between atoms: C_20  and  O_27
REMARK   21  A    between atoms: C_21  and  O_22
REMARK   22  A    between atoms: O_22  and  P_23
REMARK   23  A    between atoms: P_23  and  O_25
REMARK   24  A    between atoms: P_23  and  O_26
REMARK   25  A    between atoms: O_27  and  C_28
REMARK                            x       y       z     vdW  Elec       q    Type
REMARK                         _______ _______ _______ _____ _____    ______ ____
ROOT
ATOM      1  C   UNL     1       2.593   7.434  19.348  0.00  0.00    +0.000 C 
ENDROOT
BRANCH   1   2
ATOM      2  C   UNL     1       2.137   8.240  18.172  0.00  0.00    +0.000 C 
ATOM      3  O   UNL     1       2.703   8.227  17.084  0.00  0.00    +0.000 OA
BRANCH   2   4
ATOM      4  O   UNL     1       1.110   9.072  18.521  0.00  0.00    +0.000 OA
BRANCH   4   5
ATOM      5  C   UNL     1       1.474  10.151  19.397  0.00  0.00    +0.000 C 
BRANCH   5   6
ATOM      6  C   UNL     1       0.508  10.418  20.577  0.00  0.00    +0.000 C 
BRANCH   6   7
ATOM      7  O   UNL     1      -0.271   9.228  20.863  0.00  0.00    +0.000 OA
ATOM      8  C   UNL     1      -0.366   8.912  22.262  0.00  0.00    +0.000 C 
ENDBRANCH   6   7
BRANCH   6   9
ATOM      9  C   UNL     1      -0.415  11.611  20.148  0.00  0.00    +0.000 C 
BRANCH   9  10
ATOM     10  O   UNL     1      -1.621  11.231  19.490  0.00  0.00    +0.000 OA
BRANCH  10  11
ATOM     11  P   UNL     1      -1.942  11.377  17.926  0.00  0.00    +0.000 P 
ATOM     12  O   UNL     1      -3.432  11.421  17.629  0.00  0.00    +0.000 OA
BRANCH  11  13
ATOM     13  O   UNL     1      -1.339  10.175  17.047  0.00  0.00    +0.000 OA
ATOM     14  H   UNL     1      -1.444  10.375  16.084  0.00  0.00    +0.000 HD
ENDBRANCH  11  13
BRANCH  11  15
ATOM     15  O   UNL     1      -1.266  12.712  17.356  0.00  0.00    +0.000 OA
ATOM     16  H   UNL     1      -1.950  13.292  16.965  0.00  0.00    +0.000 HD
ENDBRANCH  11  15
ENDBRANCH  10  11
ENDBRANCH   9  10
ENDBRANCH   6   9
ENDBRANCH   5   6
ENDBRANCH   4   5
ENDBRANCH   2   4
ENDBRANCH   1   2
BRANCH   1  17
ATOM     17  C   UNL     1       1.800   6.140  19.428  0.00  0.00    +0.000 C 
BRANCH  17  18
ATOM     18  C   UNL     1       1.797   5.574  20.842  0.00  0.00    +0.000 C 
BRANCH  18  19
ATOM     19  C   UNL     1       1.724   4.055  20.775  0.00  0.00    +0.000 C 
BRANCH  19  20
ATOM     20  C   UNL     1       0.717   3.599  19.734  0.00  0.00    +0.000 C 
BRANCH  20  21
ATOM     21  C   UNL     1       1.267   2.417  18.948  0.00  0.00    +0.000 C 
BRANCH  21  22
ATOM     22  C   UNL     1       2.679   2.092  19.410  0.00  0.00    +0.000 C 
BRANCH  22  23
ATOM     23  C   UNL     1       3.663   2.239  18.259  0.00  0.00    +0.000 C 
BRANCH  23  24
ATOM     24  C   UNL     1       4.288   3.625  18.276  0.00  0.00    +0.000 C 
BRANCH  24  25
ATOM     25  C   UNL     1       3.812   4.433  17.077  0.00  0.00    +0.000 C 
BRANCH  25  26
ATOM     26  C   UNL     1       4.929   5.331  16.567  0.00  0.00    +0.000 C 
BRANCH  26  27
ATOM     27  C   UNL     1       6.253   4.579  16.550  0.00  0.00    +0.000 C 
BRANCH  27  28
ATOM     28  C   UNL     1       6.320   3.649  15.346  0.00  0.00    +0.000 C 
BRANCH  28  30
ATOM     29  C   UNL     1       6.169   3.675  12.847  0.00  0.00    +0.000 C 
ATOM     30  C   UNL     1       5.642   4.277  14.134  0.00  0.00    +0.000 C 
ENDBRANCH  28  30
ENDBRANCH  27  28
ENDBRANCH  26  27
ENDBRANCH  25  26
ENDBRANCH  24  25
ENDBRANCH  23  24
ENDBRANCH  22  23
ENDBRANCH  21  22
ENDBRANCH  20  21
ENDBRANCH  19  20
ENDBRANCH  18  19
ENDBRANCH  17  18
ENDBRANCH   1  17
TORSDOF 23
ENDMDL
MODEL 4
REMARK VINA RESULT:      -5.4      5.678      9.691
REMARK  Name = 
REMARK  25 active torsions:
REMARK  status: ('A' for Active; 'I' for Inactive)
REMARK    1  A    between atoms: C_1  and  C_2
REMARK    2  A    between atoms: C_2  and  C_3
REMARK    3  A    between atoms: C_3  and  C_4
REMARK    4  A    between atoms: C_4  and  C_5
REMARK    5  A    between atoms: C_5  and  C_6
REMARK    6  A    between atoms: C_6  and  C_7
REMARK    7  A    between atoms: C_7  and  C_8
REMARK    8  A    between atoms: C_8  and  C_9
REMARK    9  A    between atoms: C_9  and  C_10
REMARK   10  A    between atoms: C_10  and  C_11
REMARK   11  A    between atoms: C_11  and  C_12
REMARK   12  A    between atoms: C_12  and  C_13
REMARK   13  A    between atoms: C_13  and  C_14
REMARK   14  A    between atoms: C_14  and  C_15
REMARK   15  A    between atoms: C_15  and  C_16
REMARK   16  A    between atoms: C_16  and  O_18
REMARK   17  A    between atoms: O_18  and  C_19
REMARK   18  A    between atoms: C_19  and  C_20
REMARK   19  A    between atoms: C_20  and  C_21
REMARK   20  A    between atoms: C_20  and  O_27
REMARK   21  A    between atoms: C_21  and  O_22
REMARK   22  A    between atoms: O_22  and  P_23
REMARK   23  A    between atoms: P_23  and  O_25
REMARK   24  A    between atoms: P_23  and  O_26
REMARK   25  A    between atoms: O_27  and  C_28
REMARK                            x       y       z     vdW  Elec       q    Type
REMARK                         _______ _______ _______ _____ _____    ______ ____
ROOT
ATOM      1  C   UNL     1       3.222   4.436  17.198  0.00  0.00    +0.000 C 
ENDROOT
BRANCH   1   2
ATOM      2  C   UNL     1       2.157   3.560  17.780  0.00  0.00    +0.000 C 
ATOM      3  O   UNL     1       1.990   2.390  17.452  0.00  0.00    +0.000 OA
BRANCH   2   4
ATOM      4  O   UNL     1       1.337   4.275  18.609  0.00  0.00    +0.000 OA
BRANCH   4   5
ATOM      5  C   UNL     1       0.920   3.580  19.795  0.00  0.00    +0.000 C 
BRANCH   5   6
ATOM      6  C   UNL     1       1.589   4.036  21.115  0.00  0.00    +0.000 C 
BRANCH   6   7
ATOM      7  O   UNL     1       2.383   5.228  20.886  0.00  0.00    +0.000 OA
ATOM      8  C   UNL     1       1.607   6.424  20.708  0.00  0.00    +0.000 C 
ENDBRANCH   6   7
BRANCH   6   9
ATOM      9  C   UNL     1       2.482   2.845  21.607  0.00  0.00    +0.000 C 
BRANCH   9  10
ATOM     10  O   UNL     1       3.026   2.032  20.568  0.00  0.00    +0.000 OA
BRANCH  10  11
ATOM     11  P   UNL     1       4.580   1.751  20.290  0.00  0.00    +0.000 P 
ATOM     12  O   UNL     1       5.343   1.360  21.545  0.00  0.00    +0.000 OA
BRANCH  11  13
ATOM     13  O   UNL     1       5.345   3.019  19.668  0.00  0.00    +0.000 OA
ATOM     14  H   UNL     1       4.746   3.504  19.048  0.00  0.00    +0.000 HD
ENDBRANCH  11  13
BRANCH  11  15
ATOM     15  O   UNL     1       4.733   0.579  19.210  0.00  0.00    +0.000 OA
ATOM     16  H   UNL     1       3.913   0.047  19.176  0.00  0.00    +0.000 HD
ENDBRANCH  11  15
ENDBRANCH  10  11
ENDBRANCH   9  10
ENDBRANCH   6   9
ENDBRANCH   5   6
ENDBRANCH   4   5
ENDBRANCH   2   4
ENDBRANCH   1   2
BRANCH   1  17
ATOM     17  C   UNL     1       4.349   3.582  16.641  0.00  0.00    +0.000 C 
BRANCH  17  18
ATOM     18  C   UNL     1       5.612   4.403  16.417  0.00  0.00    +0.000 C 
BRANCH  18  19
ATOM     19  C   UNL     1       5.237   5.749  15.813  0.00  0.00    +0.000 C 
BRANCH  19  20
ATOM     20  C   UNL     1       5.736   6.896  16.675  0.00  0.00    +0.000 C 
BRANCH  20  21
ATOM     21  C   UNL     1       6.360   6.362  17.957  0.00  0.00    +0.000 C 
BRANCH  21  22
ATOM     22  C   UNL     1       7.805   6.822  18.067  0.00  0.00    +0.000 C 
BRANCH  22  23
ATOM     23  C   UNL     1       7.943   8.263  17.601  0.00  0.00    +0.000 C 
BRANCH  23  24
ATOM     24  C   UNL     1       8.623   9.099  18.675  0.00  0.00    +0.000 C 
BRANCH  24  25
ATOM     25  C   UNL     1       8.708  10.554  18.236  0.00  0.00    +0.000 C 
BRANCH  25  26
ATOM     26  C   UNL     1      10.146  11.044  18.300  0.00  0.00    +0.000 C 
BRANCH  26  27
ATOM     27  C   UNL     1      10.530  11.386  19.733  0.00  0.00    +0.000 C 
BRANCH  27  28
ATOM     28  C   UNL     1      11.834  12.172  19.760  0.00  0.00    +0.000 C 
BRANCH  28  30
ATOM     29  C   UNL     1      11.751  14.393  18.606  0.00  0.00    +0.000 C 
ATOM     30  C   UNL     1      11.567  13.664  19.922  0.00  0.00    +0.000 C 
ENDBRANCH  28  30
ENDBRANCH  27  28
ENDBRANCH  26  27
ENDBRANCH  25  26
ENDBRANCH  24  25
ENDBRANCH  23  24
ENDBRANCH  22  23
ENDBRANCH  21  22
ENDBRANCH  20  21
ENDBRANCH  19  20
ENDBRANCH  18  19
ENDBRANCH  17  18
ENDBRANCH   1  17
TORSDOF 23
ENDMDL
MODEL 5
REMARK VINA RESULT:      -5.3      4.076      6.604
REMARK  Name = 
REMARK  25 active torsions:
REMARK  status: ('A' for Active; 'I' for Inactive)
REMARK    1  A    between atoms: C_1  and  C_2
REMARK    2  A    between atoms: C_2  and  C_3
REMARK    3  A    between atoms: C_3  and  C_4
REMARK    4  A    between atoms: C_4  and  C_5
REMARK    5  A    between atoms: C_5  and  C_6
REMARK    6  A    between atoms: C_6  and  C_7
REMARK    7  A    between atoms: C_7  and  C_8
REMARK    8  A    between atoms: C_8  and  C_9
REMARK    9  A    between atoms: C_9  and  C_10
REMARK   10  A    between atoms: C_10  and  C_11
REMARK   11  A    between atoms: C_11  and  C_12
REMARK   12  A    between atoms: C_12  and  C_13
REMARK   13  A    between atoms: C_13  and  C_14
REMARK   14  A    between atoms: C_14  and  C_15
REMARK   15  A    between atoms: C_15  and  C_16
REMARK   16  A    between atoms: C_16  and  O_18
REMARK   17  A    between atoms: O_18  and  C_19
REMARK   18  A    between atoms: C_19  and  C_20
REMARK   19  A    between atoms: C_20  and  C_21
REMARK   20  A    between atoms: C_20  and  O_27
REMARK   21  A    between atoms: C_21  and  O_22
REMARK   22  A    between atoms: O_22  and  P_23
REMARK   23  A    between atoms: P_23  and  O_25
REMARK   24  A    between atoms: P_23  and  O_26
REMARK   25  A    between atoms: O_27  and  C_28
REMARK                            x       y       z     vdW  Elec       q    Type
REMARK                         _______ _______ _______ _____ _____    ______ ____
ROOT
ATOM      1  C   UNL     1       2.466   3.704  17.308  0.00  0.00    +0.000 C 
ENDROOT
BRANCH   1   2
ATOM      2  C   UNL     1       3.759   4.452  17.218  0.00  0.00    +0.000 C 
ATOM      3  O   UNL     1       3.833   5.676  17.213  0.00  0.00    +0.000 OA
BRANCH   2   4
ATOM      4  O   UNL     1       4.804   3.594  17.011  0.00  0.00    +0.000 OA
BRANCH   4   5
ATOM      5  C   UNL     1       5.190   3.431  15.637  0.00  0.00    +0.000 C 
BRANCH   5   6
ATOM      6  C   UNL     1       6.165   4.496  15.079  0.00  0.00    +0.000 C 
BRANCH   6   7
ATOM      7  O   UNL     1       6.801   4.007  13.870  0.00  0.00    +0.000 OA
ATOM      8  C   UNL     1       5.881   3.676  12.817  0.00  0.00    +0.000 C 
ENDBRANCH   6   7
BRANCH   6   9
ATOM      9  C   UNL     1       7.222   4.778  16.203  0.00  0.00    +0.000 C 
BRANCH   9  10
ATOM     10  O   UNL     1       7.654   6.134  16.295  0.00  0.00    +0.000 OA
BRANCH  10  11
ATOM     11  P   UNL     1       7.448   7.119  17.544  0.00  0.00    +0.000 P 
ATOM     12  O   UNL     1       8.001   8.513  17.295  0.00  0.00    +0.000 OA
BRANCH  11  13
ATOM     13  O   UNL     1       8.149   6.584  18.886  0.00  0.00    +0.000 OA
ATOM     14  H   UNL     1       9.115   6.434  18.727  0.00  0.00    +0.000 HD
ENDBRANCH  11  13
BRANCH  11  15
ATOM     15  O   UNL     1       5.889   7.239  17.888  0.00  0.00    +0.000 OA
ATOM     16  H   UNL     1       5.464   7.886  17.289  0.00  0.00    +0.000 HD
ENDBRANCH  11  15
ENDBRANCH  10  11
ENDBRANCH   9  10
ENDBRANCH   6   9
ENDBRANCH   5   6
ENDBRANCH   4   5
ENDBRANCH   2   4
ENDBRANCH   1   2
BRANCH   1  17
ATOM     17  C   UNL     1       2.687   2.366  17.993  0.00  0.00    +0.000 C 
BRANCH  17  18
ATOM     18  C   UNL     1       1.554   2.040  18.957  0.00  0.00    +0.000 C 
BRANCH  18  19
ATOM     19  C   UNL     1       0.898   3.333  19.419  0.00  0.00    +0.000 C 
BRANCH  19  20
ATOM     20  C   UNL     1       1.136   3.571  20.900  0.00  0.00    +0.000 C 
BRANCH  20  21
ATOM     21  C   UNL     1       2.303   4.529  21.101  0.00  0.00    +0.000 C 
BRANCH  21  22
ATOM     22  C   UNL     1       2.155   5.734  20.184  0.00  0.00    +0.000 C 
BRANCH  22  23
ATOM     23  C   UNL     1       1.340   6.823  20.864  0.00  0.00    +0.000 C 
BRANCH  23  24
ATOM     24  C   UNL     1       1.751   8.191  20.340  0.00  0.00    +0.000 C 
BRANCH  24  25
ATOM     25  C   UNL     1       1.891   8.156  18.826  0.00  0.00    +0.000 C 
BRANCH  25  26
ATOM     26  C   UNL     1       1.655   9.540  18.240  0.00  0.00    +0.000 C 
BRANCH  26  27
ATOM     27  C   UNL     1       0.165   9.799  18.066  0.00  0.00    +0.000 C 
BRANCH  27  28
ATOM     28  C   UNL     1      -0.234  11.096  18.756  0.00  0.00    +0.000 C 
BRANCH  28  30
ATOM     29  C   UNL     1       0.378  11.827  21.071  0.00  0.00    +0.000 C 
ATOM     30  C   UNL     1       0.885  11.597  19.662  0.00  0.00    +0.000 C 
ENDBRANCH  28  30
ENDBRANCH  27  28
ENDBRANCH  26  27
ENDBRANCH  25  26
ENDBRANCH  24  25
ENDBRANCH  23  24
ENDBRANCH  22  23
ENDBRANCH  21  22
ENDBRANCH  20  21
ENDBRANCH  19  20
ENDBRANCH  18  19
ENDBRANCH  17  18
ENDBRANCH   1  17
TORSDOF 23
ENDMDL
MODEL 6
REMARK VINA RESULT:      -5.3      6.056      7.998
REMARK  Name = 
REMARK  25 active torsions:
REMARK  status: ('A' for Active; 'I' for Inactive)
REMARK    1  A    between atoms: C_1  and  C_2
REMARK    2  A    between atoms: C_2  and  C_3
REMARK    3  A    between atoms: C_3  and  C_4
REMARK    4  A    between atoms: C_4  and  C_5
REMARK    5  A    between atoms: C_5  and  C_6
REMARK    6  A    between atoms: C_6  and  C_7
REMARK    7  A    between atoms: C_7  and  C_8
REMARK    8  A    between atoms: C_8  and  C_9
REMARK    9  A    between atoms: C_9  and  C_10
REMARK   10  A    between atoms: C_10  and  C_11
REMARK   11  A    between atoms: C_11  and  C_12
REMARK   12  A    between atoms: C_12  and  C_13
REMARK   13  A    between atoms: C_13  and  C_14
REMARK   14  A    between atoms: C_14  and  C_15
REMARK   15  A    between atoms: C_15  and  C_16
REMARK   16  A    between atoms: C_16  and  O_18
REMARK   17  A    between atoms: O_18  and  C_19
REMARK   18  A    between atoms: C_19  and  C_20
REMARK   19  A    between atoms: C_20  and  C_21
REMARK   20  A    between atoms: C_20  and  O_27
REMARK   21  A    between atoms: C_21  and  O_22
REMARK   22  A    between atoms: O_22  and  P_23
REMARK   23  A    between atoms: P_23  and  O_25
REMARK   24  A    between atoms: P_23  and  O_26
REMARK   25  A    between atoms: O_27  and  C_28
REMARK                            x       y       z     vdW  Elec       q    Type
REMARK                         _______ _______ _______ _____ _____    ______ ____
ROOT
ATOM      1  C   UNL     1       1.854   7.119  18.157  0.00  0.00    +0.000 C 
ENDROOT
BRANCH   1   2
ATOM      2  C   UNL     1       2.051   8.596  18.022  0.00  0.00    +0.000 C 
ATOM      3  O   UNL     1       2.995   9.100  17.423  0.00  0.00    +0.000 OA
BRANCH   2   4
ATOM      4  O   UNL     1       1.125   9.280  18.759  0.00  0.00    +0.000 OA
BRANCH   4   5
ATOM      5  C   UNL     1       1.399  10.680  18.928  0.00  0.00    +0.000 C 
BRANCH   5   6
ATOM      6  C   UNL     1       0.177  11.625  18.815  0.00  0.00    +0.000 C 
BRANCH   6   7
ATOM      7  O   UNL     1      -0.126  12.206  20.109  0.00  0.00    +0.000 OA
ATOM      8  C   UNL     1      -0.899  11.353  20.968  0.00  0.00    +0.000 C 
ENDBRANCH   6   7
BRANCH   6   9
ATOM      9  C   UNL     1      -1.020  10.760  18.287  0.00  0.00    +0.000 C 
BRANCH   9  10
ATOM     10  O   UNL     1      -1.880  11.424  17.364  0.00  0.00    +0.000 OA
BRANCH  10  11
ATOM     11  P   UNL     1      -3.407  11.054  17.046  0.00  0.00    +0.000 P 
ATOM     12  O   UNL     1      -3.696  10.960  15.556  0.00  0.00    +0.000 OA
BRANCH  11  13
ATOM     13  O   UNL     1      -4.449  12.120  17.645  0.00  0.00    +0.000 OA
ATOM     14  H   UNL     1      -4.941  11.721  18.405  0.00  0.00    +0.000 HD
ENDBRANCH  11  13
BRANCH  11  15
ATOM     15  O   UNL     1      -3.779   9.655  17.729  0.00  0.00    +0.000 OA
ATOM     16  H   UNL     1      -2.963   9.195  18.014  0.00  0.00    +0.000 HD
ENDBRANCH  11  15
ENDBRANCH  10  11
ENDBRANCH   9  10
ENDBRANCH   6   9
ENDBRANCH   5   6
ENDBRANCH   4   5
ENDBRANCH   2   4
ENDBRANCH   1   2
BRANCH   1  17
ATOM     17  C   UNL     1       2.664   6.593  19.331  0.00  0.00    +0.000 C 
BRANCH  17  18
ATOM     18  C   UNL     1       1.763   6.033  20.424  0.00  0.00    +0.000 C 
BRANCH  18  19
ATOM     19  C   UNL     1       2.260   4.652  20.827  0.00  0.00    +0.000 C 
BRANCH  19  20
ATOM     20  C   UNL     1       1.163   3.611  20.683  0.00  0.00    +0.000 C 
BRANCH  20  21
ATOM     21  C   UNL     1       0.989   3.225  19.221  0.00  0.00    +0.000 C 
BRANCH  21  22
ATOM     22  C   UNL     1       2.295   2.682  18.663  0.00  0.00    +0.000 C 
BRANCH  22  23
ATOM     23  C   UNL     1       2.688   3.431  17.399  0.00  0.00    +0.000 C 
BRANCH  23  24
ATOM     24  C   UNL     1       4.197   3.617  17.345  0.00  0.00    +0.000 C 
BRANCH  24  25
ATOM     25  C   UNL     1       4.636   3.964  15.930  0.00  0.00    +0.000 C 
BRANCH  25  26
ATOM     26  C   UNL     1       5.825   4.911  15.962  0.00  0.00    +0.000 C 
BRANCH  26  27
ATOM     27  C   UNL     1       5.354   6.358  16.013  0.00  0.00    +0.000 C 
BRANCH  27  28
ATOM     28  C   UNL     1       5.818   7.023  17.302  0.00  0.00    +0.000 C 
BRANCH  28  30
ATOM     29  C   UNL     1       7.791   6.340  18.685  0.00  0.00    +0.000 C 
ATOM     30  C   UNL     1       7.339   7.011  17.403  0.00  0.00    +0.000 C 
ENDBRANCH  28  30
ENDBRANCH  27  28
ENDBRANCH  26  27
ENDBRANCH  25  26
ENDBRANCH  24  25
ENDBRANCH  23  24
ENDBRANCH  22  23
ENDBRANCH  21  22
ENDBRANCH  20  21
ENDBRANCH  19  20
ENDBRANCH  18  19
ENDBRANCH  17  18
ENDBRANCH   1  17
TORSDOF 23
ENDMDL
MODEL 7
REMARK VINA RESULT:      -5.2      4.821      7.015
REMARK  Name = 
REMARK  25 active torsions:
REMARK  status: ('A' for Active; 'I' for Inactive)
REMARK    1  A    between atoms: C_1  and  C_2
REMARK    2  A    between atoms: C_2  and  C_3
REMARK    3  A    between atoms: C_3  and  C_4
REMARK    4  A    between atoms: C_4  and  C_5
REMARK    5  A    between atoms: C_5  and  C_6
REMARK    6  A    between atoms: C_6  and  C_7
REMARK    7  A    between atoms: C_7  and  C_8
REMARK    8  A    between atoms: C_8  and  C_9
REMARK    9  A    between atoms: C_9  and  C_10
REMARK   10  A    between atoms: C_10  and  C_11
REMARK   11  A    between atoms: C_11  and  C_12
REMARK   12  A    between atoms: C_12  and  C_13
REMARK   13  A    between atoms: C_13  and  C_14
REMARK   14  A    between atoms: C_14  and  C_15
REMARK   15  A    between atoms: C_15  and  C_16
REMARK   16  A    between atoms: C_16  and  O_18
REMARK   17  A    between atoms: O_18  and  C_19
REMARK   18  A    between atoms: C_19  and  C_20
REMARK   19  A    between atoms: C_20  and  C_21
REMARK   20  A    between atoms: C_20  and  O_27
REMARK   21  A    between atoms: C_21  and  O_22
REMARK   22  A    between atoms: O_22  and  P_23
REMARK   23  A    between atoms: P_23  and  O_25
REMARK   24  A    between atoms: P_23  and  O_26
REMARK   25  A    between atoms: O_27  and  C_28
REMARK                            x       y       z     vdW  Elec       q    Type
REMARK                         _______ _______ _______ _____ _____    ______ ____
ROOT
ATOM      1  C   UNL     1       2.550   6.351  20.113  0.00  0.00    +0.000 C 
ENDROOT
BRANCH   1   2
ATOM      2  C   UNL     1       2.236   7.582  19.321  0.00  0.00    +0.000 C 
ATOM      3  O   UNL     1       2.332   7.641  18.099  0.00  0.00    +0.000 OA
BRANCH   2   4
ATOM      4  O   UNL     1       1.965   8.637  20.147  0.00  0.00    +0.000 OA
BRANCH   4   5
ATOM      5  C   UNL     1       0.894   9.489  19.710  0.00  0.00    +0.000 C 
BRANCH   5   6
ATOM      6  C   UNL     1       0.222  10.346  20.810  0.00  0.00    +0.000 C 
BRANCH   6   7
ATOM      7  O   UNL     1      -0.526   9.497  21.717  0.00  0.00    +0.000 OA
ATOM      8  C   UNL     1      -0.136   9.624  23.094  0.00  0.00    +0.000 C 
ENDBRANCH   6   7
BRANCH   6   9
ATOM      9  C   UNL     1      -0.719  11.366  20.079  0.00  0.00    +0.000 C 
BRANCH   9  10
ATOM     10  O   UNL     1      -0.222  12.701  20.012  0.00  0.00    +0.000 OA
BRANCH  10  11
ATOM     11  P   UNL     1      -0.187  13.643  18.715  0.00  0.00    +0.000 P 
ATOM     12  O   UNL     1       1.225  13.939  18.236  0.00  0.00    +0.000 OA
BRANCH  11  13
ATOM     13  O   UNL     1      -0.894  15.065  18.952  0.00  0.00    +0.000 OA
ATOM     14  H   UNL     1      -0.210  15.779  19.001  0.00  0.00    +0.000 HD
ENDBRANCH  11  13
BRANCH  11  15
ATOM     15  O   UNL     1      -0.998  12.950  17.521  0.00  0.00    +0.000 OA
ATOM     16  H   UNL     1      -1.931  12.814  17.785  0.00  0.00    +0.000 HD
ENDBRANCH  11  15
ENDBRANCH  10  11
ENDBRANCH   9  10
ENDBRANCH   6   9
ENDBRANCH   5   6
ENDBRANCH   4   5
ENDBRANCH   2   4
ENDBRANCH   1   2
BRANCH   1  17
ATOM     17  C   UNL     1       1.300   5.859  20.823  0.00  0.00    +0.000 C 
BRANCH  17  18
ATOM     18  C   UNL     1       1.086   4.367  20.606  0.00  0.00    +0.000 C 
BRANCH  18  19
ATOM     19  C   UNL     1       2.050   3.587  21.489  0.00  0.00    +0.000 C 
BRANCH  19  20
ATOM     20  C   UNL     1       2.567   2.348  20.777  0.00  0.00    +0.000 C 
BRANCH  20  21
ATOM     21  C   UNL     1       1.924   2.221  19.403  0.00  0.00    +0.000 C 
BRANCH  21  22
ATOM     22  C   UNL     1       2.973   1.847  18.367  0.00  0.00    +0.000 C 
BRANCH  22  23
ATOM     23  C   UNL     1       2.843   2.728  17.134  0.00  0.00    +0.000 C 
BRANCH  23  24
ATOM     24  C   UNL     1       2.904   4.196  17.528  0.00  0.00    +0.000 C 
BRANCH  24  25
ATOM     25  C   UNL     1       4.350   4.641  17.683  0.00  0.00    +0.000 C 
BRANCH  25  26
ATOM     26  C   UNL     1       5.016   4.763  16.321  0.00  0.00    +0.000 C 
BRANCH  26  27
ATOM     27  C   UNL     1       5.225   6.226  15.958  0.00  0.00    +0.000 C 
BRANCH  27  28
ATOM     28  C   UNL     1       5.769   6.998  17.153  0.00  0.00    +0.000 C 
BRANCH  28  30
ATOM     29  C   UNL     1       7.930   8.154  17.666  0.00  0.00    +0.000 C 
ATOM     30  C   UNL     1       7.283   6.847  17.255  0.00  0.00    +0.000 C 
ENDBRANCH  28  30
ENDBRANCH  27  28
ENDBRANCH  26  27
ENDBRANCH  25  26
ENDBRANCH  24  25
ENDBRANCH  23  24
ENDBRANCH  22  23
ENDBRANCH  21  22
ENDBRANCH  20  21
ENDBRANCH  19  20
ENDBRANCH  18  19
ENDBRANCH  17  18
ENDBRANCH   1  17
TORSDOF 23
ENDMDL
MODEL 8
REMARK VINA RESULT:      -5.2      5.345      6.818
REMARK  Name = 
REMARK  25 active torsions:
REMARK  status: ('A' for Active; 'I' for Inactive)
REMARK    1  A    between atoms: C_1  and  C_2
REMARK    2  A    between atoms: C_2  and  C_3
REMARK    3  A    between atoms: C_3  and  C_4
REMARK    4  A    between atoms: C_4  and  C_5
REMARK    5  A    between atoms: C_5  and  C_6
REMARK    6  A    between atoms: C_6  and  C_7
REMARK    7  A    between atoms: C_7  and  C_8
REMARK    8  A    between atoms: C_8  and  C_9
REMARK    9  A    between atoms: C_9  and  C_10
REMARK   10  A    between atoms: C_10  and  C_11
REMARK   11  A    between atoms: C_11  and  C_12
REMARK   12  A    between atoms: C_12  and  C_13
REMARK   13  A    between atoms: C_13  and  C_14
REMARK   14  A    between atoms: C_14  and  C_15
REMARK   15  A    between atoms: C_15  and  C_16
REMARK   16  A    between atoms: C_16  and  O_18
REMARK   17  A    between atoms: O_18  and  C_19
REMARK   18  A    between atoms: C_19  and  C_20
REMARK   19  A    between atoms: C_20  and  C_21
REMARK   20  A    between atoms: C_20  and  O_27
REMARK   21  A    between atoms: C_21  and  O_22
REMARK   22  A    between atoms: O_22  and  P_23
REMARK   23  A    between atoms: P_23  and  O_25
REMARK   24  A    between atoms: P_23  and  O_26
REMARK   25  A    between atoms: O_27  and  C_28
REMARK                            x       y       z     vdW  Elec       q    Type
REMARK                         _______ _______ _______ _____ _____    ______ ____
ROOT
ATOM      1  C   UNL     1       3.234   7.267  18.090  0.00  0.00    +0.000 C 
ENDROOT
BRANCH   1   2
ATOM      2  C   UNL     1       2.150   8.240  18.435  0.00  0.00    +0.000 C 
ATOM      3  O   UNL     1       1.608   8.968  17.610  0.00  0.00    +0.000 OA
BRANCH   2   4
ATOM      4  O   UNL     1       1.955   8.293  19.787  0.00  0.00    +0.000 OA
BRANCH   4   5
ATOM      5  C   UNL     1       0.692   8.842  20.196  0.00  0.00    +0.000 C 
BRANCH   5   6
ATOM      6  C   UNL     1       0.762  10.120  21.067  0.00  0.00    +0.000 C 
BRANCH   6   7
ATOM      7  O   UNL     1      -0.413  10.213  21.911  0.00  0.00    +0.000 OA
ATOM      8  C   UNL     1      -0.216   9.723  23.247  0.00  0.00    +0.000 C 
ENDBRANCH   6   7
BRANCH   6   9
ATOM      9  C   UNL     1       0.852  11.337  20.082  0.00  0.00    +0.000 C 
BRANCH   9  10
ATOM     10  O   UNL     1      -0.357  12.079  19.932  0.00  0.00    +0.000 OA
BRANCH  10  11
ATOM     11  P   UNL     1      -1.374  12.004  18.694  0.00  0.00    +0.000 P 
ATOM     12  O   UNL     1      -1.473  10.611  18.093  0.00  0.00    +0.000 OA
BRANCH  11  13
ATOM     13  O   UNL     1      -0.974  12.991  17.493  0.00  0.00    +0.000 OA
ATOM     14  H   UNL     1      -0.036  12.831  17.221  0.00  0.00    +0.000 HD
ENDBRANCH  11  13
BRANCH  11  15
ATOM     15  O   UNL     1      -2.834  12.464  19.165  0.00  0.00    +0.000 OA
ATOM     16  H   UNL     1      -2.785  13.342  19.596  0.00  0.00    +0.000 HD
ENDBRANCH  11  15
ENDBRANCH  10  11
ENDBRANCH   9  10
ENDBRANCH   6   9
ENDBRANCH   5   6
ENDBRANCH   4   5
ENDBRANCH   2   4
ENDBRANCH   1   2
BRANCH   1  17
ATOM     17  C   UNL     1       3.668   7.464  16.647  0.00  0.00    +0.000 C 
BRANCH  17  18
ATOM     18  C   UNL     1       4.955   6.709  16.344  0.00  0.00    +0.000 C 
BRANCH  18  19
ATOM     19  C   UNL     1       5.943   6.922  17.482  0.00  0.00    +0.000 C 
BRANCH  19  20
ATOM     20  C   UNL     1       7.133   5.985  17.359  0.00  0.00    +0.000 C 
BRANCH  20  21
ATOM     21  C   UNL     1       7.146   4.993  18.514  0.00  0.00    +0.000 C 
BRANCH  21  22
ATOM     22  C   UNL     1       5.800   4.995  19.222  0.00  0.00    +0.000 C 
BRANCH  22  23
ATOM     23  C   UNL     1       5.133   3.633  19.103  0.00  0.00    +0.000 C 
BRANCH  23  24
ATOM     24  C   UNL     1       4.083   3.656  18.003  0.00  0.00    +0.000 C 
BRANCH  24  25
ATOM     25  C   UNL     1       3.412   2.295  17.885  0.00  0.00    +0.000 C 
BRANCH  25  26
ATOM     26  C   UNL     1       1.913   2.423  18.104  0.00  0.00    +0.000 C 
BRANCH  26  27
ATOM     27  C   UNL     1       1.517   3.886  18.246  0.00  0.00    +0.000 C 
BRANCH  27  28
ATOM     28  C   UNL     1       1.282   4.234  19.710  0.00  0.00    +0.000 C 
BRANCH  28  30
ATOM     29  C   UNL     1       2.038   3.081  21.800  0.00  0.00    +0.000 C 
ATOM     30  C   UNL     1       1.176   2.972  20.559  0.00  0.00    +0.000 C 
ENDBRANCH  28  30
ENDBRANCH  27  28
ENDBRANCH  26  27
ENDBRANCH  25  26
ENDBRANCH  24  25
ENDBRANCH  23  24
ENDBRANCH  22  23
ENDBRANCH  21  22
ENDBRANCH  20  21
ENDBRANCH  19  20
ENDBRANCH  18  19
ENDBRANCH  17  18
ENDBRANCH   1  17
TORSDOF 23
ENDMDL
MODEL 9
REMARK VINA RESULT:      -5.2      5.587      7.334
REMARK  Name = 
REMARK  25 active torsions:
REMARK  status: ('A' for Active; 'I' for Inactive)
REMARK    1  A    between atoms: C_1  and  C_2
REMARK    2  A    between atoms: C_2  and  C_3
REMARK    3  A    between atoms: C_3  and  C_4
REMARK    4  A    between atoms: C_4  and  C_5
REMARK    5  A    between atoms: C_5  and  C_6
REMARK    6  A    between atoms: C_6  and  C_7
REMARK    7  A    between atoms: C_7  and  C_8
REMARK    8  A    between atoms: C_8  and  C_9
REMARK    9  A    between atoms: C_9  and  C_10
REMARK   10  A    between atoms: C_10  and  C_11
REMARK   11  A    between atoms: C_11  and  C_12
REMARK   12  A    between atoms: C_12  and  C_13
REMARK   13  A    between atoms: C_13  and  C_14
REMARK   14  A    between atoms: C_14  and  C_15
REMARK   15  A    between atoms: C_15  and  C_16
REMARK   16  A    between atoms: C_16  and  O_18
REMARK   17  A    between atoms: O_18  and  C_19
REMARK   18  A    between atoms: C_19  and  C_20
REMARK   19  A    between atoms: C_20  and  C_21
REMARK   20  A    between atoms: C_20  and  O_27
REMARK   21  A    between atoms: C_21  and  O_22
REMARK   22  A    between atoms: O_22  and  P_23
REMARK   23  A    between atoms: P_23  and  O_25
REMARK   24  A    between atoms: P_23  and  O_26
REMARK   25  A    between atoms: O_27  and  C_28
REMARK                            x       y       z     vdW  Elec       q    Type
REMARK                         _______ _______ _______ _____ _____    ______ ____
ROOT
ATOM      1  C   UNL     1       2.901   8.308  17.923  0.00  0.00    +0.000 C 
ENDROOT
BRANCH   1   2
ATOM      2  C   UNL     1       1.998   9.500  17.991  0.00  0.00    +0.000 C 
ATOM      3  O   UNL     1       2.276  10.588  17.498  0.00  0.00    +0.000 OA
BRANCH   2   4
ATOM      4  O   UNL     1       0.910   9.242  18.778  0.00  0.00    +0.000 OA
BRANCH   4   5
ATOM      5  C   UNL     1       0.978   9.791  20.104  0.00  0.00    +0.000 C 
BRANCH   5   6
ATOM      6  C   UNL     1       0.447  11.237  20.264  0.00  0.00    +0.000 C 
BRANCH   6   7
ATOM      7  O   UNL     1       1.287  11.978  21.185  0.00  0.00    +0.000 OA
ATOM      8  C   UNL     1       1.979  13.086  20.586  0.00  0.00    +0.000 C 
ENDBRANCH   6   7
BRANCH   6   9
ATOM      9  C   UNL     1      -1.022  11.125  20.800  0.00  0.00    +0.000 C 
BRANCH   9  10
ATOM     10  O   UNL     1      -1.636  12.368  21.135  0.00  0.00    +0.000 OA
BRANCH  10  11
ATOM     11  P   UNL     1      -1.888  12.941  22.611  0.00  0.00    +0.000 P 
ATOM     12  O   UNL     1      -2.801  12.053  23.442  0.00  0.00    +0.000 OA
BRANCH  11  13
ATOM     13  O   UNL     1      -2.552  14.403  22.612  0.00  0.00    +0.000 OA
ATOM     14  H   UNL     1      -2.116  14.972  21.930  0.00  0.00    +0.000 HD
ENDBRANCH  11  13
BRANCH  11  15
ATOM     15  O   UNL     1      -0.491  13.099  23.377  0.00  0.00    +0.000 OA
ATOM     16  H   UNL     1      -0.121  12.216  23.583  0.00  0.00    +0.000 HD
ENDBRANCH  11  15
ENDBRANCH  10  11
ENDBRANCH   9  10
ENDBRANCH   6   9
ENDBRANCH   5   6
ENDBRANCH   4   5
ENDBRANCH   2   4
ENDBRANCH   1   2
BRANCH   1  17
ATOM     17  C   UNL     1       2.135   7.055  18.310  0.00  0.00    +0.000 C 
BRANCH  17  18
ATOM     18  C   UNL     1       2.614   6.497  19.644  0.00  0.00    +0.000 C 
BRANCH  18  19
ATOM     19  C   UNL     1       1.590   5.502  20.170  0.00  0.00    +0.000 C 
BRANCH  19  20
ATOM     20  C   UNL     1       2.230   4.508  21.124  0.00  0.00    +0.000 C 
BRANCH  20  21
ATOM     21  C   UNL     1       1.526   3.161  21.035  0.00  0.00    +0.000 C 
BRANCH  21  22
ATOM     22  C   UNL     1       1.187   2.842  19.587  0.00  0.00    +0.000 C 
BRANCH  22  23
ATOM     23  C   UNL     1       2.153   1.808  19.028  0.00  0.00    +0.000 C 
BRANCH  23  24
ATOM     24  C   UNL     1       3.372   2.497  18.434  0.00  0.00    +0.000 C 
BRANCH  24  25
ATOM     25  C   UNL     1       2.950   3.462  17.336  0.00  0.00    +0.000 C 
BRANCH  25  26
ATOM     26  C   UNL     1       4.163   4.190  16.776  0.00  0.00    +0.000 C 
BRANCH  26  27
ATOM     27  C   UNL     1       5.127   4.559  17.894  0.00  0.00    +0.000 C 
BRANCH  27  28
ATOM     28  C   UNL     1       5.644   5.979  17.702  0.00  0.00    +0.000 C 
BRANCH  28  30
ATOM     29  C   UNL     1       7.681   7.434  17.659  0.00  0.00    +0.000 C 
ATOM     30  C   UNL     1       7.168   6.009  17.711  0.00  0.00    +0.000 C 
ENDBRANCH  28  30
ENDBRANCH  27  28
ENDBRANCH  26  27
ENDBRANCH  25  26
ENDBRANCH  24  25
ENDBRANCH  23  24
ENDBRANCH  22  23
ENDBRANCH  21  22
ENDBRANCH  20  21
ENDBRANCH  19  20
ENDBRANCH  18  19
ENDBRANCH  17  18
ENDBRANCH   1  17
TORSDOF 23
ENDMDL
