MODEL 1
REMARK VINA RESULT:      -8.1      0.000      0.000
REMARK  Name = 
REMARK  7 active torsions:
REMARK  status: ('A' for Active; 'I' for Inactive)
REMARK    1  A    between atoms: C_1  and  C_2
REMARK    2  A    between atoms: C_2  and  C_12
REMARK    3  A    between atoms: C_3  and  C_4
REMARK    4  A    between atoms: C_5  and  C_6
REMARK    5  A    between atoms: C_6  and  C_7
REMARK    6  A    between atoms: C_8  and  C_9
REMARK    7  A    between atoms: C_9  and  O_11
REMARK                            x       y       z     vdW  Elec       q    Type
REMARK                         _______ _______ _______ _____ _____    ______ ____
ROOT
ATOM      1  C   UNL     1       7.731   5.272  17.369  0.00  0.00    +0.000 C 
ATOM      2  C   UNL     1       6.716   4.675  16.427  0.00  0.00    +0.000 C 
ATOM      3  C   UNL     1       6.932   4.691  15.095  0.00  0.00    +0.000 C 
ENDROOT
BRANCH   2   4
ATOM      4  C   UNL     1       5.549   3.993  16.996  0.00  0.00    +0.000 C 
ATOM      5  C   UNL     1       4.536   4.534  17.709  0.00  0.00    +0.000 C 
ATOM      6  C   UNL     1       4.496   6.013  18.047  0.00  0.00    +0.000 C 
ATOM      7  C   UNL     1       3.192   6.526  18.654  0.00  0.00    +0.000 C 
ATOM      8  C   UNL     1       1.990   5.884  17.987  0.00  0.00    +0.000 C 
ATOM      9  C   UNL     1       2.073   4.392  18.173  0.00  0.00    +0.000 A 
ATOM     10  C   UNL     1       0.903   3.671  18.458  0.00  0.00    +0.000 A 
ATOM     11  C   UNL     1       0.952   2.293  18.639  0.00  0.00    +0.000 A 
ATOM     12  C   UNL     1       2.170   1.629  18.532  0.00  0.00    +0.000 A 
ATOM     13  C   UNL     1       3.341   2.342  18.241  0.00  0.00    +0.000 A 
ATOM     14  C   UNL     1       3.316   3.733  18.043  0.00  0.00    +0.000 A 
ENDBRANCH   2   4
BRANCH   3  15
ATOM     15  C   UNL     1       6.012   4.169  14.104  0.00  0.00    +0.000 C 
ATOM     16  C   UNL     1       6.385   3.730  12.893  0.00  0.00    +0.000 C 
BRANCH  16  17
ATOM     17  C   UNL     1       5.456   3.146  11.933  0.00  0.00    +0.000 C 
ATOM     18  C   UNL     1       5.813   1.786  11.403  0.00  0.00    +0.000 C 
ATOM     19  C   UNL     1       4.330   3.807  11.577  0.00  0.00    +0.000 C 
BRANCH  19  20
ATOM     20  C   UNL     1       3.330   3.281  10.629  0.00  0.00    +0.000 C 
ATOM     21  O   UNL     1       2.685   2.258  10.766  0.00  0.00    +0.000 OA
BRANCH  20  22
ATOM     22  O   UNL     1       3.198   4.088   9.554  0.00  0.00    +0.000 OA
ATOM     23  H   UNL     1       2.349   4.022   9.084  0.00  0.00    +0.000 HD
ENDBRANCH  20  22
ENDBRANCH  19  20
ENDBRANCH  16  17
ENDBRANCH   3  15
TORSDOF 5
ENDMDL
MODEL 2
REMARK VINA RESULT:      -8.0      4.596      7.663
REMARK  Name = 
REMARK  7 active torsions:
REMARK  status: ('A' for Active; 'I' for Inactive)
REMARK    1  A    between atoms: C_1  and  C_2
REMARK    2  A    between atoms: C_2  and  C_12
REMARK    3  A    between atoms: C_3  and  C_4
REMARK    4  A    between atoms: C_5  and  C_6
REMARK    5  A    between atoms: C_6  and  C_7
REMARK    6  A    between atoms: C_8  and  C_9
REMARK    7  A    between atoms: C_9  and  O_11
REMARK                            x       y       z     vdW  Elec       q    Type
REMARK                         _______ _______ _______ _____ _____    ______ ____
ROOT
ATOM      1  C   UNL     1       3.679   1.351  18.513  0.00  0.00    +0.000 C 
ATOM      2  C   UNL     1       3.500   2.777  18.969  0.00  0.00    +0.000 C 
ATOM      3  C   UNL     1       2.318   3.185  19.476  0.00  0.00    +0.000 C 
ENDROOT
BRANCH   2   4
ATOM      4  C   UNL     1       4.661   3.672  18.942  0.00  0.00    +0.000 C 
ATOM      5  C   UNL     1       5.172   4.339  17.884  0.00  0.00    +0.000 C 
ATOM      6  C   UNL     1       4.575   4.213  16.494  0.00  0.00    +0.000 C 
ATOM      7  C   UNL     1       5.105   5.189  15.447  0.00  0.00    +0.000 C 
ATOM      8  C   UNL     1       5.313   6.569  16.043  0.00  0.00    +0.000 C 
ATOM      9  C   UNL     1       6.304   6.464  17.172  0.00  0.00    +0.000 A 
ATOM     10  C   UNL     1       7.272   7.467  17.329  0.00  0.00    +0.000 A 
ATOM     11  C   UNL     1       8.202   7.393  18.360  0.00  0.00    +0.000 A 
ATOM     12  C   UNL     1       8.165   6.317  19.242  0.00  0.00    +0.000 A 
ATOM     13  C   UNL     1       7.197   5.315  19.095  0.00  0.00    +0.000 A 
ATOM     14  C   UNL     1       6.240   5.373  18.068  0.00  0.00    +0.000 A 
ENDBRANCH   2   4
BRANCH   3  15
ATOM     15  C   UNL     1       2.032   4.535  19.918  0.00  0.00    +0.000 C 
ATOM     16  C   UNL     1       2.326   5.635  19.209  0.00  0.00    +0.000 C 
BRANCH  16  17
ATOM     17  C   UNL     1       1.971   6.982  19.638  0.00  0.00    +0.000 C 
ATOM     18  C   UNL     1       2.250   8.088  18.659  0.00  0.00    +0.000 C 
ATOM     19  C   UNL     1       1.401   7.190  20.847  0.00  0.00    +0.000 C 
BRANCH  19  20
ATOM     20  C   UNL     1       0.995   8.516  21.350  0.00  0.00    +0.000 C 
ATOM     21  O   UNL     1       0.016   9.145  20.995  0.00  0.00    +0.000 OA
BRANCH  20  22
ATOM     22  O   UNL     1       1.856   8.973  22.284  0.00  0.00    +0.000 OA
ATOM     23  H   UNL     1       1.465   9.165  23.155  0.00  0.00    +0.000 HD
ENDBRANCH  20  22
ENDBRANCH  19  20
ENDBRANCH  16  17
ENDBRANCH   3  15
TORSDOF 5
ENDMDL
MODEL 3
REMARK VINA RESULT:      -8.0      3.855      6.949
REMARK  Name = 
REMARK  7 active torsions:
REMARK  status: ('A' for Active; 'I' for Inactive)
REMARK    1  A    between atoms: C_1  and  C_2
REMARK    2  A    between atoms: C_2  and  C_12
REMARK    3  A    between atoms: C_3  and  C_4
REMARK    4  A    between atoms: C_5  and  C_6
REMARK    5  A    between atoms: C_6  and  C_7
REMARK    6  A    between atoms: C_8  and  C_9
REMARK    7  A    between atoms: C_9  and  O_11
REMARK                            x       y       z     vdW  Elec       q    Type
REMARK                         _______ _______ _______ _____ _____    ______ ____
ROOT
ATOM      1  C   UNL     1       3.610   1.375  18.582  0.00  0.00    +0.000 C 
ATOM      2  C   UNL     1       3.400   2.868  18.544  0.00  0.00    +0.000 C 
ATOM      3  C   UNL     1       2.150   3.378  18.527  0.00  0.00    +0.000 C 
ENDROOT
BRANCH   2   4
ATOM      4  C   UNL     1       4.573   3.742  18.631  0.00  0.00    +0.000 C 
ATOM      5  C   UNL     1       5.189   4.409  17.628  0.00  0.00    +0.000 C 
ATOM      6  C   UNL     1       4.717   4.304  16.190  0.00  0.00    +0.000 C 
ATOM      7  C   UNL     1       5.354   5.278  15.203  0.00  0.00    +0.000 C 
ATOM      8  C   UNL     1       5.531   6.650  15.828  0.00  0.00    +0.000 C 
ATOM      9  C   UNL     1       6.415   6.518  17.040  0.00  0.00    +0.000 A 
ATOM     10  C   UNL     1       7.382   7.504  17.293  0.00  0.00    +0.000 A 
ATOM     11  C   UNL     1       8.214   7.405  18.403  0.00  0.00    +0.000 A 
ATOM     12  C   UNL     1       8.080   6.324  19.267  0.00  0.00    +0.000 A 
ATOM     13  C   UNL     1       7.112   5.340  19.025  0.00  0.00    +0.000 A 
ATOM     14  C   UNL     1       6.252   5.422  17.917  0.00  0.00    +0.000 A 
ENDBRANCH   2   4
BRANCH   3  15
ATOM     15  C   UNL     1       1.838   4.792  18.466  0.00  0.00    +0.000 C 
ATOM     16  C   UNL     1       2.349   5.710  19.299  0.00  0.00    +0.000 C 
BRANCH  16  17
ATOM     17  C   UNL     1       2.077   7.137  19.182  0.00  0.00    +0.000 C 
ATOM     18  C   UNL     1       1.789   7.868  20.463  0.00  0.00    +0.000 C 
ATOM     19  C   UNL     1       2.112   7.746  17.974  0.00  0.00    +0.000 C 
BRANCH  19  20
ATOM     20  C   UNL     1       1.867   9.186  17.769  0.00  0.00    +0.000 C 
ATOM     21  O   UNL     1       2.717  10.057  17.735  0.00  0.00    +0.000 OA
BRANCH  20  22
ATOM     22  O   UNL     1       0.551   9.446  17.614  0.00  0.00    +0.000 OA
ATOM     23  H   UNL     1      -0.053   8.778  17.984  0.00  0.00    +0.000 HD
ENDBRANCH  20  22
ENDBRANCH  19  20
ENDBRANCH  16  17
ENDBRANCH   3  15
TORSDOF 5
ENDMDL
MODEL 4
REMARK VINA RESULT:      -8.0      1.164      1.765
REMARK  Name = 
REMARK  7 active torsions:
REMARK  status: ('A' for Active; 'I' for Inactive)
REMARK    1  A    between atoms: C_1  and  C_2
REMARK    2  A    between atoms: C_2  and  C_12
REMARK    3  A    between atoms: C_3  and  C_4
REMARK    4  A    between atoms: C_5  and  C_6
REMARK    5  A    between atoms: C_6  and  C_7
REMARK    6  A    between atoms: C_8  and  C_9
REMARK    7  A    between atoms: C_9  and  O_11
REMARK                            x       y       z     vdW  Elec       q    Type
REMARK                         _______ _______ _______ _____ _____    ______ ____
ROOT
ATOM      1  C   UNL     1       7.741   5.948  19.090  0.00  0.00    +0.000 C 
ATOM      2  C   UNL     1       7.045   5.279  17.931  0.00  0.00    +0.000 C 
ATOM      3  C   UNL     1       7.564   5.361  16.688  0.00  0.00    +0.000 C 
ENDROOT
BRANCH   2   4
ATOM      4  C   UNL     1       5.861   4.460  18.204  0.00  0.00    +0.000 C 
ATOM      5  C   UNL     1       4.619   4.878  18.534  0.00  0.00    +0.000 C 
ATOM      6  C   UNL     1       4.287   6.350  18.695  0.00  0.00    +0.000 C 
ATOM      7  C   UNL     1       2.806   6.691  18.844  0.00  0.00    +0.000 C 
ATOM      8  C   UNL     1       1.955   5.834  17.925  0.00  0.00    +0.000 C 
ATOM      9  C   UNL     1       2.171   4.386  18.277  0.00  0.00    +0.000 A 
ATOM     10  C   UNL     1       1.073   3.511  18.281  0.00  0.00    +0.000 A 
ATOM     11  C   UNL     1       1.244   2.170  18.607  0.00  0.00    +0.000 A 
ATOM     12  C   UNL     1       2.513   1.696  18.924  0.00  0.00    +0.000 A 
ATOM     13  C   UNL     1       3.614   2.562  18.915  0.00  0.00    +0.000 A 
ATOM     14  C   UNL     1       3.470   3.919  18.579  0.00  0.00    +0.000 A 
ENDBRANCH   2   4
BRANCH   3  15
ATOM     15  C   UNL     1       6.965   4.778  15.504  0.00  0.00    +0.000 C 
ATOM     16  C   UNL     1       7.336   5.079  14.250  0.00  0.00    +0.000 C 
BRANCH  16  17
ATOM     17  C   UNL     1       6.769   4.434  13.072  0.00  0.00    +0.000 C 
ATOM     18  C   UNL     1       7.426   4.752  11.758  0.00  0.00    +0.000 C 
ATOM     19  C   UNL     1       5.724   3.584  13.191  0.00  0.00    +0.000 C 
BRANCH  19  20
ATOM     20  C   UNL     1       5.103   2.876  12.055  0.00  0.00    +0.000 C 
ATOM     21  O   UNL     1       4.094   3.217  11.466  0.00  0.00    +0.000 OA
BRANCH  20  22
ATOM     22  O   UNL     1       5.801   1.769  11.723  0.00  0.00    +0.000 OA
ATOM     23  H   UNL     1       6.112   1.231  12.472  0.00  0.00    +0.000 HD
ENDBRANCH  20  22
ENDBRANCH  19  20
ENDBRANCH  16  17
ENDBRANCH   3  15
TORSDOF 5
ENDMDL
MODEL 5
REMARK VINA RESULT:      -7.7      3.833      7.451
REMARK  Name = 
REMARK  7 active torsions:
REMARK  status: ('A' for Active; 'I' for Inactive)
REMARK    1  A    between atoms: C_1  and  C_2
REMARK    2  A    between atoms: C_2  and  C_12
REMARK    3  A    between atoms: C_3  and  C_4
REMARK    4  A    between atoms: C_5  and  C_6
REMARK    5  A    between atoms: C_6  and  C_7
REMARK    6  A    between atoms: C_8  and  C_9
REMARK    7  A    between atoms: C_9  and  O_11
REMARK                            x       y       z     vdW  Elec       q    Type
REMARK                         _______ _______ _______ _____ _____    ______ ____
ROOT
ATOM      1  C   UNL     1       3.371   2.477  20.567  0.00  0.00    +0.000 C 
ATOM      2  C   UNL     1       3.148   3.807  19.894  0.00  0.00    +0.000 C 
ATOM      3  C   UNL     1       2.501   4.798  20.544  0.00  0.00    +0.000 C 
ENDROOT
BRANCH   2   4
ATOM      4  C   UNL     1       3.734   4.029  18.569  0.00  0.00    +0.000 C 
ATOM      5  C   UNL     1       4.899   4.647  18.268  0.00  0.00    +0.000 C 
ATOM      6  C   UNL     1       5.788   5.245  19.343  0.00  0.00    +0.000 C 
ATOM      7  C   UNL     1       7.171   5.705  18.888  0.00  0.00    +0.000 C 
ATOM      8  C   UNL     1       7.767   4.733  17.887  0.00  0.00    +0.000 C 
ATOM      9  C   UNL     1       6.853   4.647  16.693  0.00  0.00    +0.000 A 
ATOM     10  C   UNL     1       7.411   4.586  15.407  0.00  0.00    +0.000 A 
ATOM     11  C   UNL     1       6.591   4.510  14.287  0.00  0.00    +0.000 A 
ATOM     12  C   UNL     1       5.209   4.490  14.448  0.00  0.00    +0.000 A 
ATOM     13  C   UNL     1       4.645   4.544  15.730  0.00  0.00    +0.000 A 
ATOM     14  C   UNL     1       5.453   4.610  16.878  0.00  0.00    +0.000 A 
ENDBRANCH   2   4
BRANCH   3  15
ATOM     15  C   UNL     1       2.212   6.102  19.982  0.00  0.00    +0.000 C 
ATOM     16  C   UNL     1       1.620   7.096  20.660  0.00  0.00    +0.000 C 
BRANCH  16  17
ATOM     17  C   UNL     1       1.397   8.424  20.100  0.00  0.00    +0.000 C 
ATOM     18  C   UNL     1       0.888   9.470  21.052  0.00  0.00    +0.000 C 
ATOM     19  C   UNL     1       1.665   8.674  18.798  0.00  0.00    +0.000 C 
BRANCH  19  20
ATOM     20  C   UNL     1       1.486   9.991  18.158  0.00  0.00    +0.000 C 
ATOM     21  O   UNL     1       2.333  10.860  18.061  0.00  0.00    +0.000 OA
BRANCH  20  22
ATOM     22  O   UNL     1       0.236  10.135  17.669  0.00  0.00    +0.000 OA
ATOM     23  H   UNL     1      -0.403   9.455  17.947  0.00  0.00    +0.000 HD
ENDBRANCH  20  22
ENDBRANCH  19  20
ENDBRANCH  16  17
ENDBRANCH   3  15
TORSDOF 5
ENDMDL
MODEL 6
REMARK VINA RESULT:      -7.6      4.212      7.564
REMARK  Name = 
REMARK  7 active torsions:
REMARK  status: ('A' for Active; 'I' for Inactive)
REMARK    1  A    between atoms: C_1  and  C_2
REMARK    2  A    between atoms: C_2  and  C_12
REMARK    3  A    between atoms: C_3  and  C_4
REMARK    4  A    between atoms: C_5  and  C_6
REMARK    5  A    between atoms: C_6  and  C_7
REMARK    6  A    between atoms: C_8  and  C_9
REMARK    7  A    between atoms: C_9  and  O_11
REMARK                            x       y       z     vdW  Elec       q    Type
REMARK                         _______ _______ _______ _____ _____    ______ ____
ROOT
ATOM      1  C   UNL     1       3.541   2.327  20.648  0.00  0.00    +0.000 C 
ATOM      2  C   UNL     1       3.148   3.581  19.908  0.00  0.00    +0.000 C 
ATOM      3  C   UNL     1       2.338   4.489  20.493  0.00  0.00    +0.000 C 
ENDROOT
BRANCH   2   4
ATOM      4  C   UNL     1       3.744   3.835  18.594  0.00  0.00    +0.000 C 
ATOM      5  C   UNL     1       4.870   4.527  18.311  0.00  0.00    +0.000 C 
ATOM      6  C   UNL     1       5.697   5.189  19.398  0.00  0.00    +0.000 C 
ATOM      7  C   UNL     1       7.054   5.738  18.967  0.00  0.00    +0.000 C 
ATOM      8  C   UNL     1       7.734   4.803  17.984  0.00  0.00    +0.000 C 
ATOM      9  C   UNL     1       6.851   4.649  16.773  0.00  0.00    +0.000 A 
ATOM     10  C   UNL     1       7.436   4.619  15.498  0.00  0.00    +0.000 A 
ATOM     11  C   UNL     1       6.644   4.483  14.363  0.00  0.00    +0.000 A 
ATOM     12  C   UNL     1       5.264   4.371  14.498  0.00  0.00    +0.000 A 
ATOM     13  C   UNL     1       4.673   4.394  15.769  0.00  0.00    +0.000 A 
ATOM     14  C   UNL     1       5.453   4.520  16.931  0.00  0.00    +0.000 A 
ENDBRANCH   2   4
BRANCH   3  15
ATOM     15  C   UNL     1       1.880   5.711  19.864  0.00  0.00    +0.000 C 
ATOM     16  C   UNL     1       2.155   6.941  20.325  0.00  0.00    +0.000 C 
BRANCH  16  17
ATOM     17  C   UNL     1       1.744   8.161  19.643  0.00  0.00    +0.000 C 
ATOM     18  C   UNL     1       2.117   8.272  18.191  0.00  0.00    +0.000 C 
ATOM     19  C   UNL     1       1.044   9.113  20.302  0.00  0.00    +0.000 C 
BRANCH  19  20
ATOM     20  C   UNL     1       0.572  10.367  19.683  0.00  0.00    +0.000 C 
ATOM     21  O   UNL     1       1.211  11.399  19.584  0.00  0.00    +0.000 OA
BRANCH  20  22
ATOM     22  O   UNL     1      -0.690  10.244  19.219  0.00  0.00    +0.000 OA
ATOM     23  H   UNL     1      -0.823   9.550  18.549  0.00  0.00    +0.000 HD
ENDBRANCH  20  22
ENDBRANCH  19  20
ENDBRANCH  16  17
ENDBRANCH   3  15
TORSDOF 5
ENDMDL
MODEL 7
REMARK VINA RESULT:      -7.5      3.565      6.987
REMARK  Name = 
REMARK  7 active torsions:
REMARK  status: ('A' for Active; 'I' for Inactive)
REMARK    1  A    between atoms: C_1  and  C_2
REMARK    2  A    between atoms: C_2  and  C_12
REMARK    3  A    between atoms: C_3  and  C_4
REMARK    4  A    between atoms: C_5  and  C_6
REMARK    5  A    between atoms: C_6  and  C_7
REMARK    6  A    between atoms: C_8  and  C_9
REMARK    7  A    between atoms: C_9  and  O_11
REMARK                            x       y       z     vdW  Elec       q    Type
REMARK                         _______ _______ _______ _____ _____    ______ ____
ROOT
ATOM      1  C   UNL     1       2.146   8.976  17.775  0.00  0.00    +0.000 C 
ATOM      2  C   UNL     1       2.710   7.643  18.196  0.00  0.00    +0.000 C 
ATOM      3  C   UNL     1       2.429   7.140  19.416  0.00  0.00    +0.000 C 
ENDROOT
BRANCH   2   4
ATOM      4  C   UNL     1       3.480   6.868  17.218  0.00  0.00    +0.000 C 
ATOM      5  C   UNL     1       4.818   6.863  17.028  0.00  0.00    +0.000 C 
ATOM      6  C   UNL     1       5.746   7.738  17.851  0.00  0.00    +0.000 C 
ATOM      7  C   UNL     1       7.239   7.467  17.691  0.00  0.00    +0.000 C 
ATOM      8  C   UNL     1       7.516   5.977  17.595  0.00  0.00    +0.000 C 
ATOM      9  C   UNL     1       6.778   5.425  16.404  0.00  0.00    +0.000 A 
ATOM     10  C   UNL     1       7.406   4.465  15.594  0.00  0.00    +0.000 A 
ATOM     11  C   UNL     1       6.750   3.942  14.486  0.00  0.00    +0.000 A 
ATOM     12  C   UNL     1       5.462   4.371  14.184  0.00  0.00    +0.000 A 
ATOM     13  C   UNL     1       4.826   5.324  14.991  0.00  0.00    +0.000 A 
ATOM     14  C   UNL     1       5.464   5.860  16.123  0.00  0.00    +0.000 A 
ENDBRANCH   2   4
BRANCH   3  15
ATOM     15  C   UNL     1       2.939   5.884  19.929  0.00  0.00    +0.000 C 
ATOM     16  C   UNL     1       2.330   4.701  19.756  0.00  0.00    +0.000 C 
BRANCH  16  17
ATOM     17  C   UNL     1       2.890   3.438  20.220  0.00  0.00    +0.000 C 
ATOM     18  C   UNL     1       2.064   2.668  21.212  0.00  0.00    +0.000 C 
ATOM     19  C   UNL     1       4.078   2.999  19.746  0.00  0.00    +0.000 C 
BRANCH  19  20
ATOM     20  C   UNL     1       4.706   1.725  20.148  0.00  0.00    +0.000 C 
ATOM     21  O   UNL     1       5.262   1.506  21.208  0.00  0.00    +0.000 OA
BRANCH  20  22
ATOM     22  O   UNL     1       4.593   0.793  19.178  0.00  0.00    +0.000 OA
ATOM     23  H   UNL     1       5.097   0.971  18.365  0.00  0.00    +0.000 HD
ENDBRANCH  20  22
ENDBRANCH  19  20
ENDBRANCH  16  17
ENDBRANCH   3  15
TORSDOF 5
ENDMDL
MODEL 8
REMARK VINA RESULT:      -7.4      1.650      2.323
REMARK  Name = 
REMARK  7 active torsions:
REMARK  status: ('A' for Active; 'I' for Inactive)
REMARK    1  A    between atoms: C_1  and  C_2
REMARK    2  A    between atoms: C_2  and  C_12
REMARK    3  A    between atoms: C_3  and  C_4
REMARK    4  A    between atoms: C_5  and  C_6
REMARK    5  A    between atoms: C_6  and  C_7
REMARK    6  A    between atoms: C_8  and  C_9
REMARK    7  A    between atoms: C_9  and  O_11
REMARK                            x       y       z     vdW  Elec       q    Type
REMARK                         _______ _______ _______ _____ _____    ______ ____
ROOT
ATOM      1  C   UNL     1       8.105   6.127  19.562  0.00  0.00    +0.000 C 
ATOM      2  C   UNL     1       7.155   5.377  18.662  0.00  0.00    +0.000 C 
ATOM      3  C   UNL     1       7.472   5.162  17.368  0.00  0.00    +0.000 C 
ENDROOT
BRANCH   2   4
ATOM      4  C   UNL     1       5.939   4.805  19.248  0.00  0.00    +0.000 C 
ATOM      5  C   UNL     1       4.670   5.254  19.132  0.00  0.00    +0.000 C 
ATOM      6  C   UNL     1       4.332   6.505  18.342  0.00  0.00    +0.000 C 
ATOM      7  C   UNL     1       2.848   6.767  18.104  0.00  0.00    +0.000 C 
ATOM      8  C   UNL     1       2.108   5.477  17.802  0.00  0.00    +0.000 C 
ATOM      9  C   UNL     1       2.268   4.543  18.972  0.00  0.00    +0.000 A 
ATOM     10  C   UNL     1       1.171   3.772  19.388  0.00  0.00    +0.000 A 
ATOM     11  C   UNL     1       1.289   2.905  20.468  0.00  0.00    +0.000 A 
ATOM     12  C   UNL     1       2.506   2.800  21.135  0.00  0.00    +0.000 A 
ATOM     13  C   UNL     1       3.607   3.561  20.721  0.00  0.00    +0.000 A 
ATOM     14  C   UNL     1       3.516   4.437  19.625  0.00  0.00    +0.000 A 
ENDBRANCH   2   4
BRANCH   3  15
ATOM     15  C   UNL     1       6.623   4.477  16.414  0.00  0.00    +0.000 C 
ATOM     16  C   UNL     1       6.657   4.693  15.090  0.00  0.00    +0.000 C 
BRANCH  16  17
ATOM     17  C   UNL     1       5.843   3.948  14.137  0.00  0.00    +0.000 C 
ATOM     18  C   UNL     1       4.479   3.528  14.611  0.00  0.00    +0.000 C 
ATOM     19  C   UNL     1       6.308   3.685  12.895  0.00  0.00    +0.000 C 
BRANCH  19  20
ATOM     20  C   UNL     1       5.544   2.955  11.865  0.00  0.00    +0.000 C 
ATOM     21  O   UNL     1       4.557   3.366  11.283  0.00  0.00    +0.000 OA
BRANCH  20  22
ATOM     22  O   UNL     1       6.078   1.739  11.625  0.00  0.00    +0.000 OA
ATOM     23  H   UNL     1       6.815   1.724  10.988  0.00  0.00    +0.000 HD
ENDBRANCH  20  22
ENDBRANCH  19  20
ENDBRANCH  16  17
ENDBRANCH   3  15
TORSDOF 5
ENDMDL
MODEL 9
REMARK VINA RESULT:      -7.4      5.439      7.754
REMARK  Name = 
REMARK  7 active torsions:
REMARK  status: ('A' for Active; 'I' for Inactive)
REMARK    1  A    between atoms: C_1  and  C_2
REMARK    2  A    between atoms: C_2  and  C_12
REMARK    3  A    between atoms: C_3  and  C_4
REMARK    4  A    between atoms: C_5  and  C_6
REMARK    5  A    between atoms: C_6  and  C_7
REMARK    6  A    between atoms: C_8  and  C_9
REMARK    7  A    between atoms: C_9  and  O_11
REMARK                            x       y       z     vdW  Elec       q    Type
REMARK                         _______ _______ _______ _____ _____    ______ ____
ROOT
ATOM      1  C   UNL     1       5.422   4.912  15.989  0.00  0.00    +0.000 C 
ATOM      2  C   UNL     1       5.709   6.153  16.797  0.00  0.00    +0.000 C 
ATOM      3  C   UNL     1       6.983   6.509  17.065  0.00  0.00    +0.000 C 
ENDROOT
BRANCH   2   4
ATOM      4  C   UNL     1       4.586   7.008  17.192  0.00  0.00    +0.000 C 
ATOM      5  C   UNL     1       3.545   6.695  17.995  0.00  0.00    +0.000 C 
ATOM      6  C   UNL     1       3.395   5.315  18.610  0.00  0.00    +0.000 C 
ATOM      7  C   UNL     1       2.307   5.168  19.670  0.00  0.00    +0.000 C 
ATOM      8  C   UNL     1       2.252   6.391  20.568  0.00  0.00    +0.000 C 
ATOM      9  C   UNL     1       1.962   7.601  19.720  0.00  0.00    +0.000 A 
ATOM     10  C   UNL     1       1.082   8.581  20.204  0.00  0.00    +0.000 A 
ATOM     11  C   UNL     1       0.793   9.706  19.440  0.00  0.00    +0.000 A 
ATOM     12  C   UNL     1       1.387   9.860  18.191  0.00  0.00    +0.000 A 
ATOM     13  C   UNL     1       2.272   8.889  17.705  0.00  0.00    +0.000 A 
ATOM     14  C   UNL     1       2.588   7.748  18.462  0.00  0.00    +0.000 A 
ENDBRANCH   2   4
BRANCH   3  15
ATOM     15  C   UNL     1       7.369   7.664  17.851  0.00  0.00    +0.000 C 
ATOM     16  C   UNL     1       8.206   8.619  17.420  0.00  0.00    +0.000 C 
BRANCH  16  17
ATOM     17  C   UNL     1       8.531   9.808  18.198  0.00  0.00    +0.000 C 
ATOM     18  C   UNL     1       8.042  11.119  17.647  0.00  0.00    +0.000 C 
ATOM     19  C   UNL     1       9.216   9.703  19.359  0.00  0.00    +0.000 C 
BRANCH  19  20
ATOM     20  C   UNL     1       9.569  10.851  20.216  0.00  0.00    +0.000 C 
ATOM     21  O   UNL     1       8.918  11.269  21.155  0.00  0.00    +0.000 OA
BRANCH  20  22
ATOM     22  O   UNL     1      10.738  11.409  19.834  0.00  0.00    +0.000 OA
ATOM     23  H   UNL     1      11.472  11.317  20.467  0.00  0.00    +0.000 HD
ENDBRANCH  20  22
ENDBRANCH  19  20
ENDBRANCH  16  17
ENDBRANCH   3  15
TORSDOF 5
ENDMDL
