MODEL 1
REMARK VINA RESULT:      -8.8      0.000      0.000
REMARK  Name = 
REMARK  3 active torsions:
REMARK  status: ('A' for Active; 'I' for Inactive)
REMARK    1  A    between atoms: C_1  and  N_2
REMARK    2  A    between atoms: C_9  and  N_10
REMARK    3  A    between atoms: N_10  and  C_11
REMARK                            x       y       z     vdW  Elec       q    Type
REMARK                         _______ _______ _______ _____ _____    ______ ____
ROOT
ATOM      1  C   UNL     1       3.830   1.868  17.516  0.00  0.00    +0.000 C 
ATOM      2  N   UNL     1       3.633   3.249  18.033  0.00  0.00    +0.000 N 
ATOM      3  C   UNL     1       4.138   4.339  17.367  0.00  0.00    +0.000 A 
ATOM      4  C   UNL     1       4.844   4.225  16.143  0.00  0.00    +0.000 A 
ATOM      5  C   UNL     1       5.409   5.325  15.493  0.00  0.00    +0.000 A 
ATOM      6  C   UNL     1       5.332   6.569  16.075  0.00  0.00    +0.000 A 
ATOM      7  C   UNL     1       4.659   6.710  17.284  0.00  0.00    +0.000 A 
ATOM      8  C   UNL     1       3.986   5.637  17.927  0.00  0.00    +0.000 A 
ATOM      9  C   UNL     1       3.188   5.808  19.088  0.00  0.00    +0.000 A 
ATOM     10  C   UNL     1       2.627   4.669  19.713  0.00  0.00    +0.000 A 
ATOM     11  C   UNL     1       1.771   4.759  20.844  0.00  0.00    +0.000 A 
ATOM     12  C   UNL     1       1.301   3.629  21.516  0.00  0.00    +0.000 A 
ATOM     13  C   UNL     1       1.686   2.373  21.087  0.00  0.00    +0.000 A 
ATOM     14  C   UNL     1       2.479   2.254  19.945  0.00  0.00    +0.000 A 
ATOM     15  C   UNL     1       2.925   3.381  19.205  0.00  0.00    +0.000 A 
ENDROOT
BRANCH   9  16
ATOM     16  N   UNL     1       3.004   7.071  19.729  0.00  0.00    +0.000 N 
ATOM     17  H   UNL     1       3.876   7.422  20.121  0.00  0.00    +0.000 HD
BRANCH  16  18
ATOM     18  C   UNL     1       2.045   8.090  19.525  0.00  0.00    +0.000 A 
ATOM     19  C   UNL     1       1.863   8.599  18.227  0.00  0.00    +0.000 A 
ATOM     20  C   UNL     1       0.870   9.548  17.964  0.00  0.00    +0.000 A 
ATOM     21  C   UNL     1       0.057   9.999  18.996  0.00  0.00    +0.000 A 
ATOM     22  F   UNL     1      -0.901  10.897  18.736  0.00  0.00    +0.000 F 
ATOM     23  C   UNL     1       0.218   9.526  20.290  0.00  0.00    +0.000 A 
ATOM     24  C   UNL     1       1.214   8.587  20.548  0.00  0.00    +0.000 A 
ATOM     25  F   UNL     1       1.343   8.128  21.803  0.00  0.00    +0.000 F 
ENDBRANCH  16  18
ENDBRANCH   9  16
TORSDOF 2
ENDMDL
MODEL 2
REMARK VINA RESULT:      -8.6      0.942      1.394
REMARK  Name = 
REMARK  3 active torsions:
REMARK  status: ('A' for Active; 'I' for Inactive)
REMARK    1  A    between atoms: C_1  and  N_2
REMARK    2  A    between atoms: C_9  and  N_10
REMARK    3  A    between atoms: N_10  and  C_11
REMARK                            x       y       z     vdW  Elec       q    Type
REMARK                         _______ _______ _______ _____ _____    ______ ____
ROOT
ATOM      1  C   UNL     1       3.828   1.757  17.540  0.00  0.00    +0.000 C 
ATOM      2  N   UNL     1       3.656   3.151  18.029  0.00  0.00    +0.000 N 
ATOM      3  C   UNL     1       4.171   4.219  17.334  0.00  0.00    +0.000 A 
ATOM      4  C   UNL     1       4.866   4.068  16.107  0.00  0.00    +0.000 A 
ATOM      5  C   UNL     1       5.441   5.145  15.429  0.00  0.00    +0.000 A 
ATOM      6  C   UNL     1       5.388   6.402  15.985  0.00  0.00    +0.000 A 
ATOM      7  C   UNL     1       4.728   6.580  17.197  0.00  0.00    +0.000 A 
ATOM      8  C   UNL     1       4.044   5.531  17.868  0.00  0.00    +0.000 A 
ATOM      9  C   UNL     1       3.259   5.739  19.031  0.00  0.00    +0.000 A 
ATOM     10  C   UNL     1       2.686   4.623  19.685  0.00  0.00    +0.000 A 
ATOM     11  C   UNL     1       1.842   4.750  20.821  0.00  0.00    +0.000 A 
ATOM     12  C   UNL     1       1.359   3.642  21.521  0.00  0.00    +0.000 A 
ATOM     13  C   UNL     1       1.722   2.372  21.116  0.00  0.00    +0.000 A 
ATOM     14  C   UNL     1       2.503   2.216  19.971  0.00  0.00    +0.000 A 
ATOM     15  C   UNL     1       2.960   3.320  19.203  0.00  0.00    +0.000 A 
ENDROOT
BRANCH   9  16
ATOM     16  N   UNL     1       3.100   7.018  19.646  0.00  0.00    +0.000 N 
ATOM     17  H   UNL     1       3.998   7.427  19.899  0.00  0.00    +0.000 HD
BRANCH  16  18
ATOM     18  C   UNL     1       2.069   7.982  19.543  0.00  0.00    +0.000 A 
ATOM     19  C   UNL     1       1.305   8.279  20.685  0.00  0.00    +0.000 A 
ATOM     20  C   UNL     1       0.330   9.282  20.651  0.00  0.00    +0.000 A 
ATOM     21  C   UNL     1       0.109   9.988  19.476  0.00  0.00    +0.000 A 
ATOM     22  F   UNL     1      -0.814  10.957  19.453  0.00  0.00    +0.000 F 
ATOM     23  C   UNL     1       0.838   9.711  18.329  0.00  0.00    +0.000 A 
ATOM     24  C   UNL     1       1.802   8.706  18.366  0.00  0.00    +0.000 A 
ATOM     25  F   UNL     1       2.509   8.465  17.251  0.00  0.00    +0.000 F 
ENDBRANCH  16  18
ENDBRANCH   9  16
TORSDOF 2
ENDMDL
MODEL 3
REMARK VINA RESULT:      -8.4      0.928      4.001
REMARK  Name = 
REMARK  3 active torsions:
REMARK  status: ('A' for Active; 'I' for Inactive)
REMARK    1  A    between atoms: C_1  and  N_2
REMARK    2  A    between atoms: C_9  and  N_10
REMARK    3  A    between atoms: N_10  and  C_11
REMARK                            x       y       z     vdW  Elec       q    Type
REMARK                         _______ _______ _______ _____ _____    ______ ____
ROOT
ATOM      1  C   UNL     1       3.749   1.946  17.332  0.00  0.00    +0.000 C 
ATOM      2  N   UNL     1       3.575   3.269  17.990  0.00  0.00    +0.000 N 
ATOM      3  C   UNL     1       2.876   3.393  19.168  0.00  0.00    +0.000 A 
ATOM      4  C   UNL     1       2.308   2.280  19.839  0.00  0.00    +0.000 A 
ATOM      5  C   UNL     1       1.548   2.409  21.003  0.00  0.00    +0.000 A 
ATOM      6  C   UNL     1       1.285   3.663  21.504  0.00  0.00    +0.000 A 
ATOM      7  C   UNL     1       1.814   4.776  20.859  0.00  0.00    +0.000 A 
ATOM      8  C   UNL     1       2.673   4.682  19.732  0.00  0.00    +0.000 A 
ATOM      9  C   UNL     1       3.321   5.806  19.156  0.00  0.00    +0.000 A 
ATOM     10  C   UNL     1       4.088   5.632  17.980  0.00  0.00    +0.000 A 
ATOM     11  C   UNL     1       4.813   6.693  17.373  0.00  0.00    +0.000 A 
ATOM     12  C   UNL     1       5.488   6.540  16.161  0.00  0.00    +0.000 A 
ATOM     13  C   UNL     1       5.444   5.323  15.508  0.00  0.00    +0.000 A 
ATOM     14  C   UNL     1       4.788   4.248  16.109  0.00  0.00    +0.000 A 
ATOM     15  C   UNL     1       4.143   4.356  17.368  0.00  0.00    +0.000 A 
ENDROOT
BRANCH   9  16
ATOM     16  N   UNL     1       3.152   7.138  19.643  0.00  0.00    +0.000 N 
ATOM     17  H   UNL     1       4.046   7.611  19.758  0.00  0.00    +0.000 HD
BRANCH  16  18
ATOM     18  C   UNL     1       2.064   8.037  19.543  0.00  0.00    +0.000 A 
ATOM     19  C   UNL     1       1.316   8.326  20.698  0.00  0.00    +0.000 A 
ATOM     20  C   UNL     1       0.284   9.270  20.664  0.00  0.00    +0.000 A 
ATOM     21  C   UNL     1      -0.010   9.925  19.475  0.00  0.00    +0.000 A 
ATOM     22  F   UNL     1      -0.989  10.838  19.451  0.00  0.00    +0.000 F 
ATOM     23  C   UNL     1       0.700   9.654  18.315  0.00  0.00    +0.000 A 
ATOM     24  C   UNL     1       1.722   8.707  18.354  0.00  0.00    +0.000 A 
ATOM     25  F   UNL     1       2.410   8.472  17.225  0.00  0.00    +0.000 F 
ENDBRANCH  16  18
ENDBRANCH   9  16
TORSDOF 2
ENDMDL
MODEL 4
REMARK VINA RESULT:      -8.3      0.187      3.754
REMARK  Name = 
REMARK  3 active torsions:
REMARK  status: ('A' for Active; 'I' for Inactive)
REMARK    1  A    between atoms: C_1  and  N_2
REMARK    2  A    between atoms: C_9  and  N_10
REMARK    3  A    between atoms: N_10  and  C_11
REMARK                            x       y       z     vdW  Elec       q    Type
REMARK                         _______ _______ _______ _____ _____    ______ ____
ROOT
ATOM      1  C   UNL     1       3.694   2.043  17.148  0.00  0.00    +0.000 C 
ATOM      2  N   UNL     1       3.526   3.340  17.857  0.00  0.00    +0.000 N 
ATOM      3  C   UNL     1       2.823   3.423  19.036  0.00  0.00    +0.000 A 
ATOM      4  C   UNL     1       2.245   2.288  19.661  0.00  0.00    +0.000 A 
ATOM      5  C   UNL     1       1.482   2.377  20.827  0.00  0.00    +0.000 A 
ATOM      6  C   UNL     1       1.225   3.612  21.376  0.00  0.00    +0.000 A 
ATOM      7  C   UNL     1       1.765   4.746  20.776  0.00  0.00    +0.000 A 
ATOM      8  C   UNL     1       2.628   4.690  19.649  0.00  0.00    +0.000 A 
ATOM      9  C   UNL     1       3.285   5.831  19.120  0.00  0.00    +0.000 A 
ATOM     10  C   UNL     1       4.055   5.698  17.941  0.00  0.00    +0.000 A 
ATOM     11  C   UNL     1       4.789   6.778  17.379  0.00  0.00    +0.000 A 
ATOM     12  C   UNL     1       5.468   6.667  16.164  0.00  0.00    +0.000 A 
ATOM     13  C   UNL     1       5.418   5.477  15.464  0.00  0.00    +0.000 A 
ATOM     14  C   UNL     1       4.753   4.384  16.019  0.00  0.00    +0.000 A 
ATOM     15  C   UNL     1       4.104   4.447  17.280  0.00  0.00    +0.000 A 
ENDROOT
BRANCH   9  16
ATOM     16  N   UNL     1       3.123   7.144  19.659  0.00  0.00    +0.000 N 
ATOM     17  H   UNL     1       4.018   7.556  19.916  0.00  0.00    +0.000 HD
BRANCH  16  18
ATOM     18  C   UNL     1       2.107   8.110  19.472  0.00  0.00    +0.000 A 
ATOM     19  C   UNL     1       1.900   8.634  18.184  0.00  0.00    +0.000 A 
ATOM     20  C   UNL     1       0.855   9.530  17.936  0.00  0.00    +0.000 A 
ATOM     21  C   UNL     1       0.015   9.913  18.974  0.00  0.00    +0.000 A 
ATOM     22  F   UNL     1      -0.993  10.759  18.728  0.00  0.00    +0.000 F 
ATOM     23  C   UNL     1       0.199   9.424  20.259  0.00  0.00    +0.000 A 
ATOM     24  C   UNL     1       1.247   8.538  20.501  0.00  0.00    +0.000 A 
ATOM     25  F   UNL     1       1.398   8.062  21.747  0.00  0.00    +0.000 F 
ENDBRANCH  16  18
ENDBRANCH   9  16
TORSDOF 2
ENDMDL
MODEL 5
REMARK VINA RESULT:      -7.6      3.834      8.681
REMARK  Name = 
REMARK  3 active torsions:
REMARK  status: ('A' for Active; 'I' for Inactive)
REMARK    1  A    between atoms: C_1  and  N_2
REMARK    2  A    between atoms: C_9  and  N_10
REMARK    3  A    between atoms: N_10  and  C_11
REMARK                            x       y       z     vdW  Elec       q    Type
REMARK                         _______ _______ _______ _____ _____    ______ ____
ROOT
ATOM      1  C   UNL     1      -5.183  12.591  19.627  0.00  0.00    +0.000 C 
ATOM      2  N   UNL     1      -3.761  12.169  19.510  0.00  0.00    +0.000 N 
ATOM      3  C   UNL     1      -2.862  12.403  20.524  0.00  0.00    +0.000 A 
ATOM      4  C   UNL     1      -3.233  13.025  21.744  0.00  0.00    +0.000 A 
ATOM      5  C   UNL     1      -2.311  13.316  22.752  0.00  0.00    +0.000 A 
ATOM      6  C   UNL     1      -0.978  13.043  22.550  0.00  0.00    +0.000 A 
ATOM      7  C   UNL     1      -0.581  12.448  21.357  0.00  0.00    +0.000 A 
ATOM      8  C   UNL     1      -1.498  12.045  20.349  0.00  0.00    +0.000 A 
ATOM      9  C   UNL     1      -1.109  11.319  19.195  0.00  0.00    +0.000 A 
ATOM     10  C   UNL     1      -2.073  11.037  18.199  0.00  0.00    +0.000 A 
ATOM     11  C   UNL     1      -1.779  10.267  17.041  0.00  0.00    +0.000 A 
ATOM     12  C   UNL     1      -2.706  10.075  16.016  0.00  0.00    +0.000 A 
ATOM     13  C   UNL     1      -3.954  10.663  16.109  0.00  0.00    +0.000 A 
ATOM     14  C   UNL     1      -4.290  11.376  17.260  0.00  0.00    +0.000 A 
ATOM     15  C   UNL     1      -3.389  11.539  18.345  0.00  0.00    +0.000 A 
ENDROOT
BRANCH   9  16
ATOM     16  N   UNL     1       0.244  10.943  18.929  0.00  0.00    +0.000 N 
ATOM     17  H   UNL     1       0.873  11.742  18.988  0.00  0.00    +0.000 HD
BRANCH  16  18
ATOM     18  C   UNL     1       0.914   9.705  19.072  0.00  0.00    +0.000 A 
ATOM     19  C   UNL     1       1.612   9.182  17.969  0.00  0.00    +0.000 A 
ATOM     20  C   UNL     1       2.355   8.003  18.088  0.00  0.00    +0.000 A 
ATOM     21  C   UNL     1       2.401   7.337  19.306  0.00  0.00    +0.000 A 
ATOM     22  F   UNL     1       3.126   6.218  19.418  0.00  0.00    +0.000 F 
ATOM     23  C   UNL     1       1.714   7.820  20.410  0.00  0.00    +0.000 A 
ATOM     24  C   UNL     1       0.969   8.991  20.284  0.00  0.00    +0.000 A 
ATOM     25  F   UNL     1       0.326   9.452  21.368  0.00  0.00    +0.000 F 
ENDBRANCH  16  18
ENDBRANCH   9  16
TORSDOF 2
ENDMDL
MODEL 6
REMARK VINA RESULT:      -7.5      3.933      8.442
REMARK  Name = 
REMARK  3 active torsions:
REMARK  status: ('A' for Active; 'I' for Inactive)
REMARK    1  A    between atoms: C_1  and  N_2
REMARK    2  A    between atoms: C_9  and  N_10
REMARK    3  A    between atoms: N_10  and  C_11
REMARK                            x       y       z     vdW  Elec       q    Type
REMARK                         _______ _______ _______ _____ _____    ______ ____
ROOT
ATOM      1  C   UNL     1      -5.152  12.668  19.983  0.00  0.00    +0.000 C 
ATOM      2  N   UNL     1      -3.751  12.274  19.675  0.00  0.00    +0.000 N 
ATOM      3  C   UNL     1      -3.421  11.689  18.475  0.00  0.00    +0.000 A 
ATOM      4  C   UNL     1      -4.377  11.453  17.454  0.00  0.00    +0.000 A 
ATOM      5  C   UNL     1      -4.057  10.806  16.258  0.00  0.00    +0.000 A 
ATOM      6  C   UNL     1      -2.782  10.325  16.067  0.00  0.00    +0.000 A 
ATOM      7  C   UNL     1      -1.827  10.526  17.058  0.00  0.00    +0.000 A 
ATOM      8  C   UNL     1      -2.084  11.266  18.244  0.00  0.00    +0.000 A 
ATOM      9  C   UNL     1      -1.077  11.586  19.190  0.00  0.00    +0.000 A 
ATOM     10  C   UNL     1      -1.439  12.248  20.387  0.00  0.00    +0.000 A 
ATOM     11  C   UNL     1      -0.485  12.654  21.358  0.00  0.00    +0.000 A 
ATOM     12  C   UNL     1      -0.856  13.218  22.580  0.00  0.00    +0.000 A 
ATOM     13  C   UNL     1      -2.197  13.378  22.875  0.00  0.00    +0.000 A 
ATOM     14  C   UNL     1      -3.153  13.041  21.917  0.00  0.00    +0.000 A 
ATOM     15  C   UNL     1      -2.805  12.521  20.643  0.00  0.00    +0.000 A 
ENDROOT
BRANCH   9  16
ATOM     16  N   UNL     1       0.285  11.177  19.048  0.00  0.00    +0.000 N 
ATOM     17  H   UNL     1       0.928  11.944  19.238  0.00  0.00    +0.000 HD
BRANCH  16  18
ATOM     18  C   UNL     1       0.895   9.907  19.169  0.00  0.00    +0.000 A 
ATOM     19  C   UNL     1       1.590   9.382  18.065  0.00  0.00    +0.000 A 
ATOM     20  C   UNL     1       2.277   8.167  18.165  0.00  0.00    +0.000 A 
ATOM     21  C   UNL     1       2.268   7.468  19.365  0.00  0.00    +0.000 A 
ATOM     22  F   UNL     1       2.939   6.313  19.459  0.00  0.00    +0.000 F 
ATOM     23  C   UNL     1       1.583   7.952  20.469  0.00  0.00    +0.000 A 
ATOM     24  C   UNL     1       0.894   9.158  20.361  0.00  0.00    +0.000 A 
ATOM     25  F   UNL     1       0.251   9.620  21.446  0.00  0.00    +0.000 F 
ENDBRANCH  16  18
ENDBRANCH   9  16
TORSDOF 2
ENDMDL
MODEL 7
REMARK VINA RESULT:      -7.4      4.023      8.933
REMARK  Name = 
REMARK  3 active torsions:
REMARK  status: ('A' for Active; 'I' for Inactive)
REMARK    1  A    between atoms: C_1  and  N_2
REMARK    2  A    between atoms: C_9  and  N_10
REMARK    3  A    between atoms: N_10  and  C_11
REMARK                            x       y       z     vdW  Elec       q    Type
REMARK                         _______ _______ _______ _____ _____    ______ ____
ROOT
ATOM      1  C   UNL     1      -5.490  12.556  19.241  0.00  0.00    +0.000 C 
ATOM      2  N   UNL     1      -4.054  12.170  19.285  0.00  0.00    +0.000 N 
ATOM      3  C   UNL     1      -3.281  12.423  20.392  0.00  0.00    +0.000 A 
ATOM      4  C   UNL     1      -3.800  13.033  21.563  0.00  0.00    +0.000 A 
ATOM      5  C   UNL     1      -3.005  13.344  22.667  0.00  0.00    +0.000 A 
ATOM      6  C   UNL     1      -1.651  13.106  22.616  0.00  0.00    +0.000 A 
ATOM      7  C   UNL     1      -1.108  12.524  21.475  0.00  0.00    +0.000 A 
ATOM      8  C   UNL     1      -1.896  12.101  20.371  0.00  0.00    +0.000 A 
ATOM      9  C   UNL     1      -1.363  11.387  19.267  0.00  0.00    +0.000 A 
ATOM     10  C   UNL     1      -2.203  11.084  18.170  0.00  0.00    +0.000 A 
ATOM     11  C   UNL     1      -1.762  10.325  17.053  0.00  0.00    +0.000 A 
ATOM     12  C   UNL     1      -2.564  10.112  15.930  0.00  0.00    +0.000 A 
ATOM     13  C   UNL     1      -3.828  10.668  15.883  0.00  0.00    +0.000 A 
ATOM     14  C   UNL     1      -4.308  11.369  16.990  0.00  0.00    +0.000 A 
ATOM     15  C   UNL     1      -3.539  11.552  18.169  0.00  0.00    +0.000 A 
ENDROOT
BRANCH   9  16
ATOM     16  N   UNL     1       0.020  11.046  19.154  0.00  0.00    +0.000 N 
ATOM     17  H   UNL     1       0.614  11.873  19.191  0.00  0.00    +0.000 HD
BRANCH  16  18
ATOM     18  C   UNL     1       0.716   9.856  19.469  0.00  0.00    +0.000 A 
ATOM     19  C   UNL     1       0.551   9.293  20.748  0.00  0.00    +0.000 A 
ATOM     20  C   UNL     1       1.155   8.075  21.076  0.00  0.00    +0.000 A 
ATOM     21  C   UNL     1       1.932   7.415  20.133  0.00  0.00    +0.000 A 
ATOM     22  F   UNL     1       2.495   6.242  20.447  0.00  0.00    +0.000 F 
ATOM     23  C   UNL     1       2.125   7.948  18.867  0.00  0.00    +0.000 A 
ATOM     24  C   UNL     1       1.527   9.166  18.548  0.00  0.00    +0.000 A 
ATOM     25  F   UNL     1       1.711   9.657  17.312  0.00  0.00    +0.000 F 
ENDBRANCH  16  18
ENDBRANCH   9  16
TORSDOF 2
ENDMDL
MODEL 8
REMARK VINA RESULT:      -7.4      3.904      8.492
REMARK  Name = 
REMARK  3 active torsions:
REMARK  status: ('A' for Active; 'I' for Inactive)
REMARK    1  A    between atoms: C_1  and  N_2
REMARK    2  A    between atoms: C_9  and  N_10
REMARK    3  A    between atoms: N_10  and  C_11
REMARK                            x       y       z     vdW  Elec       q    Type
REMARK                         _______ _______ _______ _____ _____    ______ ____
ROOT
ATOM      1  C   UNL     1      -4.952  12.803  19.931  0.00  0.00    +0.000 C 
ATOM      2  N   UNL     1      -3.562  12.337  19.680  0.00  0.00    +0.000 N 
ATOM      3  C   UNL     1      -3.230  11.668  18.526  0.00  0.00    +0.000 A 
ATOM      4  C   UNL     1      -4.172  11.408  17.498  0.00  0.00    +0.000 A 
ATOM      5  C   UNL     1      -3.853  10.679  16.350  0.00  0.00    +0.000 A 
ATOM      6  C   UNL     1      -2.594  10.138  16.219  0.00  0.00    +0.000 A 
ATOM      7  C   UNL     1      -1.653  10.362  17.219  0.00  0.00    +0.000 A 
ATOM      8  C   UNL     1      -1.906  11.181  18.352  0.00  0.00    +0.000 A 
ATOM      9  C   UNL     1      -0.907  11.519  19.302  0.00  0.00    +0.000 A 
ATOM     10  C   UNL     1      -1.269  12.265  20.448  0.00  0.00    +0.000 A 
ATOM     11  C   UNL     1      -0.321  12.692  21.416  0.00  0.00    +0.000 A 
ATOM     12  C   UNL     1      -0.695  13.343  22.593  0.00  0.00    +0.000 A 
ATOM     13  C   UNL     1      -2.035  13.572  22.846  0.00  0.00    +0.000 A 
ATOM     14  C   UNL     1      -2.983  13.215  21.887  0.00  0.00    +0.000 A 
ATOM     15  C   UNL     1      -2.628  12.605  20.654  0.00  0.00    +0.000 A 
ENDROOT
BRANCH   9  16
ATOM     16  N   UNL     1       0.440  11.050  19.217  0.00  0.00    +0.000 N 
ATOM     17  H   UNL     1       1.108  11.812  19.317  0.00  0.00    +0.000 HD
BRANCH  16  18
ATOM     18  C   UNL     1       1.006   9.783  19.493  0.00  0.00    +0.000 A 
ATOM     19  C   UNL     1       0.806   9.215  20.764  0.00  0.00    +0.000 A 
ATOM     20  C   UNL     1       1.278   7.931  21.055  0.00  0.00    +0.000 A 
ATOM     21  C   UNL     1       1.956   7.209  20.081  0.00  0.00    +0.000 A 
ATOM     22  F   UNL     1       2.392   5.975  20.359  0.00  0.00    +0.000 F 
ATOM     23  C   UNL     1       2.180   7.745  18.821  0.00  0.00    +0.000 A 
ATOM     24  C   UNL     1       1.715   9.028  18.540  0.00  0.00    +0.000 A 
ATOM     25  F   UNL     1       1.926   9.523  17.310  0.00  0.00    +0.000 F 
ENDBRANCH  16  18
ENDBRANCH   9  16
TORSDOF 2
ENDMDL
MODEL 9
REMARK VINA RESULT:      -7.2      3.497      8.307
REMARK  Name = 
REMARK  3 active torsions:
REMARK  status: ('A' for Active; 'I' for Inactive)
REMARK    1  A    between atoms: C_1  and  N_2
REMARK    2  A    between atoms: C_9  and  N_10
REMARK    3  A    between atoms: N_10  and  C_11
REMARK                            x       y       z     vdW  Elec       q    Type
REMARK                         _______ _______ _______ _____ _____    ______ ____
ROOT
ATOM      1  C   UNL     1      -3.081  13.719  20.557  0.00  0.00    +0.000 C 
ATOM      2  N   UNL     1      -2.050  12.869  19.902  0.00  0.00    +0.000 N 
ATOM      3  C   UNL     1      -2.395  11.923  18.967  0.00  0.00    +0.000 A 
ATOM      4  C   UNL     1      -3.735  11.716  18.548  0.00  0.00    +0.000 A 
ATOM      5  C   UNL     1      -4.095  10.716  17.642  0.00  0.00    +0.000 A 
ATOM      6  C   UNL     1      -3.135   9.854  17.166  0.00  0.00    +0.000 A 
ATOM      7  C   UNL     1      -1.814  10.021  17.571  0.00  0.00    +0.000 A 
ATOM      8  C   UNL     1      -1.390  11.085  18.411  0.00  0.00    +0.000 A 
ATOM      9  C   UNL     1      -0.027  11.335  18.715  0.00  0.00    +0.000 A 
ATOM     10  C   UNL     1       0.299  12.361  19.633  0.00  0.00    +0.000 A 
ATOM     11  C   UNL     1       1.640  12.712  19.948  0.00  0.00    +0.000 A 
ATOM     12  C   UNL     1       1.955  13.657  20.925  0.00  0.00    +0.000 A 
ATOM     13  C   UNL     1       0.937  14.270  21.631  0.00  0.00    +0.000 A 
ATOM     14  C   UNL     1      -0.389  13.987  21.303  0.00  0.00    +0.000 A 
ATOM     15  C   UNL     1      -0.742  13.075  20.274  0.00  0.00    +0.000 A 
ENDROOT
BRANCH   9  16
ATOM     16  N   UNL     1       1.043  10.527  18.222  0.00  0.00    +0.000 N 
ATOM     17  H   UNL     1       1.761  11.091  17.770  0.00  0.00    +0.000 HD
BRANCH  16  18
ATOM     18  C   UNL     1       1.517   9.257  18.627  0.00  0.00    +0.000 A 
ATOM     19  C   UNL     1       2.252   8.484  17.711  0.00  0.00    +0.000 A 
ATOM     20  C   UNL     1       2.810   7.260  18.093  0.00  0.00    +0.000 A 
ATOM     21  C   UNL     1       2.632   6.798  19.391  0.00  0.00    +0.000 A 
ATOM     22  F   UNL     1       3.180   5.632  19.756  0.00  0.00    +0.000 F 
ATOM     23  C   UNL     1       1.903   7.530  20.316  0.00  0.00    +0.000 A 
ATOM     24  C   UNL     1       1.343   8.745  19.927  0.00  0.00    +0.000 A 
ATOM     25  F   UNL     1       0.656   9.448  20.841  0.00  0.00    +0.000 F 
ENDBRANCH  16  18
ENDBRANCH   9  16
TORSDOF 2
ENDMDL
