MODEL 1
REMARK VINA RESULT:      -7.9      0.000      0.000
REMARK  Name = 
REMARK  13 active torsions:
REMARK  status: ('A' for Active; 'I' for Inactive)
REMARK    1  A    between atoms: C_2  and  O_3
REMARK    2  A    between atoms: C_2  and  C_4
REMARK    3  A    between atoms: C_4  and  C_5
REMARK    4  A    between atoms: C_5  and  C_6
REMARK    5  A    between atoms: C_6  and  C_7
REMARK    6  A    between atoms: C_8  and  C_9
REMARK    7  A    between atoms: C_9  and  C_10
REMARK    8  A    between atoms: C_11  and  C_12
REMARK    9  A    between atoms: C_13  and  C_14
REMARK   10  A    between atoms: C_14  and  O_15
REMARK   11  A    between atoms: C_14  and  C_16
REMARK   12  A    between atoms: C_16  and  C_17
REMARK   13  A    between atoms: C_17  and  C_18
REMARK                            x       y       z     vdW  Elec       q    Type
REMARK                         _______ _______ _______ _____ _____    ______ ____
ROOT
ATOM      1  C   UNL     1       1.869   4.483  18.496  0.00  0.00    +0.000 C 
ATOM      2  C   UNL     1       2.877   5.127  19.503  0.00  0.00    +0.000 C 
ATOM      3  C   UNL     1       2.315   4.627  20.852  0.00  0.00    +0.000 C 
ATOM      4  O   UNL     1       0.890   4.632  20.552  0.00  0.00    +0.000 OA
ATOM      5  C   UNL     1       0.947   3.683  19.449  0.00  0.00    +0.000 C 
ATOM      6  C   UNL     1       1.677   2.509  20.058  0.00  0.00    +0.000 C 
ATOM      7  O   UNL     1       1.585   2.310  21.476  0.00  0.00    +0.000 OA
ATOM      8  C   UNL     1       2.631   3.156  20.992  0.00  0.00    +0.000 C 
ENDROOT
BRANCH   2   9
ATOM      9  C   UNL     1       2.852   6.635  19.428  0.00  0.00    +0.000 C 
ATOM     10  C   UNL     1       2.174   7.334  18.504  0.00  0.00    +0.000 C 
BRANCH  10  11
ATOM     11  C   UNL     1       2.135   8.835  18.471  0.00  0.00    +0.000 C 
BRANCH  11  12
ATOM     12  O   UNL     1       2.010   9.237  17.111  0.00  0.00    +0.000 OA
ATOM     13  H   UNL     1       2.692   8.773  16.598  0.00  0.00    +0.000 HD
ENDBRANCH  11  12
BRANCH  11  14
ATOM     14  C   UNL     1       0.964   9.406  19.277  0.00  0.00    +0.000 C 
BRANCH  14  15
ATOM     15  C   UNL     1       0.503  10.765  18.747  0.00  0.00    +0.000 C 
BRANCH  15  16
ATOM     16  C   UNL     1      -0.959  10.760  18.389  0.00  0.00    +0.000 A 
ATOM     17  C   UNL     1      -1.455   9.867  17.431  0.00  0.00    +0.000 A 
ATOM     18  C   UNL     1      -2.810   9.866  17.100  0.00  0.00    +0.000 A 
ATOM     19  C   UNL     1      -3.679  10.762  17.721  0.00  0.00    +0.000 A 
ATOM     20  C   UNL     1      -3.193  11.664  18.665  0.00  0.00    +0.000 A 
ATOM     21  C   UNL     1      -1.839  11.667  18.997  0.00  0.00    +0.000 A 
ENDBRANCH  15  16
ENDBRANCH  14  15
ENDBRANCH  11  14
ENDBRANCH  10  11
ENDBRANCH   2   9
BRANCH   1  22
ATOM     22  C   UNL     1       2.533   3.648  17.395  0.00  0.00    +0.000 C 
BRANCH  22  24
ATOM     23  C   UNL     1       5.024   4.124  17.151  0.00  0.00    +0.000 C 
ATOM     24  C   UNL     1       4.000   3.419  17.663  0.00  0.00    +0.000 C 
BRANCH  23  25
ATOM     25  C   UNL     1       4.906   5.240  16.160  0.00  0.00    +0.000 C 
BRANCH  25  26
ATOM     26  C   UNL     1       5.597   6.517  16.647  0.00  0.00    +0.000 C 
BRANCH  26  27
ATOM     27  C   UNL     1       6.528   6.250  17.827  0.00  0.00    +0.000 C 
BRANCH  27  29
ATOM     28  O   UNL     1       7.790   8.219  17.166  0.00  0.00    +0.000 OA
ATOM     29  C   UNL     1       7.638   7.272  17.926  0.00  0.00    +0.000 C 
BRANCH  29  30
ATOM     30  O   UNL     1       8.462   7.054  18.979  0.00  0.00    +0.000 OA
ATOM     31  H   UNL     1       8.677   7.855  19.492  0.00  0.00    +0.000 HD
ENDBRANCH  29  30
ENDBRANCH  27  29
ENDBRANCH  26  27
ENDBRANCH  25  26
ENDBRANCH  23  25
ENDBRANCH  22  24
ENDBRANCH   1  22
TORSDOF 13
ENDMDL
MODEL 2
REMARK VINA RESULT:      -7.7      1.493      4.638
REMARK  Name = 
REMARK  13 active torsions:
REMARK  status: ('A' for Active; 'I' for Inactive)
REMARK    1  A    between atoms: C_2  and  O_3
REMARK    2  A    between atoms: C_2  and  C_4
REMARK    3  A    between atoms: C_4  and  C_5
REMARK    4  A    between atoms: C_5  and  C_6
REMARK    5  A    between atoms: C_6  and  C_7
REMARK    6  A    between atoms: C_8  and  C_9
REMARK    7  A    between atoms: C_9  and  C_10
REMARK    8  A    between atoms: C_11  and  C_12
REMARK    9  A    between atoms: C_13  and  C_14
REMARK   10  A    between atoms: C_14  and  O_15
REMARK   11  A    between atoms: C_14  and  C_16
REMARK   12  A    between atoms: C_16  and  C_17
REMARK   13  A    between atoms: C_17  and  C_18
REMARK                            x       y       z     vdW  Elec       q    Type
REMARK                         _______ _______ _______ _____ _____    ______ ____
ROOT
ATOM      1  C   UNL     1       4.326   4.780  17.844  0.00  0.00    +0.000 C 
ATOM      2  C   UNL     1       4.233   6.120  17.044  0.00  0.00    +0.000 C 
ATOM      3  C   UNL     1       5.720   6.534  16.977  0.00  0.00    +0.000 C 
ATOM      4  O   UNL     1       6.180   6.042  18.267  0.00  0.00    +0.000 OA
ATOM      5  C   UNL     1       5.855   4.640  18.039  0.00  0.00    +0.000 C 
ATOM      6  C   UNL     1       6.550   4.349  16.729  0.00  0.00    +0.000 C 
ATOM      7  O   UNL     1       7.707   5.124  16.383  0.00  0.00    +0.000 OA
ATOM      8  C   UNL     1       6.428   5.631  15.993  0.00  0.00    +0.000 C 
ENDROOT
BRANCH   2   9
ATOM      9  C   UNL     1       3.413   7.153  17.780  0.00  0.00    +0.000 C 
ATOM     10  C   UNL     1       2.384   6.861  18.592  0.00  0.00    +0.000 C 
BRANCH  10  11
ATOM     11  C   UNL     1       1.605   7.903  19.341  0.00  0.00    +0.000 C 
BRANCH  11  12
ATOM     12  O   UNL     1       2.168   8.014  20.645  0.00  0.00    +0.000 OA
ATOM     13  H   UNL     1       2.145   8.950  20.902  0.00  0.00    +0.000 HD
ENDBRANCH  11  12
BRANCH  11  14
ATOM     14  C   UNL     1       1.651   9.271  18.654  0.00  0.00    +0.000 C 
BRANCH  14  15
ATOM     15  C   UNL     1       0.827  10.323  19.399  0.00  0.00    +0.000 C 
BRANCH  15  16
ATOM     16  C   UNL     1      -0.517  10.539  18.757  0.00  0.00    +0.000 A 
ATOM     17  C   UNL     1      -1.425  11.460  19.297  0.00  0.00    +0.000 A 
ATOM     18  C   UNL     1      -2.670  11.657  18.701  0.00  0.00    +0.000 A 
ATOM     19  C   UNL     1      -3.022  10.930  17.564  0.00  0.00    +0.000 A 
ATOM     20  C   UNL     1      -2.132  10.001  17.028  0.00  0.00    +0.000 A 
ATOM     21  C   UNL     1      -0.886   9.802  17.622  0.00  0.00    +0.000 A 
ENDBRANCH  15  16
ENDBRANCH  14  15
ENDBRANCH  11  14
ENDBRANCH  10  11
ENDBRANCH   2   9
BRANCH   1  22
ATOM     22  C   UNL     1       3.657   3.589  17.149  0.00  0.00    +0.000 C 
BRANCH  22  24
ATOM     23  C   UNL     1       2.563   1.768  18.556  0.00  0.00    +0.000 C 
ATOM     24  C   UNL     1       3.646   2.356  18.019  0.00  0.00    +0.000 C 
BRANCH  23  25
ATOM     25  C   UNL     1       1.154   2.266  18.445  0.00  0.00    +0.000 C 
BRANCH  25  26
ATOM     26  C   UNL     1       0.560   2.614  19.813  0.00  0.00    +0.000 C 
BRANCH  26  27
ATOM     27  C   UNL     1       0.951   4.018  20.268  0.00  0.00    +0.000 C 
BRANCH  27  29
ATOM     28  O   UNL     1       2.343   3.021  21.992  0.00  0.00    +0.000 OA
ATOM     29  C   UNL     1       2.028   4.000  21.329  0.00  0.00    +0.000 C 
BRANCH  29  30
ATOM     30  O   UNL     1       2.650   5.194  21.469  0.00  0.00    +0.000 OA
ATOM     31  H   UNL     1       3.207   5.266  22.266  0.00  0.00    +0.000 HD
ENDBRANCH  29  30
ENDBRANCH  27  29
ENDBRANCH  26  27
ENDBRANCH  25  26
ENDBRANCH  23  25
ENDBRANCH  22  24
ENDBRANCH   1  22
TORSDOF 13
ENDMDL
MODEL 3
REMARK VINA RESULT:      -7.6      2.393      3.208
REMARK  Name = 
REMARK  13 active torsions:
REMARK  status: ('A' for Active; 'I' for Inactive)
REMARK    1  A    between atoms: C_2  and  O_3
REMARK    2  A    between atoms: C_2  and  C_4
REMARK    3  A    between atoms: C_4  and  C_5
REMARK    4  A    between atoms: C_5  and  C_6
REMARK    5  A    between atoms: C_6  and  C_7
REMARK    6  A    between atoms: C_8  and  C_9
REMARK    7  A    between atoms: C_9  and  C_10
REMARK    8  A    between atoms: C_11  and  C_12
REMARK    9  A    between atoms: C_13  and  C_14
REMARK   10  A    between atoms: C_14  and  O_15
REMARK   11  A    between atoms: C_14  and  C_16
REMARK   12  A    between atoms: C_16  and  C_17
REMARK   13  A    between atoms: C_17  and  C_18
REMARK                            x       y       z     vdW  Elec       q    Type
REMARK                         _______ _______ _______ _____ _____    ______ ____
ROOT
ATOM      1  C   UNL     1       3.415   4.088  17.956  0.00  0.00    +0.000 C 
ATOM      2  C   UNL     1       2.557   5.063  18.827  0.00  0.00    +0.000 C 
ATOM      3  C   UNL     1       1.145   4.461  18.650  0.00  0.00    +0.000 C 
ATOM      4  O   UNL     1       1.239   3.992  17.276  0.00  0.00    +0.000 OA
ATOM      5  C   UNL     1       2.346   3.070  17.487  0.00  0.00    +0.000 C 
ATOM      6  C   UNL     1       1.856   2.221  18.637  0.00  0.00    +0.000 C 
ATOM      7  O   UNL     1       0.441   2.060  18.811  0.00  0.00    +0.000 OA
ATOM      8  C   UNL     1       1.064   3.179  19.446  0.00  0.00    +0.000 C 
ENDROOT
BRANCH   2   9
ATOM      9  C   UNL     1       2.616   6.477  18.301  0.00  0.00    +0.000 C 
ATOM     10  C   UNL     1       2.059   7.535  18.913  0.00  0.00    +0.000 C 
BRANCH  10  11
ATOM     11  C   UNL     1       2.161   8.938  18.389  0.00  0.00    +0.000 C 
BRANCH  11  12
ATOM     12  O   UNL     1       2.477   8.863  17.002  0.00  0.00    +0.000 OA
ATOM     13  H   UNL     1       1.980   9.561  16.545  0.00  0.00    +0.000 HD
ENDBRANCH  11  12
BRANCH  11  14
ATOM     14  C   UNL     1       0.859   9.724  18.569  0.00  0.00    +0.000 C 
BRANCH  14  15
ATOM     15  C   UNL     1       1.037  10.940  19.481  0.00  0.00    +0.000 C 
BRANCH  15  16
ATOM     16  C   UNL     1       0.329  10.761  20.797  0.00  0.00    +0.000 A 
ATOM     17  C   UNL     1       0.577   9.635  21.593  0.00  0.00    +0.000 A 
ATOM     18  C   UNL     1      -0.081   9.472  22.811  0.00  0.00    +0.000 A 
ATOM     19  C   UNL     1      -0.999  10.429  23.241  0.00  0.00    +0.000 A 
ATOM     20  C   UNL     1      -1.264  11.546  22.451  0.00  0.00    +0.000 A 
ATOM     21  C   UNL     1      -0.606  11.711  21.232  0.00  0.00    +0.000 A 
ENDBRANCH  15  16
ENDBRANCH  14  15
ENDBRANCH  11  14
ENDBRANCH  10  11
ENDBRANCH   2   9
BRANCH   1  22
ATOM     22  C   UNL     1       4.606   3.471  18.698  0.00  0.00    +0.000 C 
BRANCH  22  24
ATOM     23  C   UNL     1       6.473   5.202  18.790  0.00  0.00    +0.000 C 
ATOM     24  C   UNL     1       5.466   4.518  19.362  0.00  0.00    +0.000 C 
BRANCH  23  25
ATOM     25  C   UNL     1       6.978   5.007  17.394  0.00  0.00    +0.000 C 
BRANCH  25  26
ATOM     26  C   UNL     1       6.162   5.804  16.372  0.00  0.00    +0.000 C 
BRANCH  26  27
ATOM     27  C   UNL     1       5.653   4.924  15.233  0.00  0.00    +0.000 C 
BRANCH  27  29
ATOM     28  O   UNL     1       7.720   5.341  14.025  0.00  0.00    +0.000 OA
ATOM     29  C   UNL     1       6.715   4.662  14.189  0.00  0.00    +0.000 C 
BRANCH  29  30
ATOM     30  O   UNL     1       6.460   3.561  13.443  0.00  0.00    +0.000 OA
ATOM     31  H   UNL     1       6.762   2.726  13.844  0.00  0.00    +0.000 HD
ENDBRANCH  29  30
ENDBRANCH  27  29
ENDBRANCH  26  27
ENDBRANCH  25  26
ENDBRANCH  23  25
ENDBRANCH  22  24
ENDBRANCH   1  22
TORSDOF 13
ENDMDL
MODEL 4
REMARK VINA RESULT:      -7.6      2.224      5.315
REMARK  Name = 
REMARK  13 active torsions:
REMARK  status: ('A' for Active; 'I' for Inactive)
REMARK    1  A    between atoms: C_2  and  O_3
REMARK    2  A    between atoms: C_2  and  C_4
REMARK    3  A    between atoms: C_4  and  C_5
REMARK    4  A    between atoms: C_5  and  C_6
REMARK    5  A    between atoms: C_6  and  C_7
REMARK    6  A    between atoms: C_8  and  C_9
REMARK    7  A    between atoms: C_9  and  C_10
REMARK    8  A    between atoms: C_11  and  C_12
REMARK    9  A    between atoms: C_13  and  C_14
REMARK   10  A    between atoms: C_14  and  O_15
REMARK   11  A    between atoms: C_14  and  C_16
REMARK   12  A    between atoms: C_16  and  C_17
REMARK   13  A    between atoms: C_17  and  C_18
REMARK                            x       y       z     vdW  Elec       q    Type
REMARK                         _______ _______ _______ _____ _____    ______ ____
ROOT
ATOM      1  C   UNL     1       5.321   5.535  18.084  0.00  0.00    +0.000 C 
ATOM      2  C   UNL     1       4.548   6.244  16.925  0.00  0.00    +0.000 C 
ATOM      3  C   UNL     1       5.686   6.486  15.909  0.00  0.00    +0.000 C 
ATOM      4  O   UNL     1       6.793   6.737  16.821  0.00  0.00    +0.000 OA
ATOM      5  C   UNL     1       6.751   5.447  17.496  0.00  0.00    +0.000 C 
ATOM      6  C   UNL     1       6.811   4.469  16.346  0.00  0.00    +0.000 C 
ATOM      7  O   UNL     1       7.451   4.884  15.131  0.00  0.00    +0.000 OA
ATOM      8  C   UNL     1       6.057   5.166  15.275  0.00  0.00    +0.000 C 
ENDROOT
BRANCH   2   9
ATOM      9  C   UNL     1       3.936   7.547  17.379  0.00  0.00    +0.000 C 
ATOM     10  C   UNL     1       2.707   7.660  17.907  0.00  0.00    +0.000 C 
BRANCH  10  11
ATOM     11  C   UNL     1       2.133   8.963  18.385  0.00  0.00    +0.000 C 
BRANCH  11  12
ATOM     12  O   UNL     1       1.801   9.740  17.239  0.00  0.00    +0.000 OA
ATOM     13  H   UNL     1       1.784  10.674  17.505  0.00  0.00    +0.000 HD
ENDBRANCH  11  12
BRANCH  11  14
ATOM     14  C   UNL     1       0.879   8.768  19.243  0.00  0.00    +0.000 C 
BRANCH  14  15
ATOM     15  C   UNL     1       1.192   8.788  20.740  0.00  0.00    +0.000 C 
BRANCH  15  16
ATOM     16  C   UNL     1       0.429   9.870  21.457  0.00  0.00    +0.000 A 
ATOM     17  C   UNL     1      -0.404   9.557  22.539  0.00  0.00    +0.000 A 
ATOM     18  C   UNL     1      -1.110  10.561  23.201  0.00  0.00    +0.000 A 
ATOM     19  C   UNL     1      -0.996  11.886  22.781  0.00  0.00    +0.000 A 
ATOM     20  C   UNL     1      -0.181  12.206  21.696  0.00  0.00    +0.000 A 
ATOM     21  C   UNL     1       0.526  11.204  21.034  0.00  0.00    +0.000 A 
ENDBRANCH  15  16
ENDBRANCH  14  15
ENDBRANCH  11  14
ENDBRANCH  10  11
ENDBRANCH   2   9
BRANCH   1  22
ATOM     22  C   UNL     1       4.719   4.189  18.506  0.00  0.00    +0.000 C 
BRANCH  22  24
ATOM     23  C   UNL     1       2.666   3.500  17.164  0.00  0.00    +0.000 C 
ATOM     24  C   UNL     1       3.995   3.510  17.370  0.00  0.00    +0.000 C 
BRANCH  23  25
ATOM     25  C   UNL     1       1.638   4.111  18.065  0.00  0.00    +0.000 C 
BRANCH  25  26
ATOM     26  C   UNL     1       1.032   3.083  19.025  0.00  0.00    +0.000 C 
BRANCH  26  27
ATOM     27  C   UNL     1       1.012   3.587  20.466  0.00  0.00    +0.000 C 
BRANCH  27  29
ATOM     28  O   UNL     1       3.113   2.566  21.135  0.00  0.00    +0.000 OA
ATOM     29  C   UNL     1       1.933   2.795  21.366  0.00  0.00    +0.000 C 
BRANCH  29  30
ATOM     30  O   UNL     1       1.325   2.366  22.497  0.00  0.00    +0.000 OA
ATOM     31  H   UNL     1       1.636   2.805  23.310  0.00  0.00    +0.000 HD
ENDBRANCH  29  30
ENDBRANCH  27  29
ENDBRANCH  26  27
ENDBRANCH  25  26
ENDBRANCH  23  25
ENDBRANCH  22  24
ENDBRANCH   1  22
TORSDOF 13
ENDMDL
MODEL 5
REMARK VINA RESULT:      -7.5      2.661      3.333
REMARK  Name = 
REMARK  13 active torsions:
REMARK  status: ('A' for Active; 'I' for Inactive)
REMARK    1  A    between atoms: C_2  and  O_3
REMARK    2  A    between atoms: C_2  and  C_4
REMARK    3  A    between atoms: C_4  and  C_5
REMARK    4  A    between atoms: C_5  and  C_6
REMARK    5  A    between atoms: C_6  and  C_7
REMARK    6  A    between atoms: C_8  and  C_9
REMARK    7  A    between atoms: C_9  and  C_10
REMARK    8  A    between atoms: C_11  and  C_12
REMARK    9  A    between atoms: C_13  and  C_14
REMARK   10  A    between atoms: C_14  and  O_15
REMARK   11  A    between atoms: C_14  and  C_16
REMARK   12  A    between atoms: C_16  and  C_17
REMARK   13  A    between atoms: C_17  and  C_18
REMARK                            x       y       z     vdW  Elec       q    Type
REMARK                         _______ _______ _______ _____ _____    ______ ____
ROOT
ATOM      1  C   UNL     1       1.955   4.455  18.349  0.00  0.00    +0.000 C 
ATOM      2  C   UNL     1       2.639   5.295  19.476  0.00  0.00    +0.000 C 
ATOM      3  C   UNL     1       2.008   4.671  20.741  0.00  0.00    +0.000 C 
ATOM      4  O   UNL     1       0.677   4.366  20.237  0.00  0.00    +0.000 OA
ATOM      5  C   UNL     1       1.101   3.463  19.176  0.00  0.00    +0.000 C 
ATOM      6  C   UNL     1       1.971   2.472  19.912  0.00  0.00    +0.000 C 
ATOM      7  O   UNL     1       1.719   2.245  21.306  0.00  0.00    +0.000 OA
ATOM      8  C   UNL     1       2.614   3.304  20.959  0.00  0.00    +0.000 C 
ENDROOT
BRANCH   2   9
ATOM      9  C   UNL     1       2.297   6.761  19.364  0.00  0.00    +0.000 C 
ATOM     10  C   UNL     1       2.575   7.521  18.292  0.00  0.00    +0.000 C 
BRANCH  10  11
ATOM     11  C   UNL     1       2.193   8.970  18.188  0.00  0.00    +0.000 C 
BRANCH  11  12
ATOM     12  O   UNL     1       1.203   9.087  17.171  0.00  0.00    +0.000 OA
ATOM     13  H   UNL     1       0.498   8.448  17.366  0.00  0.00    +0.000 HD
ENDBRANCH  11  12
BRANCH  11  14
ATOM     14  C   UNL     1       1.635   9.521  19.504  0.00  0.00    +0.000 C 
BRANCH  14  15
ATOM     15  C   UNL     1       0.175   9.960  19.375  0.00  0.00    +0.000 C 
BRANCH  15  16
ATOM     16  C   UNL     1      -0.393  10.409  20.694  0.00  0.00    +0.000 A 
ATOM     17  C   UNL     1      -0.189   9.650  21.853  0.00  0.00    +0.000 A 
ATOM     18  C   UNL     1      -0.718  10.069  23.074  0.00  0.00    +0.000 A 
ATOM     19  C   UNL     1      -1.462  11.245  23.145  0.00  0.00    +0.000 A 
ATOM     20  C   UNL     1      -1.683  12.000  21.994  0.00  0.00    +0.000 A 
ATOM     21  C   UNL     1      -1.155  11.584  20.773  0.00  0.00    +0.000 A 
ENDBRANCH  15  16
ENDBRANCH  14  15
ENDBRANCH  11  14
ENDBRANCH  10  11
ENDBRANCH   2   9
BRANCH   1  22
ATOM     22  C   UNL     1       2.939   3.795  17.375  0.00  0.00    +0.000 C 
BRANCH  22  24
ATOM     23  C   UNL     1       5.317   4.656  17.072  0.00  0.00    +0.000 C 
ATOM     24  C   UNL     1       4.374   4.015  17.784  0.00  0.00    +0.000 C 
BRANCH  23  25
ATOM     25  C   UNL     1       5.138   5.223  15.697  0.00  0.00    +0.000 C 
BRANCH  25  26
ATOM     26  C   UNL     1       6.131   4.625  14.695  0.00  0.00    +0.000 C 
BRANCH  26  27
ATOM     27  C   UNL     1       5.426   3.890  13.558  0.00  0.00    +0.000 C 
BRANCH  27  29
ATOM     28  O   UNL     1       7.225   4.255  11.966  0.00  0.00    +0.000 OA
ATOM     29  C   UNL     1       6.372   3.516  12.440  0.00  0.00    +0.000 C 
BRANCH  29  30
ATOM     30  O   UNL     1       6.204   2.243  12.011  0.00  0.00    +0.000 OA
ATOM     31  H   UNL     1       7.025   1.809  11.712  0.00  0.00    +0.000 HD
ENDBRANCH  29  30
ENDBRANCH  27  29
ENDBRANCH  26  27
ENDBRANCH  25  26
ENDBRANCH  23  25
ENDBRANCH  22  24
ENDBRANCH   1  22
TORSDOF 13
ENDMDL
MODEL 6
REMARK VINA RESULT:      -7.4      1.729      4.988
REMARK  Name = 
REMARK  13 active torsions:
REMARK  status: ('A' for Active; 'I' for Inactive)
REMARK    1  A    between atoms: C_2  and  O_3
REMARK    2  A    between atoms: C_2  and  C_4
REMARK    3  A    between atoms: C_4  and  C_5
REMARK    4  A    between atoms: C_5  and  C_6
REMARK    5  A    between atoms: C_6  and  C_7
REMARK    6  A    between atoms: C_8  and  C_9
REMARK    7  A    between atoms: C_9  and  C_10
REMARK    8  A    between atoms: C_11  and  C_12
REMARK    9  A    between atoms: C_13  and  C_14
REMARK   10  A    between atoms: C_14  and  O_15
REMARK   11  A    between atoms: C_14  and  C_16
REMARK   12  A    between atoms: C_16  and  C_17
REMARK   13  A    between atoms: C_17  and  C_18
REMARK                            x       y       z     vdW  Elec       q    Type
REMARK                         _______ _______ _______ _____ _____    ______ ____
ROOT
ATOM      1  C   UNL     1       4.882   5.041  18.412  0.00  0.00    +0.000 C 
ATOM      2  C   UNL     1       4.096   5.910  17.376  0.00  0.00    +0.000 C 
ATOM      3  C   UNL     1       5.255   6.592  16.615  0.00  0.00    +0.000 C 
ATOM      4  O   UNL     1       6.212   6.753  17.700  0.00  0.00    +0.000 OA
ATOM      5  C   UNL     1       6.349   5.338  18.016  0.00  0.00    +0.000 C 
ATOM      6  C   UNL     1       6.689   4.730  16.676  0.00  0.00    +0.000 C 
ATOM      7  O   UNL     1       7.346   5.552  15.700  0.00  0.00    +0.000 OA
ATOM      8  C   UNL     1       5.916   5.566  15.724  0.00  0.00    +0.000 C 
ENDROOT
BRANCH   2   9
ATOM      9  C   UNL     1       3.218   6.931  18.059  0.00  0.00    +0.000 C 
ATOM     10  C   UNL     1       3.089   8.206  17.657  0.00  0.00    +0.000 C 
BRANCH  10  11
ATOM     11  C   UNL     1       2.181   9.194  18.330  0.00  0.00    +0.000 C 
BRANCH  11  12
ATOM     12  O   UNL     1       1.461   9.886  17.315  0.00  0.00    +0.000 OA
ATOM     13  H   UNL     1       0.595   9.456  17.217  0.00  0.00    +0.000 HD
ENDBRANCH  11  12
BRANCH  11  14
ATOM     14  C   UNL     1       1.189   8.519  19.283  0.00  0.00    +0.000 C 
BRANCH  14  15
ATOM     15  C   UNL     1       1.058   9.269  20.610  0.00  0.00    +0.000 C 
BRANCH  15  16
ATOM     16  C   UNL     1       0.376  10.599  20.436  0.00  0.00    +0.000 A 
ATOM     17  C   UNL     1      -0.904  10.675  19.872  0.00  0.00    +0.000 A 
ATOM     18  C   UNL     1      -1.533  11.910  19.711  0.00  0.00    +0.000 A 
ATOM     19  C   UNL     1      -0.884  13.079  20.107  0.00  0.00    +0.000 A 
ATOM     20  C   UNL     1       0.395  13.015  20.656  0.00  0.00    +0.000 A 
ATOM     21  C   UNL     1       1.026  11.782  20.818  0.00  0.00    +0.000 A 
ENDBRANCH  15  16
ENDBRANCH  14  15
ENDBRANCH  11  14
ENDBRANCH  10  11
ENDBRANCH   2   9
BRANCH   1  22
ATOM     22  C   UNL     1       4.502   3.556  18.397  0.00  0.00    +0.000 C 
BRANCH  22  24
ATOM     23  C   UNL     1       2.265   2.733  17.496  0.00  0.00    +0.000 C 
ATOM     24  C   UNL     1       3.499   3.237  17.316  0.00  0.00    +0.000 C 
BRANCH  23  25
ATOM     25  C   UNL     1       1.670   2.329  18.810  0.00  0.00    +0.000 C 
BRANCH  25  26
ATOM     26  C   UNL     1       0.899   3.477  19.468  0.00  0.00    +0.000 C 
BRANCH  26  27
ATOM     27  C   UNL     1       1.614   4.013  20.706  0.00  0.00    +0.000 C 
BRANCH  27  29
ATOM     28  O   UNL     1       3.089   2.491  21.893  0.00  0.00    +0.000 OA
ATOM     29  C   UNL     1       1.961   2.919  21.689  0.00  0.00    +0.000 C 
BRANCH  29  30
ATOM     30  O   UNL     1       0.882   2.454  22.362  0.00  0.00    +0.000 OA
ATOM     31  H   UNL     1       0.924   1.505  22.583  0.00  0.00    +0.000 HD
ENDBRANCH  29  30
ENDBRANCH  27  29
ENDBRANCH  26  27
ENDBRANCH  25  26
ENDBRANCH  23  25
ENDBRANCH  22  24
ENDBRANCH   1  22
TORSDOF 13
ENDMDL
MODEL 7
REMARK VINA RESULT:      -7.4      2.666      3.218
REMARK  Name = 
REMARK  13 active torsions:
REMARK  status: ('A' for Active; 'I' for Inactive)
REMARK    1  A    between atoms: C_2  and  O_3
REMARK    2  A    between atoms: C_2  and  C_4
REMARK    3  A    between atoms: C_4  and  C_5
REMARK    4  A    between atoms: C_5  and  C_6
REMARK    5  A    between atoms: C_6  and  C_7
REMARK    6  A    between atoms: C_8  and  C_9
REMARK    7  A    between atoms: C_9  and  C_10
REMARK    8  A    between atoms: C_11  and  C_12
REMARK    9  A    between atoms: C_13  and  C_14
REMARK   10  A    between atoms: C_14  and  O_15
REMARK   11  A    between atoms: C_14  and  C_16
REMARK   12  A    between atoms: C_16  and  C_17
REMARK   13  A    between atoms: C_17  and  C_18
REMARK                            x       y       z     vdW  Elec       q    Type
REMARK                         _______ _______ _______ _____ _____    ______ ____
ROOT
ATOM      1  C   UNL     1       3.468   4.700  17.856  0.00  0.00    +0.000 C 
ATOM      2  C   UNL     1       2.954   5.133  19.268  0.00  0.00    +0.000 C 
ATOM      3  C   UNL     1       1.603   4.387  19.338  0.00  0.00    +0.000 C 
ATOM      4  O   UNL     1       1.200   4.458  17.941  0.00  0.00    +0.000 OA
ATOM      5  C   UNL     1       2.344   3.738  17.399  0.00  0.00    +0.000 C 
ATOM      6  C   UNL     1       2.349   2.464  18.211  0.00  0.00    +0.000 C 
ATOM      7  O   UNL     1       1.107   1.998  18.758  0.00  0.00    +0.000 OA
ATOM      8  C   UNL     1       1.874   2.915  19.543  0.00  0.00    +0.000 C 
ENDROOT
BRANCH   2   9
ATOM      9  C   UNL     1       2.757   6.627  19.355  0.00  0.00    +0.000 C 
ATOM     10  C   UNL     1       2.406   7.404  18.317  0.00  0.00    +0.000 C 
BRANCH  10  11
ATOM     11  C   UNL     1       2.180   8.884  18.436  0.00  0.00    +0.000 C 
BRANCH  11  12
ATOM     12  O   UNL     1       2.219   9.436  17.124  0.00  0.00    +0.000 OA
ATOM     13  H   UNL     1       2.307   8.702  16.493  0.00  0.00    +0.000 HD
ENDBRANCH  11  12
BRANCH  11  14
ATOM     14  C   UNL     1       0.834   9.218  19.086  0.00  0.00    +0.000 C 
BRANCH  14  15
ATOM     15  C   UNL     1       0.348  10.622  18.723  0.00  0.00    +0.000 C 
BRANCH  15  16
ATOM     16  C   UNL     1      -1.090  10.620  18.278  0.00  0.00    +0.000 A 
ATOM     17  C   UNL     1      -1.512   9.781  17.238  0.00  0.00    +0.000 A 
ATOM     18  C   UNL     1      -2.844   9.782  16.826  0.00  0.00    +0.000 A 
ATOM     19  C   UNL     1      -3.765  10.626  17.446  0.00  0.00    +0.000 A 
ATOM     20  C   UNL     1      -3.352  11.474  18.472  0.00  0.00    +0.000 A 
ATOM     21  C   UNL     1      -2.020  11.475  18.885  0.00  0.00    +0.000 A 
ENDBRANCH  15  16
ENDBRANCH  14  15
ENDBRANCH  11  14
ENDBRANCH  10  11
ENDBRANCH   2   9
BRANCH   1  22
ATOM     22  C   UNL     1       4.873   4.086  17.863  0.00  0.00    +0.000 C 
BRANCH  22  24
ATOM     23  C   UNL     1       6.142   5.564  16.221  0.00  0.00    +0.000 C 
ATOM     24  C   UNL     1       5.930   5.085  17.459  0.00  0.00    +0.000 C 
BRANCH  23  25
ATOM     25  C   UNL     1       5.406   5.148  14.985  0.00  0.00    +0.000 C 
BRANCH  25  26
ATOM     26  C   UNL     1       5.904   3.804  14.445  0.00  0.00    +0.000 C 
BRANCH  26  27
ATOM     27  C   UNL     1       6.369   3.905  12.994  0.00  0.00    +0.000 C 
BRANCH  27  29
ATOM     28  O   UNL     1       4.457   3.360  11.597  0.00  0.00    +0.000 OA
ATOM     29  C   UNL     1       5.543   3.045  12.065  0.00  0.00    +0.000 C 
BRANCH  29  30
ATOM     30  O   UNL     1       6.141   1.867  11.767  0.00  0.00    +0.000 OA
ATOM     31  H   UNL     1       6.640   1.871  10.929  0.00  0.00    +0.000 HD
ENDBRANCH  29  30
ENDBRANCH  27  29
ENDBRANCH  26  27
ENDBRANCH  25  26
ENDBRANCH  23  25
ENDBRANCH  22  24
ENDBRANCH   1  22
TORSDOF 13
ENDMDL
MODEL 8
REMARK VINA RESULT:      -7.3      2.957      7.914
REMARK  Name = 
REMARK  13 active torsions:
REMARK  status: ('A' for Active; 'I' for Inactive)
REMARK    1  A    between atoms: C_2  and  O_3
REMARK    2  A    between atoms: C_2  and  C_4
REMARK    3  A    between atoms: C_4  and  C_5
REMARK    4  A    between atoms: C_5  and  C_6
REMARK    5  A    between atoms: C_6  and  C_7
REMARK    6  A    between atoms: C_8  and  C_9
REMARK    7  A    between atoms: C_9  and  C_10
REMARK    8  A    between atoms: C_11  and  C_12
REMARK    9  A    between atoms: C_13  and  C_14
REMARK   10  A    between atoms: C_14  and  O_15
REMARK   11  A    between atoms: C_14  and  C_16
REMARK   12  A    between atoms: C_16  and  C_17
REMARK   13  A    between atoms: C_17  and  C_18
REMARK                            x       y       z     vdW  Elec       q    Type
REMARK                         _______ _______ _______ _____ _____    ______ ____
ROOT
ATOM      1  C   UNL     1       3.483   5.989  19.025  0.00  0.00    +0.000 C 
ATOM      2  C   UNL     1       3.780   5.661  17.525  0.00  0.00    +0.000 C 
ATOM      3  C   UNL     1       3.519   4.139  17.493  0.00  0.00    +0.000 C 
ATOM      4  O   UNL     1       3.985   3.772  18.822  0.00  0.00    +0.000 OA
ATOM      5  C   UNL     1       3.049   4.604  19.565  0.00  0.00    +0.000 C 
ATOM      6  C   UNL     1       1.712   4.189  18.996  0.00  0.00    +0.000 C 
ATOM      7  O   UNL     1       1.583   2.867  18.453  0.00  0.00    +0.000 OA
ATOM      8  C   UNL     1       2.029   3.903  17.574  0.00  0.00    +0.000 C 
ENDROOT
BRANCH   2   9
ATOM      9  C   UNL     1       5.210   5.977  17.159  0.00  0.00    +0.000 C 
ATOM     10  C   UNL     1       6.021   6.759  17.889  0.00  0.00    +0.000 C 
BRANCH  10  11
ATOM     11  C   UNL     1       7.453   7.030  17.523  0.00  0.00    +0.000 C 
BRANCH  11  12
ATOM     12  O   UNL     1       7.681   6.487  16.226  0.00  0.00    +0.000 OA
ATOM     13  H   UNL     1       8.571   6.752  15.944  0.00  0.00    +0.000 HD
ENDBRANCH  11  12
BRANCH  11  14
ATOM     14  C   UNL     1       7.776   8.527  17.507  0.00  0.00    +0.000 C 
BRANCH  14  15
ATOM     15  C   UNL     1       8.654   8.943  18.689  0.00  0.00    +0.000 C 
BRANCH  15  16
ATOM     16  C   UNL     1       9.126  10.366  18.564  0.00  0.00    +0.000 A 
ATOM     17  C   UNL     1      10.274  10.799  19.240  0.00  0.00    +0.000 A 
ATOM     18  C   UNL     1      10.708  12.119  19.122  0.00  0.00    +0.000 A 
ATOM     19  C   UNL     1       9.994  13.020  18.334  0.00  0.00    +0.000 A 
ATOM     20  C   UNL     1       8.842  12.604  17.668  0.00  0.00    +0.000 A 
ATOM     21  C   UNL     1       8.406  11.284  17.784  0.00  0.00    +0.000 A 
ENDBRANCH  15  16
ENDBRANCH  14  15
ENDBRANCH  11  14
ENDBRANCH  10  11
ENDBRANCH   2   9
BRANCH   1  22
ATOM     22  C   UNL     1       2.454   7.107  19.229  0.00  0.00    +0.000 C 
BRANCH  22  24
ATOM     23  C   UNL     1       1.734   9.229  18.017  0.00  0.00    +0.000 C 
ATOM     24  C   UNL     1       2.484   8.117  18.108  0.00  0.00    +0.000 C 
BRANCH  23  25
ATOM     25  C   UNL     1       0.672   9.649  18.986  0.00  0.00    +0.000 C 
BRANCH  25  26
ATOM     26  C   UNL     1       0.264  11.112  18.794  0.00  0.00    +0.000 C 
BRANCH  26  27
ATOM     27  C   UNL     1      -1.127  11.399  19.353  0.00  0.00    +0.000 C 
BRANCH  27  29
ATOM     28  O   UNL     1      -3.323  11.672  18.349  0.00  0.00    +0.000 OA
ATOM     29  C   UNL     1      -2.108  11.803  18.277  0.00  0.00    +0.000 C 
BRANCH  29  30
ATOM     30  O   UNL     1      -1.508  12.363  17.200  0.00  0.00    +0.000 OA
ATOM     31  H   UNL     1      -0.567  12.130  17.099  0.00  0.00    +0.000 HD
ENDBRANCH  29  30
ENDBRANCH  27  29
ENDBRANCH  26  27
ENDBRANCH  25  26
ENDBRANCH  23  25
ENDBRANCH  22  24
ENDBRANCH   1  22
TORSDOF 13
ENDMDL
MODEL 9
REMARK VINA RESULT:      -7.3      2.954      7.358
REMARK  Name = 
REMARK  13 active torsions:
REMARK  status: ('A' for Active; 'I' for Inactive)
REMARK    1  A    between atoms: C_2  and  O_3
REMARK    2  A    between atoms: C_2  and  C_4
REMARK    3  A    between atoms: C_4  and  C_5
REMARK    4  A    between atoms: C_5  and  C_6
REMARK    5  A    between atoms: C_6  and  C_7
REMARK    6  A    between atoms: C_8  and  C_9
REMARK    7  A    between atoms: C_9  and  C_10
REMARK    8  A    between atoms: C_11  and  C_12
REMARK    9  A    between atoms: C_13  and  C_14
REMARK   10  A    between atoms: C_14  and  O_15
REMARK   11  A    between atoms: C_14  and  C_16
REMARK   12  A    between atoms: C_16  and  C_17
REMARK   13  A    between atoms: C_17  and  C_18
REMARK                            x       y       z     vdW  Elec       q    Type
REMARK                         _______ _______ _______ _____ _____    ______ ____
ROOT
ATOM      1  C   UNL     1       3.290   5.635  18.829  0.00  0.00    +0.000 C 
ATOM      2  C   UNL     1       3.873   5.104  17.479  0.00  0.00    +0.000 C 
ATOM      3  C   UNL     1       3.641   3.584  17.629  0.00  0.00    +0.000 C 
ATOM      4  O   UNL     1       3.848   3.435  19.061  0.00  0.00    +0.000 OA
ATOM      5  C   UNL     1       2.777   4.328  19.481  0.00  0.00    +0.000 C 
ATOM      6  C   UNL     1       1.579   3.780  18.741  0.00  0.00    +0.000 C 
ATOM      7  O   UNL     1       1.572   2.389  18.390  0.00  0.00    +0.000 OA
ATOM      8  C   UNL     1       2.165   3.303  17.464  0.00  0.00    +0.000 C 
ENDROOT
BRANCH   2   9
ATOM      9  C   UNL     1       5.343   5.420  17.344  0.00  0.00    +0.000 C 
ATOM     10  C   UNL     1       5.872   6.642  17.521  0.00  0.00    +0.000 C 
BRANCH  10  11
ATOM     11  C   UNL     1       7.343   6.925  17.417  0.00  0.00    +0.000 C 
BRANCH  11  12
ATOM     12  O   UNL     1       7.781   6.487  16.134  0.00  0.00    +0.000 OA
ATOM     13  H   UNL     1       6.995   6.260  15.612  0.00  0.00    +0.000 HD
ENDBRANCH  11  12
BRANCH  11  14
ATOM     14  C   UNL     1       7.663   8.415  17.578  0.00  0.00    +0.000 C 
BRANCH  14  15
ATOM     15  C   UNL     1       8.771   8.662  18.603  0.00  0.00    +0.000 C 
BRANCH  15  16
ATOM     16  C   UNL     1       8.992  10.131  18.844  0.00  0.00    +0.000 A 
ATOM     17  C   UNL     1       9.405  10.592  20.101  0.00  0.00    +0.000 A 
ATOM     18  C   UNL     1       9.608  11.954  20.322  0.00  0.00    +0.000 A 
ATOM     19  C   UNL     1       9.394  12.867  19.291  0.00  0.00    +0.000 A 
ATOM     20  C   UNL     1       8.969  12.421  18.041  0.00  0.00    +0.000 A 
ATOM     21  C   UNL     1       8.765  11.059  17.817  0.00  0.00    +0.000 A 
ENDBRANCH  15  16
ENDBRANCH  14  15
ENDBRANCH  11  14
ENDBRANCH  10  11
ENDBRANCH   2   9
BRANCH   1  22
ATOM     22  C   UNL     1       2.229   6.729  18.665  0.00  0.00    +0.000 C 
BRANCH  22  24
ATOM     23  C   UNL     1       2.193   9.153  17.882  0.00  0.00    +0.000 C 
ATOM     24  C   UNL     1       2.767   7.939  17.942  0.00  0.00    +0.000 C 
BRANCH  23  25
ATOM     25  C   UNL     1       0.868   9.523  18.473  0.00  0.00    +0.000 C 
BRANCH  25  26
ATOM     26  C   UNL     1       1.003  10.587  19.566  0.00  0.00    +0.000 C 
BRANCH  26  27
ATOM     27  C   UNL     1       0.010  10.369  20.705  0.00  0.00    +0.000 C 
BRANCH  27  29
ATOM     28  O   UNL     1       1.545   8.896  21.879  0.00  0.00    +0.000 OA
ATOM     29  C   UNL     1       0.655   9.735  21.917  0.00  0.00    +0.000 C 
BRANCH  29  30
ATOM     30  O   UNL     1       0.160  10.208  23.085  0.00  0.00    +0.000 OA
ATOM     31  H   UNL     1      -0.184  11.119  23.036  0.00  0.00    +0.000 HD
ENDBRANCH  29  30
ENDBRANCH  27  29
ENDBRANCH  26  27
ENDBRANCH  25  26
ENDBRANCH  23  25
ENDBRANCH  22  24
ENDBRANCH   1  22
TORSDOF 13
ENDMDL
