MODEL 1
REMARK VINA RESULT:      -8.1      0.000      0.000
REMARK  Name = 
REMARK  4 active torsions:
REMARK  status: ('A' for Active; 'I' for Inactive)
REMARK    1  A    between atoms: C_2  and  C_3
REMARK    2  A    between atoms: N_7  and  C_8
REMARK    3  A    between atoms: C_8  and  C_9
REMARK    4  A    between atoms: C_12  and  C_13
REMARK                            x       y       z     vdW  Elec       q    Type
REMARK                         _______ _______ _______ _____ _____    ______ ____
ROOT
ATOM      1  C   UNL     1       2.330   7.140  19.299  0.00  0.00    +0.000 A 
ATOM      2  C   UNL     1       1.975   7.131  20.594  0.00  0.00    +0.000 A 
ATOM      3  C   UNL     1       1.158   8.151  21.185  0.00  0.00    +0.000 A 
ATOM      4  C   UNL     1       0.819   9.225  20.466  0.00  0.00    +0.000 A 
ATOM      5  N   UNL     1       1.250   9.377  19.165  0.00  0.00    +0.000 N 
ATOM      6  C   UNL     1       2.030   8.399  18.511  0.00  0.00    +0.000 A 
ATOM      7  O   UNL     1       2.428   8.551  17.359  0.00  0.00    +0.000 OA
ENDROOT
BRANCH   1   9
ATOM      8  O   UNL     1       4.187   6.340  18.087  0.00  0.00    +0.000 OA
ATOM      9  C   UNL     1       3.166   6.043  18.708  0.00  0.00    +0.000 C 
ATOM     10  N   UNL     1       2.811   4.704  18.873  0.00  0.00    +0.000 N 
ATOM     11  C   UNL     1       3.803   3.678  18.524  0.00  0.00    +0.000 C 
ATOM     12  C   UNL     1       3.175   2.561  17.691  0.00  0.00    +0.000 C 
ATOM     13  O   UNL     1       2.060   1.982  18.387  0.00  0.00    +0.000 OA
ATOM     14  C   UNL     1       1.047   2.970  18.607  0.00  0.00    +0.000 C 
ATOM     15  C   UNL     1       1.572   4.149  19.437  0.00  0.00    +0.000 C 
ENDBRANCH   1   9
BRANCH   5  16
ATOM     16  C   UNL     1       0.809  10.545  18.395  0.00  0.00    +0.000 C 
BRANCH  16  17
ATOM     17  C   UNL     1      -0.701  10.632  18.381  0.00  0.00    +0.000 A 
ATOM     18  C   UNL     1      -1.455   9.851  17.496  0.00  0.00    +0.000 A 
ATOM     19  C   UNL     1      -2.823  10.084  17.337  0.00  0.00    +0.000 A 
ATOM     20  C   UNL     1      -3.461  11.102  18.062  0.00  0.00    +0.000 A 
ATOM     21  C   UNL     1      -2.719  11.827  19.007  0.00  0.00    +0.000 A 
ATOM     22  C   UNL     1      -1.352  11.599  19.161  0.00  0.00    +0.000 A 
BRANCH  20  23
ATOM     23  C   UNL     1      -4.902  11.460  17.803  0.00  0.00    +0.000 C 
ATOM     24  F   UNL     1      -5.290  12.618  18.410  0.00  0.00    +0.000 F 
ATOM     25  F   UNL     1      -5.182  11.616  16.482  0.00  0.00    +0.000 F 
ATOM     26  F   UNL     1      -5.759  10.502  18.260  0.00  0.00    +0.000 F 
ENDBRANCH  20  23
ENDBRANCH  16  17
ENDBRANCH   5  16
TORSDOF 4
ENDMDL
MODEL 2
REMARK VINA RESULT:      -8.1      1.706      2.604
REMARK  Name = 
REMARK  4 active torsions:
REMARK  status: ('A' for Active; 'I' for Inactive)
REMARK    1  A    between atoms: C_2  and  C_3
REMARK    2  A    between atoms: N_7  and  C_8
REMARK    3  A    between atoms: C_8  and  C_9
REMARK    4  A    between atoms: C_12  and  C_13
REMARK                            x       y       z     vdW  Elec       q    Type
REMARK                         _______ _______ _______ _____ _____    ______ ____
ROOT
ATOM      1  C   UNL     1       2.578   6.622  18.630  0.00  0.00    +0.000 A 
ATOM      2  C   UNL     1       2.326   6.389  19.928  0.00  0.00    +0.000 A 
ATOM      3  C   UNL     1       1.670   7.340  20.777  0.00  0.00    +0.000 A 
ATOM      4  C   UNL     1       1.390   8.560  20.309  0.00  0.00    +0.000 A 
ATOM      5  N   UNL     1       1.731   8.928  19.025  0.00  0.00    +0.000 N 
ATOM      6  C   UNL     1       2.351   8.033  18.126  0.00  0.00    +0.000 A 
ATOM      7  O   UNL     1       2.672   8.374  16.990  0.00  0.00    +0.000 OA
ENDROOT
BRANCH   1   9
ATOM      8  O   UNL     1       2.617   4.586  17.441  0.00  0.00    +0.000 OA
ATOM      9  C   UNL     1       3.246   5.594  17.763  0.00  0.00    +0.000 C 
ATOM     10  N   UNL     1       4.551   5.782  17.307  0.00  0.00    +0.000 N 
ATOM     11  C   UNL     1       5.046   4.896  16.245  0.00  0.00    +0.000 C 
ATOM     12  C   UNL     1       6.445   4.373  16.568  0.00  0.00    +0.000 C 
ATOM     13  O   UNL     1       7.351   5.465  16.789  0.00  0.00    +0.000 OA
ATOM     14  C   UNL     1       6.920   6.246  17.909  0.00  0.00    +0.000 C 
ATOM     15  C   UNL     1       5.514   6.823  17.694  0.00  0.00    +0.000 C 
ENDBRANCH   1   9
BRANCH   5  16
ATOM     16  C   UNL     1       1.357  10.258  18.536  0.00  0.00    +0.000 C 
BRANCH  16  17
ATOM     17  C   UNL     1      -0.149  10.408  18.507  0.00  0.00    +0.000 A 
ATOM     18  C   UNL     1      -0.920   9.709  17.569  0.00  0.00    +0.000 A 
ATOM     19  C   UNL     1      -2.274  10.007  17.405  0.00  0.00    +0.000 A 
ATOM     20  C   UNL     1      -2.882  11.008  18.177  0.00  0.00    +0.000 A 
ATOM     21  C   UNL     1      -2.127  11.649  19.171  0.00  0.00    +0.000 A 
ATOM     22  C   UNL     1      -0.773  11.357  19.331  0.00  0.00    +0.000 A 
BRANCH  20  23
ATOM     23  C   UNL     1      -4.303  11.439  17.920  0.00  0.00    +0.000 C 
ATOM     24  F   UNL     1      -5.209  10.429  18.053  0.00  0.00    +0.000 F 
ATOM     25  F   UNL     1      -4.718  12.428  18.756  0.00  0.00    +0.000 F 
ATOM     26  F   UNL     1      -4.473  11.919  16.655  0.00  0.00    +0.000 F 
ENDBRANCH  20  23
ENDBRANCH  16  17
ENDBRANCH   5  16
TORSDOF 4
ENDMDL
MODEL 3
REMARK VINA RESULT:      -8.1      5.849      9.174
REMARK  Name = 
REMARK  4 active torsions:
REMARK  status: ('A' for Active; 'I' for Inactive)
REMARK    1  A    between atoms: C_2  and  C_3
REMARK    2  A    between atoms: N_7  and  C_8
REMARK    3  A    between atoms: C_8  and  C_9
REMARK    4  A    between atoms: C_12  and  C_13
REMARK                            x       y       z     vdW  Elec       q    Type
REMARK                         _______ _______ _______ _____ _____    ______ ____
ROOT
ATOM      1  C   UNL     1       2.812   6.636  18.882  0.00  0.00    +0.000 A 
ATOM      2  C   UNL     1       2.152   5.598  19.419  0.00  0.00    +0.000 A 
ATOM      3  C   UNL     1       2.740   4.301  19.583  0.00  0.00    +0.000 A 
ATOM      4  C   UNL     1       3.955   4.059  19.083  0.00  0.00    +0.000 A 
ATOM      5  N   UNL     1       4.653   5.034  18.400  0.00  0.00    +0.000 N 
ATOM      6  C   UNL     1       4.147   6.340  18.229  0.00  0.00    +0.000 A 
ATOM      7  O   UNL     1       4.765   7.197  17.602  0.00  0.00    +0.000 OA
ENDROOT
BRANCH   1   9
ATOM      8  O   UNL     1       2.260   8.585  17.675  0.00  0.00    +0.000 OA
ATOM      9  C   UNL     1       2.174   7.988  18.748  0.00  0.00    +0.000 C 
ATOM     10  N   UNL     1       1.472   8.556  19.812  0.00  0.00    +0.000 N 
ATOM     11  C   UNL     1       0.638   9.735  19.538  0.00  0.00    +0.000 C 
ATOM     12  C   UNL     1       0.857  10.824  20.586  0.00  0.00    +0.000 C 
ATOM     13  O   UNL     1       0.605  10.312  21.905  0.00  0.00    +0.000 OA
ATOM     14  C   UNL     1       1.514   9.245  22.202  0.00  0.00    +0.000 C 
ATOM     15  C   UNL     1       1.382   8.089  21.203  0.00  0.00    +0.000 C 
ENDBRANCH   1   9
BRANCH   5  16
ATOM     16  C   UNL     1       6.006   4.741  17.916  0.00  0.00    +0.000 C 
BRANCH  16  17
ATOM     17  C   UNL     1       6.018   4.640  16.406  0.00  0.00    +0.000 A 
ATOM     18  C   UNL     1       4.978   3.996  15.723  0.00  0.00    +0.000 A 
ATOM     19  C   UNL     1       5.094   3.719  14.360  0.00  0.00    +0.000 A 
ATOM     20  C   UNL     1       6.251   4.082  13.654  0.00  0.00    +0.000 A 
ATOM     21  C   UNL     1       7.254   4.799  14.323  0.00  0.00    +0.000 A 
ATOM     22  C   UNL     1       7.142   5.071  15.686  0.00  0.00    +0.000 A 
BRANCH  20  23
ATOM     23  C   UNL     1       6.453   3.670  12.218  0.00  0.00    +0.000 C 
ATOM     24  F   UNL     1       6.992   2.425  12.083  0.00  0.00    +0.000 F 
ATOM     25  F   UNL     1       5.298   3.659  11.502  0.00  0.00    +0.000 F 
ATOM     26  F   UNL     1       7.299   4.511  11.557  0.00  0.00    +0.000 F 
ENDBRANCH  20  23
ENDBRANCH  16  17
ENDBRANCH   5  16
TORSDOF 4
ENDMDL
MODEL 4
REMARK VINA RESULT:      -8.0      5.072      8.727
REMARK  Name = 
REMARK  4 active torsions:
REMARK  status: ('A' for Active; 'I' for Inactive)
REMARK    1  A    between atoms: C_2  and  C_3
REMARK    2  A    between atoms: N_7  and  C_8
REMARK    3  A    between atoms: C_8  and  C_9
REMARK    4  A    between atoms: C_12  and  C_13
REMARK                            x       y       z     vdW  Elec       q    Type
REMARK                         _______ _______ _______ _____ _____    ______ ____
ROOT
ATOM      1  C   UNL     1       0.568   9.863  19.668  0.00  0.00    +0.000 A 
ATOM      2  C   UNL     1       0.430   9.116  20.775  0.00  0.00    +0.000 A 
ATOM      3  C   UNL     1       1.230   7.955  21.036  0.00  0.00    +0.000 A 
ATOM      4  C   UNL     1       2.076   7.512  20.102  0.00  0.00    +0.000 A 
ATOM      5  N   UNL     1       2.187   8.145  18.882  0.00  0.00    +0.000 N 
ATOM      6  C   UNL     1       1.453   9.309  18.569  0.00  0.00    +0.000 A 
ATOM      7  O   UNL     1       1.541   9.856  17.472  0.00  0.00    +0.000 OA
ENDROOT
BRANCH   1   9
ATOM      8  O   UNL     1      -1.443  10.949  19.089  0.00  0.00    +0.000 OA
ATOM      9  C   UNL     1      -0.270  11.086  19.437  0.00  0.00    +0.000 C 
ATOM     10  N   UNL     1       0.258  12.363  19.635  0.00  0.00    +0.000 N 
ATOM     11  C   UNL     1      -0.675  13.498  19.671  0.00  0.00    +0.000 C 
ATOM     12  C   UNL     1      -0.168  14.659  18.816  0.00  0.00    +0.000 C 
ATOM     13  O   UNL     1       1.146  15.059  19.240  0.00  0.00    +0.000 OA
ATOM     14  C   UNL     1       2.069  13.976  19.077  0.00  0.00    +0.000 C 
ATOM     15  C   UNL     1       1.653  12.745  19.895  0.00  0.00    +0.000 C 
ENDBRANCH   1   9
BRANCH   5  16
ATOM     16  C   UNL     1       3.167   7.657  17.906  0.00  0.00    +0.000 C 
BRANCH  16  17
ATOM     17  C   UNL     1       3.264   6.148  17.961  0.00  0.00    +0.000 A 
ATOM     18  C   UNL     1       2.131   5.351  17.753  0.00  0.00    +0.000 A 
ATOM     19  C   UNL     1       2.176   3.979  18.011  0.00  0.00    +0.000 A 
ATOM     20  C   UNL     1       3.354   3.380  18.479  0.00  0.00    +0.000 A 
ATOM     21  C   UNL     1       4.509   4.167  18.608  0.00  0.00    +0.000 A 
ATOM     22  C   UNL     1       4.463   5.538  18.357  0.00  0.00    +0.000 A 
BRANCH  20  23
ATOM     23  C   UNL     1       3.384   1.931  18.894  0.00  0.00    +0.000 C 
ATOM     24  F   UNL     1       2.190   1.481  19.374  0.00  0.00    +0.000 F 
ATOM     25  F   UNL     1       3.720   1.095  17.877  0.00  0.00    +0.000 F 
ATOM     26  F   UNL     1       4.289   1.701  19.888  0.00  0.00    +0.000 F 
ENDBRANCH  20  23
ENDBRANCH  16  17
ENDBRANCH   5  16
TORSDOF 4
ENDMDL
MODEL 5
REMARK VINA RESULT:      -7.9      5.829      9.240
REMARK  Name = 
REMARK  4 active torsions:
REMARK  status: ('A' for Active; 'I' for Inactive)
REMARK    1  A    between atoms: C_2  and  C_3
REMARK    2  A    between atoms: N_7  and  C_8
REMARK    3  A    between atoms: C_8  and  C_9
REMARK    4  A    between atoms: C_12  and  C_13
REMARK                            x       y       z     vdW  Elec       q    Type
REMARK                         _______ _______ _______ _____ _____    ______ ____
ROOT
ATOM      1  C   UNL     1       2.693   6.818  18.369  0.00  0.00    +0.000 A 
ATOM      2  C   UNL     1       1.910   5.736  18.509  0.00  0.00    +0.000 A 
ATOM      3  C   UNL     1       2.429   4.400  18.546  0.00  0.00    +0.000 A 
ATOM      4  C   UNL     1       3.728   4.189  18.320  0.00  0.00    +0.000 A 
ATOM      5  N   UNL     1       4.582   5.234  18.039  0.00  0.00    +0.000 N 
ATOM      6  C   UNL     1       4.147   6.576  18.016  0.00  0.00    +0.000 A 
ATOM      7  O   UNL     1       4.909   7.501  17.743  0.00  0.00    +0.000 OA
ENDROOT
BRANCH   1   9
ATOM      8  O   UNL     1       2.215   8.882  17.333  0.00  0.00    +0.000 OA
ATOM      9  C   UNL     1       2.119   8.205  18.357  0.00  0.00    +0.000 C 
ATOM     10  N   UNL     1       1.465   8.718  19.478  0.00  0.00    +0.000 N 
ATOM     11  C   UNL     1       0.685   9.953  19.318  0.00  0.00    +0.000 C 
ATOM     12  C   UNL     1       0.977  10.943  20.445  0.00  0.00    +0.000 C 
ATOM     13  O   UNL     1       0.724  10.337  21.723  0.00  0.00    +0.000 OA
ATOM     14  C   UNL     1       1.585   9.208  21.914  0.00  0.00    +0.000 C 
ATOM     15  C   UNL     1       1.378   8.144  20.829  0.00  0.00    +0.000 C 
ENDBRANCH   1   9
BRANCH   5  16
ATOM     16  C   UNL     1       6.011   4.963  17.850  0.00  0.00    +0.000 C 
BRANCH  16  17
ATOM     17  C   UNL     1       6.286   4.527  16.427  0.00  0.00    +0.000 A 
ATOM     18  C   UNL     1       7.173   5.248  15.617  0.00  0.00    +0.000 A 
ATOM     19  C   UNL     1       7.263   4.973  14.251  0.00  0.00    +0.000 A 
ATOM     20  C   UNL     1       6.469   3.972  13.671  0.00  0.00    +0.000 A 
ATOM     21  C   UNL     1       5.643   3.199  14.500  0.00  0.00    +0.000 A 
ATOM     22  C   UNL     1       5.547   3.476  15.864  0.00  0.00    +0.000 A 
BRANCH  20  23
ATOM     23  C   UNL     1       6.450   3.754  12.180  0.00  0.00    +0.000 C 
ATOM     24  F   UNL     1       7.193   4.666  11.490  0.00  0.00    +0.000 F 
ATOM     25  F   UNL     1       6.923   2.533  11.816  0.00  0.00    +0.000 F 
ATOM     26  F   UNL     1       5.191   3.841  11.664  0.00  0.00    +0.000 F 
ENDBRANCH  20  23
ENDBRANCH  16  17
ENDBRANCH   5  16
TORSDOF 4
ENDMDL
MODEL 6
REMARK VINA RESULT:      -7.8      4.871      8.330
REMARK  Name = 
REMARK  4 active torsions:
REMARK  status: ('A' for Active; 'I' for Inactive)
REMARK    1  A    between atoms: C_2  and  C_3
REMARK    2  A    between atoms: N_7  and  C_8
REMARK    3  A    between atoms: C_8  and  C_9
REMARK    4  A    between atoms: C_12  and  C_13
REMARK                            x       y       z     vdW  Elec       q    Type
REMARK                         _______ _______ _______ _____ _____    ______ ____
ROOT
ATOM      1  C   UNL     1       0.360   9.760  19.825  0.00  0.00    +0.000 A 
ATOM      2  C   UNL     1       0.276   9.005  20.932  0.00  0.00    +0.000 A 
ATOM      3  C   UNL     1       1.154   7.902  21.192  0.00  0.00    +0.000 A 
ATOM      4  C   UNL     1       2.026   7.517  20.256  0.00  0.00    +0.000 A 
ATOM      5  N   UNL     1       2.091   8.156  19.035  0.00  0.00    +0.000 N 
ATOM      6  C   UNL     1       1.279   9.267  18.724  0.00  0.00    +0.000 A 
ATOM      7  O   UNL     1       1.327   9.818  17.627  0.00  0.00    +0.000 OA
ENDROOT
BRANCH   1   9
ATOM      8  O   UNL     1      -0.408  11.945  20.265  0.00  0.00    +0.000 OA
ATOM      9  C   UNL     1      -0.560  10.923  19.595  0.00  0.00    +0.000 C 
ATOM     10  N   UNL     1      -1.559  10.864  18.624  0.00  0.00    +0.000 N 
ATOM     11  C   UNL     1      -2.235  12.114  18.251  0.00  0.00    +0.000 C 
ATOM     12  C   UNL     1      -3.751  11.929  18.195  0.00  0.00    +0.000 C 
ATOM     13  O   UNL     1      -4.094  10.869  17.288  0.00  0.00    +0.000 OA
ATOM     14  C   UNL     1      -3.531   9.632  17.738  0.00  0.00    +0.000 C 
ATOM     15  C   UNL     1      -2.001   9.704  17.835  0.00  0.00    +0.000 C 
ENDBRANCH   1   9
BRANCH   5  16
ATOM     16  C   UNL     1       3.100   7.735  18.058  0.00  0.00    +0.000 C 
BRANCH  16  17
ATOM     17  C   UNL     1       3.223   6.227  18.037  0.00  0.00    +0.000 A 
ATOM     18  C   UNL     1       2.095   5.421  17.840  0.00  0.00    +0.000 A 
ATOM     19  C   UNL     1       2.172   4.039  18.031  0.00  0.00    +0.000 A 
ATOM     20  C   UNL     1       3.379   3.440  18.421  0.00  0.00    +0.000 A 
ATOM     21  C   UNL     1       4.525   4.241  18.538  0.00  0.00    +0.000 A 
ATOM     22  C   UNL     1       4.448   5.621  18.354  0.00  0.00    +0.000 A 
BRANCH  20  23
ATOM     23  C   UNL     1       3.449   1.975  18.766  0.00  0.00    +0.000 C 
ATOM     24  F   UNL     1       3.808   1.187  17.712  0.00  0.00    +0.000 F 
ATOM     25  F   UNL     1       4.340   1.705  19.757  0.00  0.00    +0.000 F 
ATOM     26  F   UNL     1       2.249   1.490  19.195  0.00  0.00    +0.000 F 
ENDBRANCH  20  23
ENDBRANCH  16  17
ENDBRANCH   5  16
TORSDOF 4
ENDMDL
MODEL 7
REMARK VINA RESULT:      -7.6      5.150      8.813
REMARK  Name = 
REMARK  4 active torsions:
REMARK  status: ('A' for Active; 'I' for Inactive)
REMARK    1  A    between atoms: C_2  and  C_3
REMARK    2  A    between atoms: N_7  and  C_8
REMARK    3  A    between atoms: C_8  and  C_9
REMARK    4  A    between atoms: C_12  and  C_13
REMARK                            x       y       z     vdW  Elec       q    Type
REMARK                         _______ _______ _______ _____ _____    ______ ____
ROOT
ATOM      1  C   UNL     1       0.329  10.370  19.936  0.00  0.00    +0.000 A 
ATOM      2  C   UNL     1       0.105   9.745  21.103  0.00  0.00    +0.000 A 
ATOM      3  C   UNL     1       0.778   8.537  21.482  0.00  0.00    +0.000 A 
ATOM      4  C   UNL     1       1.581   7.926  20.606  0.00  0.00    +0.000 A 
ATOM      5  N   UNL     1       1.767   8.430  19.336  0.00  0.00    +0.000 N 
ATOM      6  C   UNL     1       1.160   9.630  18.907  0.00  0.00    +0.000 A 
ATOM      7  O   UNL     1       1.313  10.063  17.767  0.00  0.00    +0.000 OA
ENDROOT
BRANCH   1   9
ATOM      8  O   UNL     1      -1.513  11.591  19.113  0.00  0.00    +0.000 OA
ATOM      9  C   UNL     1      -0.376  11.647  19.582  0.00  0.00    +0.000 C 
ATOM     10  N   UNL     1       0.232  12.883  19.799  0.00  0.00    +0.000 N 
ATOM     11  C   UNL     1      -0.601  14.090  19.703  0.00  0.00    +0.000 C 
ATOM     12  C   UNL     1       0.088  15.174  18.875  0.00  0.00    +0.000 C 
ATOM     13  O   UNL     1       1.378  15.484  19.427  0.00  0.00    +0.000 OA
ATOM     14  C   UNL     1       2.220  14.325  19.396  0.00  0.00    +0.000 C 
ATOM     15  C   UNL     1       1.620  13.163  20.198  0.00  0.00    +0.000 C 
ENDBRANCH   1   9
BRANCH   5  16
ATOM     16  C   UNL     1       2.699   7.757  18.425  0.00  0.00    +0.000 C 
BRANCH  16  17
ATOM     17  C   UNL     1       2.707   6.266  18.682  0.00  0.00    +0.000 A 
ATOM     18  C   UNL     1       3.698   5.683  19.482  0.00  0.00    +0.000 A 
ATOM     19  C   UNL     1       3.829   4.294  19.544  0.00  0.00    +0.000 A 
ATOM     20  C   UNL     1       2.970   3.463  18.810  0.00  0.00    +0.000 A 
ATOM     21  C   UNL     1       1.928   4.049  18.075  0.00  0.00    +0.000 A 
ATOM     22  C   UNL     1       1.800   5.436  18.006  0.00  0.00    +0.000 A 
BRANCH  20  23
ATOM     23  C   UNL     1       3.181   1.972  18.755  0.00  0.00    +0.000 C 
ATOM     24  F   UNL     1       3.320   1.491  17.487  0.00  0.00    +0.000 F 
ATOM     25  F   UNL     1       4.288   1.568  19.433  0.00  0.00    +0.000 F 
ATOM     26  F   UNL     1       2.135   1.285  19.296  0.00  0.00    +0.000 F 
ENDBRANCH  20  23
ENDBRANCH  16  17
ENDBRANCH   5  16
TORSDOF 4
ENDMDL
MODEL 8
REMARK VINA RESULT:      -7.5      5.859      7.662
REMARK  Name = 
REMARK  4 active torsions:
REMARK  status: ('A' for Active; 'I' for Inactive)
REMARK    1  A    between atoms: C_2  and  C_3
REMARK    2  A    between atoms: N_7  and  C_8
REMARK    3  A    between atoms: C_8  and  C_9
REMARK    4  A    between atoms: C_12  and  C_13
REMARK                            x       y       z     vdW  Elec       q    Type
REMARK                         _______ _______ _______ _____ _____    ______ ____
ROOT
ATOM      1  C   UNL     1       6.943   5.308  15.717  0.00  0.00    +0.000 A 
ATOM      2  C   UNL     1       7.710   4.903  16.742  0.00  0.00    +0.000 A 
ATOM      3  C   UNL     1       7.333   5.078  18.114  0.00  0.00    +0.000 A 
ATOM      4  C   UNL     1       6.231   5.772  18.413  0.00  0.00    +0.000 A 
ATOM      5  N   UNL     1       5.453   6.336  17.424  0.00  0.00    +0.000 N 
ATOM      6  C   UNL     1       5.748   6.178  16.053  0.00  0.00    +0.000 A 
ATOM      7  O   UNL     1       5.062   6.700  15.177  0.00  0.00    +0.000 OA
ENDROOT
BRANCH   1   9
ATOM      8  O   UNL     1       8.304   5.731  13.839  0.00  0.00    +0.000 OA
ATOM      9  C   UNL     1       7.357   5.087  14.292  0.00  0.00    +0.000 C 
ATOM     10  N   UNL     1       6.700   4.152  13.492  0.00  0.00    +0.000 N 
ATOM     11  C   UNL     1       7.320   3.777  12.214  0.00  0.00    +0.000 C 
ATOM     12  C   UNL     1       6.296   3.777  11.080  0.00  0.00    +0.000 C 
ATOM     13  O   UNL     1       5.199   2.904  11.394  0.00  0.00    +0.000 OA
ATOM     14  C   UNL     1       4.527   3.359  12.574  0.00  0.00    +0.000 C 
ATOM     15  C   UNL     1       5.469   3.403  13.785  0.00  0.00    +0.000 C 
ENDBRANCH   1   9
BRANCH   5  16
ATOM     16  C   UNL     1       4.223   7.044  17.794  0.00  0.00    +0.000 C 
BRANCH  16  17
ATOM     17  C   UNL     1       3.216   6.083  18.388  0.00  0.00    +0.000 A 
ATOM     18  C   UNL     1       2.804   6.213  19.721  0.00  0.00    +0.000 A 
ATOM     19  C   UNL     1       2.044   5.209  20.326  0.00  0.00    +0.000 A 
ATOM     20  C   UNL     1       1.682   4.059  19.609  0.00  0.00    +0.000 A 
ATOM     21  C   UNL     1       2.028   3.971  18.252  0.00  0.00    +0.000 A 
ATOM     22  C   UNL     1       2.792   4.970  17.648  0.00  0.00    +0.000 A 
BRANCH  20  23
ATOM     23  C   UNL     1       0.983   2.906  20.281  0.00  0.00    +0.000 C 
ATOM     24  F   UNL     1       0.924   3.025  21.638  0.00  0.00    +0.000 F 
ATOM     25  F   UNL     1      -0.300   2.745  19.862  0.00  0.00    +0.000 F 
ATOM     26  F   UNL     1       1.609   1.718  20.045  0.00  0.00    +0.000 F 
ENDBRANCH  20  23
ENDBRANCH  16  17
ENDBRANCH   5  16
TORSDOF 4
ENDMDL
MODEL 9
REMARK VINA RESULT:      -7.5      5.422      8.978
REMARK  Name = 
REMARK  4 active torsions:
REMARK  status: ('A' for Active; 'I' for Inactive)
REMARK    1  A    between atoms: C_2  and  C_3
REMARK    2  A    between atoms: N_7  and  C_8
REMARK    3  A    between atoms: C_8  and  C_9
REMARK    4  A    between atoms: C_12  and  C_13
REMARK                            x       y       z     vdW  Elec       q    Type
REMARK                         _______ _______ _______ _____ _____    ______ ____
ROOT
ATOM      1  C   UNL     1       1.049   9.767  19.783  0.00  0.00    +0.000 A 
ATOM      2  C   UNL     1       1.507  10.075  18.559  0.00  0.00    +0.000 A 
ATOM      3  C   UNL     1       2.130   9.115  17.695  0.00  0.00    +0.000 A 
ATOM      4  C   UNL     1       2.380   7.884  18.149  0.00  0.00    +0.000 A 
ATOM      5  N   UNL     1       2.059   7.520  19.440  0.00  0.00    +0.000 N 
ATOM      6  C   UNL     1       1.418   8.404  20.333  0.00  0.00    +0.000 A 
ATOM      7  O   UNL     1       1.154   8.080  21.489  0.00  0.00    +0.000 OA
ENDROOT
BRANCH   1   9
ATOM      8  O   UNL     1       0.793  10.963  21.799  0.00  0.00    +0.000 OA
ATOM      9  C   UNL     1       0.380  10.792  20.651  0.00  0.00    +0.000 C 
ATOM     10  N   UNL     1      -0.679  11.560  20.166  0.00  0.00    +0.000 N 
ATOM     11  C   UNL     1      -1.102  12.728  20.951  0.00  0.00    +0.000 C 
ATOM     12  C   UNL     1      -2.623  12.778  21.093  0.00  0.00    +0.000 C 
ATOM     13  O   UNL     1      -3.249  12.774  19.800  0.00  0.00    +0.000 OA
ATOM     14  C   UNL     1      -2.927  11.567  19.099  0.00  0.00    +0.000 C 
ATOM     15  C   UNL     1      -1.413  11.410  18.901  0.00  0.00    +0.000 C 
ENDBRANCH   1   9
BRANCH   5  16
ATOM     16  C   UNL     1       2.302   6.142  19.878  0.00  0.00    +0.000 C 
BRANCH  16  17
ATOM     17  C   UNL     1       3.357   5.487  19.013  0.00  0.00    +0.000 A 
ATOM     18  C   UNL     1       4.714   5.579  19.348  0.00  0.00    +0.000 A 
ATOM     19  C   UNL     1       5.694   5.161  18.444  0.00  0.00    +0.000 A 
ATOM     20  C   UNL     1       5.334   4.643  17.191  0.00  0.00    +0.000 A 
ATOM     21  C   UNL     1       3.973   4.477  16.893  0.00  0.00    +0.000 A 
ATOM     22  C   UNL     1       2.994   4.900  17.792  0.00  0.00    +0.000 A 
BRANCH  20  23
ATOM     23  C   UNL     1       6.375   4.316  16.151  0.00  0.00    +0.000 C 
ATOM     24  F   UNL     1       7.635   4.212  16.661  0.00  0.00    +0.000 F 
ATOM     25  F   UNL     1       6.132   3.145  15.507  0.00  0.00    +0.000 F 
ATOM     26  F   UNL     1       6.449   5.273  15.182  0.00  0.00    +0.000 F 
ENDBRANCH  20  23
ENDBRANCH  16  17
ENDBRANCH   5  16
TORSDOF 4
ENDMDL
