MODEL 1
REMARK VINA RESULT:      -8.4      0.000      0.000
REMARK  Name = 
REMARK  8 active torsions:
REMARK  status: ('A' for Active; 'I' for Inactive)
REMARK    1  A    between atoms: C_1  and  C_2
REMARK    2  A    between atoms: C_7  and  C_8
REMARK    3  A    between atoms: C_8  and  S_9
REMARK    4  A    between atoms: S_9  and  C_12
REMARK    5  A    between atoms: C_17  and  C_18
REMARK    6  A    between atoms: C_24  and  C_25
REMARK    7  A    between atoms: C_25  and  C_26
REMARK    8  A    between atoms: C_25  and  C_27
REMARK                            x       y       z     vdW  Elec       q    Type
REMARK                         _______ _______ _______ _____ _____    ______ ____
ROOT
ATOM      1  C   UNL     1       4.998   5.445  17.457  0.00  0.00    +0.000 A 
ATOM      2  N   UNL     1       5.082   4.104  17.476  0.00  0.00    +0.000 NA
ATOM      3  C   UNL     1       4.173   3.496  18.278  0.00  0.00    +0.000 A 
ATOM      4  C   UNL     1       3.236   4.155  19.058  0.00  0.00    +0.000 A 
ATOM      5 CL   UNL     1       2.154   3.219  20.005  0.00  0.00    +0.000 Cl
ATOM      6  C   UNL     1       3.268   5.540  18.963  0.00  0.00    +0.000 A 
ATOM      7  N   UNL     1       4.138   6.211  18.156  0.00  0.00    +0.000 NA
ENDROOT
BRANCH   6   8
ATOM      8  C   UNL     1       2.352   6.455  19.740  0.00  0.00    +0.000 C 
ATOM      9  O   UNL     1       1.778   6.066  20.745  0.00  0.00    +0.000 OA
ATOM     10  N   UNL     1       2.255   7.712  19.180  0.00  0.00    +0.000 N 
ATOM     11  C   UNL     1       1.537   8.781  19.655  0.00  0.00    +0.000 A 
ATOM     12  N   UNL     1       1.374   9.886  18.962  0.00  0.00    +0.000 NA
ATOM     13  N   UNL     1       0.639  10.833  19.651  0.00  0.00    +0.000 NA
ATOM     14  C   UNL     1       0.317  10.424  20.861  0.00  0.00    +0.000 A 
ATOM     15  S   UNL     1       0.842   8.823  21.211  0.00  0.00    +0.000 S 
ATOM     16  H   UNL     1       2.722   7.880  18.293  0.00  0.00    +0.000 HD
BRANCH  14  17
ATOM     17  C   UNL     1      -0.409  11.248  21.888  0.00  0.00    +0.000 C 
ATOM     18  C   UNL     1      -1.601  11.966  21.249  0.00  0.00    +0.000 C 
ATOM     19  C   UNL     1      -0.876  10.384  23.060  0.00  0.00    +0.000 C 
ENDBRANCH  14  17
ENDBRANCH   6   8
BRANCH   1  20
ATOM     20  S   UNL     1       6.010   6.319  16.243  0.00  0.00    +0.000 S 
ATOM     21  O   UNL     1       6.737   7.343  16.975  0.00  0.00    +0.000 OA
ATOM     22  O   UNL     1       5.128   6.683  15.147  0.00  0.00    +0.000 OA
BRANCH  20  23
ATOM     23  C   UNL     1       7.167   5.067  15.698  0.00  0.00    +0.000 C 
BRANCH  23  30
ATOM     24  C   UNL     1       8.754   5.865  13.191  0.00  0.00    +0.000 C 
ATOM     25  C   UNL     1       7.550   4.959  13.149  0.00  0.00    +0.000 A 
ATOM     26  C   UNL     1       7.160   4.461  11.889  0.00  0.00    +0.000 A 
ATOM     27  C   UNL     1       6.056   3.622  11.759  0.00  0.00    +0.000 A 
ATOM     28  C   UNL     1       5.320   3.273  12.884  0.00  0.00    +0.000 A 
ATOM     29  C   UNL     1       5.693   3.759  14.139  0.00  0.00    +0.000 A 
ATOM     30  C   UNL     1       6.813   4.601  14.298  0.00  0.00    +0.000 A 
ENDBRANCH  23  30
ENDBRANCH  20  23
ENDBRANCH   1  20
TORSDOF 5
ENDMDL
MODEL 2
REMARK VINA RESULT:      -8.2      1.848      2.542
REMARK  Name = 
REMARK  8 active torsions:
REMARK  status: ('A' for Active; 'I' for Inactive)
REMARK    1  A    between atoms: C_1  and  C_2
REMARK    2  A    between atoms: C_7  and  C_8
REMARK    3  A    between atoms: C_8  and  S_9
REMARK    4  A    between atoms: S_9  and  C_12
REMARK    5  A    between atoms: C_17  and  C_18
REMARK    6  A    between atoms: C_24  and  C_25
REMARK    7  A    between atoms: C_25  and  C_26
REMARK    8  A    between atoms: C_25  and  C_27
REMARK                            x       y       z     vdW  Elec       q    Type
REMARK                         _______ _______ _______ _____ _____    ______ ____
ROOT
ATOM      1  C   UNL     1       5.180   5.124  19.106  0.00  0.00    +0.000 A 
ATOM      2  N   UNL     1       4.866   3.870  19.473  0.00  0.00    +0.000 NA
ATOM      3  C   UNL     1       3.595   3.717  19.917  0.00  0.00    +0.000 A 
ATOM      4  C   UNL     1       2.666   4.739  20.035  0.00  0.00    +0.000 A 
ATOM      5 CL   UNL     1       1.094   4.357  20.607  0.00  0.00    +0.000 Cl
ATOM      6  C   UNL     1       3.123   5.990  19.641  0.00  0.00    +0.000 A 
ATOM      7  N   UNL     1       4.381   6.206  19.161  0.00  0.00    +0.000 NA
ENDROOT
BRANCH   6   8
ATOM      8  C   UNL     1       2.287   7.246  19.705  0.00  0.00    +0.000 C 
ATOM      9  O   UNL     1       1.908   7.802  18.686  0.00  0.00    +0.000 OA
ATOM     10  N   UNL     1       2.039   7.655  20.999  0.00  0.00    +0.000 N 
ATOM     11  C   UNL     1       1.289   8.732  21.401  0.00  0.00    +0.000 A 
ATOM     12  N   UNL     1       1.247   9.136  22.651  0.00  0.00    +0.000 NA
ATOM     13  N   UNL     1       0.407  10.220  22.824  0.00  0.00    +0.000 NA
ATOM     14  C   UNL     1      -0.195  10.562  21.703  0.00  0.00    +0.000 A 
ATOM     15  S   UNL     1       0.280   9.614  20.348  0.00  0.00    +0.000 S 
ATOM     16  H   UNL     1       2.484   7.145  21.757  0.00  0.00    +0.000 HD
BRANCH  14  17
ATOM     17  C   UNL     1      -1.228  11.646  21.572  0.00  0.00    +0.000 C 
ATOM     18  C   UNL     1      -1.517  12.275  22.938  0.00  0.00    +0.000 C 
ATOM     19  C   UNL     1      -0.782  12.717  20.578  0.00  0.00    +0.000 C 
ENDBRANCH  14  17
ENDBRANCH   6   8
BRANCH   1  20
ATOM     20  S   UNL     1       6.770   5.370  18.286  0.00  0.00    +0.000 S 
ATOM     21  O   UNL     1       7.225   4.055  17.866  0.00  0.00    +0.000 OA
ATOM     22  O   UNL     1       7.582   6.179  19.181  0.00  0.00    +0.000 OA
BRANCH  20  23
ATOM     23  C   UNL     1       6.339   6.325  16.835  0.00  0.00    +0.000 C 
BRANCH  23  30
ATOM     24  C   UNL     1       4.095   4.336  16.165  0.00  0.00    +0.000 C 
ATOM     25  C   UNL     1       5.308   4.534  15.291  0.00  0.00    +0.000 A 
ATOM     26  C   UNL     1       5.387   3.764  14.113  0.00  0.00    +0.000 A 
ATOM     27  C   UNL     1       6.475   3.880  13.251  0.00  0.00    +0.000 A 
ATOM     28  C   UNL     1       7.504   4.762  13.557  0.00  0.00    +0.000 A 
ATOM     29  C   UNL     1       7.441   5.530  14.722  0.00  0.00    +0.000 A 
ATOM     30  C   UNL     1       6.344   5.438  15.604  0.00  0.00    +0.000 A 
ENDBRANCH  23  30
ENDBRANCH  20  23
ENDBRANCH   1  20
TORSDOF 5
ENDMDL
MODEL 3
REMARK VINA RESULT:      -8.1      1.568      2.339
REMARK  Name = 
REMARK  8 active torsions:
REMARK  status: ('A' for Active; 'I' for Inactive)
REMARK    1  A    between atoms: C_1  and  C_2
REMARK    2  A    between atoms: C_7  and  C_8
REMARK    3  A    between atoms: C_8  and  S_9
REMARK    4  A    between atoms: S_9  and  C_12
REMARK    5  A    between atoms: C_17  and  C_18
REMARK    6  A    between atoms: C_24  and  C_25
REMARK    7  A    between atoms: C_25  and  C_26
REMARK    8  A    between atoms: C_25  and  C_27
REMARK                            x       y       z     vdW  Elec       q    Type
REMARK                         _______ _______ _______ _____ _____    ______ ____
ROOT
ATOM      1  C   UNL     1       5.480   4.706  19.088  0.00  0.00    +0.000 A 
ATOM      2  N   UNL     1       5.322   3.389  19.301  0.00  0.00    +0.000 NA
ATOM      3  C   UNL     1       4.094   3.037  19.754  0.00  0.00    +0.000 A 
ATOM      4  C   UNL     1       3.062   3.923  20.023  0.00  0.00    +0.000 A 
ATOM      5 CL   UNL     1       1.566   3.294  20.581  0.00  0.00    +0.000 Cl
ATOM      6  C   UNL     1       3.361   5.257  19.780  0.00  0.00    +0.000 A 
ATOM      7  N   UNL     1       4.568   5.674  19.299  0.00  0.00    +0.000 NA
ENDROOT
BRANCH   6   8
ATOM      8  C   UNL     1       2.395   6.391  20.023  0.00  0.00    +0.000 C 
ATOM      9  O   UNL     1       1.604   6.356  20.954  0.00  0.00    +0.000 OA
ATOM     10  N   UNL     1       2.516   7.403  19.093  0.00  0.00    +0.000 N 
ATOM     11  C   UNL     1       1.814   8.582  19.051  0.00  0.00    +0.000 A 
ATOM     12  N   UNL     1       1.885   9.410  18.032  0.00  0.00    +0.000 NA
ATOM     13  N   UNL     1       1.114  10.541  18.221  0.00  0.00    +0.000 NA
ATOM     14  C   UNL     1       0.529  10.548  19.402  0.00  0.00    +0.000 A 
ATOM     15  S   UNL     1       0.836   9.135  20.333  0.00  0.00    +0.000 S 
ATOM     16  H   UNL     1       3.160   7.268  18.318  0.00  0.00    +0.000 HD
BRANCH  14  17
ATOM     17  C   UNL     1      -0.309  11.672  19.945  0.00  0.00    +0.000 C 
ATOM     18  C   UNL     1      -0.943  11.269  21.278  0.00  0.00    +0.000 C 
ATOM     19  C   UNL     1       0.519  12.946  20.114  0.00  0.00    +0.000 C 
ENDBRANCH  14  17
ENDBRANCH   6   8
BRANCH   1  20
ATOM     20  S   UNL     1       6.999   5.233  18.266  0.00  0.00    +0.000 S 
ATOM     21  O   UNL     1       7.625   4.028  17.747  0.00  0.00    +0.000 OA
ATOM     22  O   UNL     1       7.709   6.086  19.205  0.00  0.00    +0.000 OA
BRANCH  20  23
ATOM     23  C   UNL     1       6.403   6.213  16.893  0.00  0.00    +0.000 C 
BRANCH  23  30
ATOM     24  C   UNL     1       4.163   4.246  16.150  0.00  0.00    +0.000 C 
ATOM     25  C   UNL     1       5.366   4.492  15.275  0.00  0.00    +0.000 A 
ATOM     26  C   UNL     1       5.437   3.779  14.061  0.00  0.00    +0.000 A 
ATOM     27  C   UNL     1       6.516   3.942  13.195  0.00  0.00    +0.000 A 
ATOM     28  C   UNL     1       7.544   4.814  13.533  0.00  0.00    +0.000 A 
ATOM     29  C   UNL     1       7.488   5.526  14.733  0.00  0.00    +0.000 A 
ATOM     30  C   UNL     1       6.401   5.386  15.620  0.00  0.00    +0.000 A 
ENDBRANCH  23  30
ENDBRANCH  20  23
ENDBRANCH   1  20
TORSDOF 5
ENDMDL
MODEL 4
REMARK VINA RESULT:      -8.1      1.402      1.586
REMARK  Name = 
REMARK  8 active torsions:
REMARK  status: ('A' for Active; 'I' for Inactive)
REMARK    1  A    between atoms: C_1  and  C_2
REMARK    2  A    between atoms: C_7  and  C_8
REMARK    3  A    between atoms: C_8  and  S_9
REMARK    4  A    between atoms: S_9  and  C_12
REMARK    5  A    between atoms: C_17  and  C_18
REMARK    6  A    between atoms: C_24  and  C_25
REMARK    7  A    between atoms: C_25  and  C_26
REMARK    8  A    between atoms: C_25  and  C_27
REMARK                            x       y       z     vdW  Elec       q    Type
REMARK                         _______ _______ _______ _____ _____    ______ ____
ROOT
ATOM      1  C   UNL     1       4.828   6.062  17.511  0.00  0.00    +0.000 A 
ATOM      2  N   UNL     1       4.786   4.793  17.951  0.00  0.00    +0.000 NA
ATOM      3  C   UNL     1       3.764   4.527  18.801  0.00  0.00    +0.000 A 
ATOM      4  C   UNL     1       2.834   5.457  19.239  0.00  0.00    +0.000 A 
ATOM      5 CL   UNL     1       1.597   4.937  20.311  0.00  0.00    +0.000 Cl
ATOM      6  C   UNL     1       3.001   6.736  18.726  0.00  0.00    +0.000 A 
ATOM      7  N   UNL     1       3.991   7.062  17.847  0.00  0.00    +0.000 NA
ENDROOT
BRANCH   6   8
ATOM      8  C   UNL     1       2.116   7.906  19.084  0.00  0.00    +0.000 C 
ATOM      9  O   UNL     1       1.616   8.606  18.218  0.00  0.00    +0.000 OA
ATOM     10  N   UNL     1       1.972   8.067  20.447  0.00  0.00    +0.000 N 
ATOM     11  C   UNL     1       1.213   9.007  21.097  0.00  0.00    +0.000 A 
ATOM     12  N   UNL     1       1.271   9.184  22.399  0.00  0.00    +0.000 NA
ATOM     13  N   UNL     1       0.400  10.166  22.833  0.00  0.00    +0.000 NA
ATOM     14  C   UNL     1      -0.321  10.659  21.847  0.00  0.00    +0.000 A 
ATOM     15  S   UNL     1       0.068   9.993  20.309  0.00  0.00    +0.000 S 
ATOM     16  H   UNL     1       2.512   7.463  21.061  0.00  0.00    +0.000 HD
BRANCH  14  17
ATOM     17  C   UNL     1      -1.413  11.680  22.001  0.00  0.00    +0.000 C 
ATOM     18  C   UNL     1      -2.069  11.557  23.378  0.00  0.00    +0.000 C 
ATOM     19  C   UNL     1      -0.878  13.096  21.793  0.00  0.00    +0.000 C 
ENDBRANCH  14  17
ENDBRANCH   6   8
BRANCH   1  20
ATOM     20  S   UNL     1       6.010   6.442  16.200  0.00  0.00    +0.000 S 
ATOM     21  O   UNL     1       7.002   7.330  16.785  0.00  0.00    +0.000 OA
ATOM     22  O   UNL     1       5.234   6.864  15.046  0.00  0.00    +0.000 OA
BRANCH  20  23
ATOM     23  C   UNL     1       6.776   4.859  15.867  0.00  0.00    +0.000 C 
BRANCH  23  30
ATOM     24  C   UNL     1       8.617   5.752  13.575  0.00  0.00    +0.000 C 
ATOM     25  C   UNL     1       7.413   4.869  13.368  0.00  0.00    +0.000 A 
ATOM     26  C   UNL     1       7.148   4.439  12.051  0.00  0.00    +0.000 A 
ATOM     27  C   UNL     1       6.053   3.625  11.769  0.00  0.00    +0.000 A 
ATOM     28  C   UNL     1       5.204   3.233  12.796  0.00  0.00    +0.000 A 
ATOM     29  C   UNL     1       5.453   3.652  14.105  0.00  0.00    +0.000 A 
ATOM     30  C   UNL     1       6.560   4.467  14.417  0.00  0.00    +0.000 A 
ENDBRANCH  23  30
ENDBRANCH  20  23
ENDBRANCH   1  20
TORSDOF 5
ENDMDL
MODEL 5
REMARK VINA RESULT:      -7.9      1.682      2.226
REMARK  Name = 
REMARK  8 active torsions:
REMARK  status: ('A' for Active; 'I' for Inactive)
REMARK    1  A    between atoms: C_1  and  C_2
REMARK    2  A    between atoms: C_7  and  C_8
REMARK    3  A    between atoms: C_8  and  S_9
REMARK    4  A    between atoms: S_9  and  C_12
REMARK    5  A    between atoms: C_17  and  C_18
REMARK    6  A    between atoms: C_24  and  C_25
REMARK    7  A    between atoms: C_25  and  C_26
REMARK    8  A    between atoms: C_25  and  C_27
REMARK                            x       y       z     vdW  Elec       q    Type
REMARK                         _______ _______ _______ _____ _____    ______ ____
ROOT
ATOM      1  C   UNL     1       5.581   4.642  18.789  0.00  0.00    +0.000 A 
ATOM      2  N   UNL     1       5.281   3.504  18.142  0.00  0.00    +0.000 NA
ATOM      3  C   UNL     1       3.956   3.217  18.095  0.00  0.00    +0.000 A 
ATOM      4  C   UNL     1       2.958   3.982  18.677  0.00  0.00    +0.000 A 
ATOM      5 CL   UNL     1       1.328   3.471  18.506  0.00  0.00    +0.000 Cl
ATOM      6  C   UNL     1       3.403   5.122  19.333  0.00  0.00    +0.000 A 
ATOM      7  N   UNL     1       4.718   5.481  19.394  0.00  0.00    +0.000 NA
ENDROOT
BRANCH   6   8
ATOM      8  C   UNL     1       2.491   6.086  20.053  0.00  0.00    +0.000 C 
ATOM      9  O   UNL     1       1.929   5.767  21.089  0.00  0.00    +0.000 OA
ATOM     10  N   UNL     1       2.382   7.300  19.406  0.00  0.00    +0.000 N 
ATOM     11  C   UNL     1       1.663   8.397  19.813  0.00  0.00    +0.000 A 
ATOM     12  N   UNL     1       1.488   9.450  19.045  0.00  0.00    +0.000 NA
ATOM     13  N   UNL     1       0.755  10.439  19.673  0.00  0.00    +0.000 NA
ATOM     14  C   UNL     1       0.447  10.115  20.912  0.00  0.00    +0.000 A 
ATOM     15  S   UNL     1       0.983   8.546  21.368  0.00  0.00    +0.000 S 
ATOM     16  H   UNL     1       2.840   7.406  18.505  0.00  0.00    +0.000 HD
BRANCH  14  17
ATOM     17  C   UNL     1      -0.273  11.007  21.886  0.00  0.00    +0.000 C 
ATOM     18  C   UNL     1      -1.385  11.782  21.176  0.00  0.00    +0.000 C 
ATOM     19  C   UNL     1      -0.847  10.201  23.051  0.00  0.00    +0.000 C 
ENDBRANCH  14  17
ENDBRANCH   6   8
BRANCH   1  20
ATOM     20  S   UNL     1       7.290   5.218  18.697  0.00  0.00    +0.000 S 
ATOM     21  O   UNL     1       8.093   4.065  18.322  0.00  0.00    +0.000 OA
ATOM     22  O   UNL     1       7.560   5.931  19.935  0.00  0.00    +0.000 OA
BRANCH  20  23
ATOM     23  C   UNL     1       7.261   6.372  17.331  0.00  0.00    +0.000 C 
BRANCH  23  30
ATOM     24  C   UNL     1       4.446   7.065  16.311  0.00  0.00    +0.000 C 
ATOM     25  C   UNL     1       5.340   6.054  15.638  0.00  0.00    +0.000 A 
ATOM     26  C   UNL     1       4.840   5.417  14.484  0.00  0.00    +0.000 A 
ATOM     27  C   UNL     1       5.596   4.466  13.804  0.00  0.00    +0.000 A 
ATOM     28  C   UNL     1       6.862   4.132  14.270  0.00  0.00    +0.000 A 
ATOM     29  C   UNL     1       7.371   4.753  15.413  0.00  0.00    +0.000 A 
ATOM     30  C   UNL     1       6.627   5.726  16.112  0.00  0.00    +0.000 A 
ENDBRANCH  23  30
ENDBRANCH  20  23
ENDBRANCH   1  20
TORSDOF 5
ENDMDL
MODEL 6
REMARK VINA RESULT:      -7.9      1.498      2.171
REMARK  Name = 
REMARK  8 active torsions:
REMARK  status: ('A' for Active; 'I' for Inactive)
REMARK    1  A    between atoms: C_1  and  C_2
REMARK    2  A    between atoms: C_7  and  C_8
REMARK    3  A    between atoms: C_8  and  S_9
REMARK    4  A    between atoms: S_9  and  C_12
REMARK    5  A    between atoms: C_17  and  C_18
REMARK    6  A    between atoms: C_24  and  C_25
REMARK    7  A    between atoms: C_25  and  C_26
REMARK    8  A    between atoms: C_25  and  C_27
REMARK                            x       y       z     vdW  Elec       q    Type
REMARK                         _______ _______ _______ _____ _____    ______ ____
ROOT
ATOM      1  C   UNL     1       4.838   6.315  17.829  0.00  0.00    +0.000 A 
ATOM      2  N   UNL     1       4.868   5.059  18.305  0.00  0.00    +0.000 NA
ATOM      3  C   UNL     1       3.845   4.752  19.141  0.00  0.00    +0.000 A 
ATOM      4  C   UNL     1       2.847   5.631  19.531  0.00  0.00    +0.000 A 
ATOM      5 CL   UNL     1       1.622   5.062  20.590  0.00  0.00    +0.000 Cl
ATOM      6  C   UNL     1       2.943   6.903  18.983  0.00  0.00    +0.000 A 
ATOM      7  N   UNL     1       3.931   7.268  18.116  0.00  0.00    +0.000 NA
ENDROOT
BRANCH   6   8
ATOM      8  C   UNL     1       1.976   8.022  19.287  0.00  0.00    +0.000 C 
ATOM      9  O   UNL     1       1.417   8.633  18.389  0.00  0.00    +0.000 OA
ATOM     10  N   UNL     1       1.832   8.249  20.640  0.00  0.00    +0.000 N 
ATOM     11  C   UNL     1       1.009   9.165  21.246  0.00  0.00    +0.000 A 
ATOM     12  N   UNL     1       1.064   9.419  22.535  0.00  0.00    +0.000 NA
ATOM     13  N   UNL     1       0.127  10.356  22.925  0.00  0.00    +0.000 NA
ATOM     14  C   UNL     1      -0.638  10.737  21.922  0.00  0.00    +0.000 A 
ATOM     15  S   UNL     1      -0.213  10.017  20.419  0.00  0.00    +0.000 S 
ATOM     16  H   UNL     1       2.420   7.722  21.280  0.00  0.00    +0.000 HD
BRANCH  14  17
ATOM     17  C   UNL     1      -1.802  11.682  22.032  0.00  0.00    +0.000 C 
ATOM     18  C   UNL     1      -2.082  12.014  23.499  0.00  0.00    +0.000 C 
ATOM     19  C   UNL     1      -1.551  12.963  21.236  0.00  0.00    +0.000 C 
ENDBRANCH  14  17
ENDBRANCH   6   8
BRANCH   1  20
ATOM     20  S   UNL     1       6.023   6.734  16.533  0.00  0.00    +0.000 S 
ATOM     21  O   UNL     1       6.912   7.738  17.096  0.00  0.00    +0.000 OA
ATOM     22  O   UNL     1       5.250   7.023  15.336  0.00  0.00    +0.000 OA
BRANCH  20  23
ATOM     23  C   UNL     1       6.938   5.213  16.307  0.00  0.00    +0.000 C 
BRANCH  23  30
ATOM     24  C   UNL     1       4.825   3.230  15.287  0.00  0.00    +0.000 C 
ATOM     25  C   UNL     1       5.868   3.853  14.394  0.00  0.00    +0.000 A 
ATOM     26  C   UNL     1       5.845   3.499  13.030  0.00  0.00    +0.000 A 
ATOM     27  C   UNL     1       6.776   4.023  12.136  0.00  0.00    +0.000 A 
ATOM     28  C   UNL     1       7.748   4.905  12.593  0.00  0.00    +0.000 A 
ATOM     29  C   UNL     1       7.784   5.264  13.942  0.00  0.00    +0.000 A 
ATOM     30  C   UNL     1       6.846   4.755  14.863  0.00  0.00    +0.000 A 
ENDBRANCH  23  30
ENDBRANCH  20  23
ENDBRANCH   1  20
TORSDOF 5
ENDMDL
MODEL 7
REMARK VINA RESULT:      -7.9      0.629      1.525
REMARK  Name = 
REMARK  8 active torsions:
REMARK  status: ('A' for Active; 'I' for Inactive)
REMARK    1  A    between atoms: C_1  and  C_2
REMARK    2  A    between atoms: C_7  and  C_8
REMARK    3  A    between atoms: C_8  and  S_9
REMARK    4  A    between atoms: S_9  and  C_12
REMARK    5  A    between atoms: C_17  and  C_18
REMARK    6  A    between atoms: C_24  and  C_25
REMARK    7  A    between atoms: C_25  and  C_26
REMARK    8  A    between atoms: C_25  and  C_27
REMARK                            x       y       z     vdW  Elec       q    Type
REMARK                         _______ _______ _______ _____ _____    ______ ____
ROOT
ATOM      1  C   UNL     1       5.054   5.648  17.905  0.00  0.00    +0.000 A 
ATOM      2  N   UNL     1       5.279   4.337  18.096  0.00  0.00    +0.000 NA
ATOM      3  C   UNL     1       4.417   3.739  18.955  0.00  0.00    +0.000 A 
ATOM      4  C   UNL     1       3.394   4.385  19.632  0.00  0.00    +0.000 A 
ATOM      5 CL   UNL     1       2.391   3.462  20.675  0.00  0.00    +0.000 Cl
ATOM      6  C   UNL     1       3.282   5.742  19.362  0.00  0.00    +0.000 A 
ATOM      7  N   UNL     1       4.099   6.398  18.488  0.00  0.00    +0.000 NA
ENDROOT
BRANCH   6   8
ATOM      8  C   UNL     1       2.254   6.642  20.002  0.00  0.00    +0.000 C 
ATOM      9  O   UNL     1       1.600   6.268  20.964  0.00  0.00    +0.000 OA
ATOM     10  N   UNL     1       2.156   7.869  19.378  0.00  0.00    +0.000 N 
ATOM     11  C   UNL     1       1.347   8.920  19.731  0.00  0.00    +0.000 A 
ATOM     12  N   UNL     1       1.204   9.986  18.975  0.00  0.00    +0.000 NA
ATOM     13  N   UNL     1       0.362  10.923  19.544  0.00  0.00    +0.000 NA
ATOM     14  C   UNL     1      -0.060  10.549  20.735  0.00  0.00    +0.000 A 
ATOM     15  S   UNL     1       0.499   8.993  21.208  0.00  0.00    +0.000 S 
ATOM     16  H   UNL     1       2.701   8.022  18.534  0.00  0.00    +0.000 HD
BRANCH  14  17
ATOM     17  C   UNL     1      -0.921  11.378  21.647  0.00  0.00    +0.000 C 
ATOM     18  C   UNL     1      -1.080  10.688  23.004  0.00  0.00    +0.000 C 
ATOM     19  C   UNL     1      -0.341  12.781  21.830  0.00  0.00    +0.000 C 
ENDBRANCH  14  17
ENDBRANCH   6   8
BRANCH   1  20
ATOM     20  S   UNL     1       6.001   6.467  16.604  0.00  0.00    +0.000 S 
ATOM     21  O   UNL     1       6.667   7.598  17.230  0.00  0.00    +0.000 OA
ATOM     22  O   UNL     1       5.091   6.673  15.489  0.00  0.00    +0.000 OA
BRANCH  20  23
ATOM     23  C   UNL     1       7.231   5.245  16.161  0.00  0.00    +0.000 C 
BRANCH  23  30
ATOM     24  C   UNL     1       5.264   3.072  15.238  0.00  0.00    +0.000 C 
ATOM     25  C   UNL     1       6.148   3.841  14.288  0.00  0.00    +0.000 A 
ATOM     26  C   UNL     1       6.041   3.534  12.916  0.00  0.00    +0.000 A 
ATOM     27  C   UNL     1       6.823   4.192  11.970  0.00  0.00    +0.000 A 
ATOM     28  C   UNL     1       7.730   5.161  12.381  0.00  0.00    +0.000 A 
ATOM     29  C   UNL     1       7.849   5.475  13.737  0.00  0.00    +0.000 A 
ATOM     30  C   UNL     1       7.059   4.830  14.712  0.00  0.00    +0.000 A 
ENDBRANCH  23  30
ENDBRANCH  20  23
ENDBRANCH   1  20
TORSDOF 5
ENDMDL
MODEL 8
REMARK VINA RESULT:      -7.8      1.540      2.060
REMARK  Name = 
REMARK  8 active torsions:
REMARK  status: ('A' for Active; 'I' for Inactive)
REMARK    1  A    between atoms: C_1  and  C_2
REMARK    2  A    between atoms: C_7  and  C_8
REMARK    3  A    between atoms: C_8  and  S_9
REMARK    4  A    between atoms: S_9  and  C_12
REMARK    5  A    between atoms: C_17  and  C_18
REMARK    6  A    between atoms: C_24  and  C_25
REMARK    7  A    between atoms: C_25  and  C_26
REMARK    8  A    between atoms: C_25  and  C_27
REMARK                            x       y       z     vdW  Elec       q    Type
REMARK                         _______ _______ _______ _____ _____    ______ ____
ROOT
ATOM      1  C   UNL     1       4.704   5.033  17.948  0.00  0.00    +0.000 A 
ATOM      2  N   UNL     1       4.400   3.803  18.395  0.00  0.00    +0.000 NA
ATOM      3  C   UNL     1       3.284   3.744  19.162  0.00  0.00    +0.000 A 
ATOM      4  C   UNL     1       2.503   4.835  19.513  0.00  0.00    +0.000 A 
ATOM      5 CL   UNL     1       1.113   4.570  20.484  0.00  0.00    +0.000 Cl
ATOM      6  C   UNL     1       2.937   6.051  19.002  0.00  0.00    +0.000 A 
ATOM      7  N   UNL     1       4.036   6.174  18.203  0.00  0.00    +0.000 NA
ENDROOT
BRANCH   6   8
ATOM      8  C   UNL     1       2.250   7.368  19.274  0.00  0.00    +0.000 C 
ATOM      9  O   UNL     1       1.961   8.127  18.363  0.00  0.00    +0.000 OA
ATOM     10  N   UNL     1       2.021   7.581  20.618  0.00  0.00    +0.000 N 
ATOM     11  C   UNL     1       1.390   8.656  21.193  0.00  0.00    +0.000 A 
ATOM     12  N   UNL     1       1.367   8.848  22.494  0.00  0.00    +0.000 NA
ATOM     13  N   UNL     1       0.654   9.978  22.844  0.00  0.00    +0.000 NA
ATOM     14  C   UNL     1       0.121  10.571  21.795  0.00  0.00    +0.000 A 
ATOM     15  S   UNL     1       0.514   9.814  20.301  0.00  0.00    +0.000 S 
ATOM     16  H   UNL     1       2.387   6.903  21.281  0.00  0.00    +0.000 HD
BRANCH  14  17
ATOM     17  C   UNL     1      -0.778  11.775  21.846  0.00  0.00    +0.000 C 
ATOM     18  C   UNL     1      -1.513  11.948  20.515  0.00  0.00    +0.000 C 
ATOM     19  C   UNL     1      -1.780  11.668  22.996  0.00  0.00    +0.000 C 
ENDBRANCH  14  17
ENDBRANCH   6   8
BRANCH   1  20
ATOM     20  S   UNL     1       6.035   5.165  16.734  0.00  0.00    +0.000 S 
ATOM     21  O   UNL     1       7.210   4.567  17.346  0.00  0.00    +0.000 OA
ATOM     22  O   UNL     1       6.060   6.548  16.289  0.00  0.00    +0.000 OA
BRANCH  20  23
ATOM     23  C   UNL     1       5.477   4.111  15.400  0.00  0.00    +0.000 C 
BRANCH  23  30
ATOM     24  C   UNL     1       4.720   3.026  12.627  0.00  0.00    +0.000 C 
ATOM     25  C   UNL     1       5.926   3.898  12.869  0.00  0.00    +0.000 A 
ATOM     26  C   UNL     1       6.721   4.223  11.751  0.00  0.00    +0.000 A 
ATOM     27  C   UNL     1       7.856   5.019  11.885  0.00  0.00    +0.000 A 
ATOM     28  C   UNL     1       8.218   5.497  13.138  0.00  0.00    +0.000 A 
ATOM     29  C   UNL     1       7.440   5.183  14.255  0.00  0.00    +0.000 A 
ATOM     30  C   UNL     1       6.281   4.388  14.143  0.00  0.00    +0.000 A 
ENDBRANCH  23  30
ENDBRANCH  20  23
ENDBRANCH   1  20
TORSDOF 5
ENDMDL
MODEL 9
REMARK VINA RESULT:      -7.8      2.183      9.709
REMARK  Name = 
REMARK  8 active torsions:
REMARK  status: ('A' for Active; 'I' for Inactive)
REMARK    1  A    between atoms: C_1  and  C_2
REMARK    2  A    between atoms: C_7  and  C_8
REMARK    3  A    between atoms: C_8  and  S_9
REMARK    4  A    between atoms: S_9  and  C_12
REMARK    5  A    between atoms: C_17  and  C_18
REMARK    6  A    between atoms: C_24  and  C_25
REMARK    7  A    between atoms: C_25  and  C_26
REMARK    8  A    between atoms: C_25  and  C_27
REMARK                            x       y       z     vdW  Elec       q    Type
REMARK                         _______ _______ _______ _____ _____    ______ ____
ROOT
ATOM      1  C   UNL     1       1.314   8.858  19.572  0.00  0.00    +0.000 A 
ATOM      2  N   UNL     1       0.904   8.502  20.801  0.00  0.00    +0.000 NA
ATOM      3  C   UNL     1       1.300   7.265  21.189  0.00  0.00    +0.000 A 
ATOM      4  C   UNL     1       2.040   6.388  20.411  0.00  0.00    +0.000 A 
ATOM      5 CL   UNL     1       2.464   4.863  21.073  0.00  0.00    +0.000 Cl
ATOM      6  C   UNL     1       2.383   6.870  19.154  0.00  0.00    +0.000 A 
ATOM      7  N   UNL     1       2.038   8.114  18.714  0.00  0.00    +0.000 NA
ENDROOT
BRANCH   6   8
ATOM      8  C   UNL     1       3.168   6.077  18.138  0.00  0.00    +0.000 C 
ATOM      9  O   UNL     1       2.716   5.049  17.656  0.00  0.00    +0.000 OA
ATOM     10  N   UNL     1       4.396   6.638  17.856  0.00  0.00    +0.000 N 
ATOM     11  C   UNL     1       5.331   6.186  16.958  0.00  0.00    +0.000 A 
ATOM     12  N   UNL     1       6.540   6.696  16.881  0.00  0.00    +0.000 NA
ATOM     13  N   UNL     1       7.297   6.102  15.889  0.00  0.00    +0.000 NA
ATOM     14  C   UNL     1       6.611   5.198  15.218  0.00  0.00    +0.000 A 
ATOM     15  S   UNL     1       5.010   4.974  15.804  0.00  0.00    +0.000 S 
ATOM     16  H   UNL     1       4.685   7.453  18.391  0.00  0.00    +0.000 HD
BRANCH  14  17
ATOM     17  C   UNL     1       7.120   4.434  14.028  0.00  0.00    +0.000 C 
ATOM     18  C   UNL     1       5.958   3.775  13.281  0.00  0.00    +0.000 C 
ATOM     19  C   UNL     1       7.911   5.341  13.086  0.00  0.00    +0.000 C 
ENDBRANCH  14  17
ENDBRANCH   6   8
BRANCH   1  20
ATOM     20  S   UNL     1       1.031  10.570  19.070  0.00  0.00    +0.000 S 
ATOM     21  O   UNL     1      -0.344  10.639  18.602  0.00  0.00    +0.000 OA
ATOM     22  O   UNL     1       2.128  10.935  18.189  0.00  0.00    +0.000 OA
BRANCH  20  23
ATOM     23  C   UNL     1       1.165  11.475  20.608  0.00  0.00    +0.000 C 
BRANCH  23  30
ATOM     24  C   UNL     1      -0.720  10.544  22.848  0.00  0.00    +0.000 C 
ATOM     25  C   UNL     1      -1.010  11.734  21.969  0.00  0.00    +0.000 A 
ATOM     26  C   UNL     1      -2.206  12.441  22.213  0.00  0.00    +0.000 A 
ATOM     27  C   UNL     1      -2.555  13.549  21.445  0.00  0.00    +0.000 A 
ATOM     28  C   UNL     1      -1.718  13.964  20.416  0.00  0.00    +0.000 A 
ATOM     29  C   UNL     1      -0.531  13.274  20.161  0.00  0.00    +0.000 A 
ATOM     30  C   UNL     1      -0.152  12.156  20.933  0.00  0.00    +0.000 A 
ENDBRANCH  23  30
ENDBRANCH  20  23
ENDBRANCH   1  20
TORSDOF 5
ENDMDL
