MODEL 1
REMARK VINA RESULT:      -6.3      0.000      0.000
REMARK  Name = 
REMARK  9 active torsions:
REMARK  status: ('A' for Active; 'I' for Inactive)
REMARK    1  A    between atoms: C_1  and  C_2
REMARK    2  A    between atoms: C_2  and  C_3
REMARK    3  A    between atoms: C_3  and  C_4
REMARK    4  A    between atoms: C_4  and  C_5
REMARK    5  A    between atoms: C_5  and  C_6
REMARK    6  A    between atoms: C_6  and  C_7
REMARK    7  A    between atoms: C_7  and  C_8
REMARK    8  A    between atoms: C_8  and  O_9
REMARK    9  A    between atoms: O_9  and  C_10
REMARK                            x       y       z     vdW  Elec       q    Type
REMARK                         _______ _______ _______ _____ _____    ______ ____
ROOT
ATOM      1  O   UNL     1       5.172   4.089  16.738  0.00  0.00    +0.000 OA
ENDROOT
BRANCH   1   2
ATOM      2  C   UNL     1       4.549   4.443  17.893  0.00  0.00    +0.000 A 
ATOM      3  N   UNL     1       5.110   5.332  18.722  0.00  0.00    +0.000 NA
ATOM      4  O   UNL     1       4.231   5.453  19.782  0.00  0.00    +0.000 OA
ATOM      5  C   UNL     1       3.160   4.644  19.574  0.00  0.00    +0.000 A 
ATOM      6  C   UNL     1       2.075   4.504  20.435  0.00  0.00    +0.000 A 
ATOM      7  C   UNL     1       1.076   3.615  20.028  0.00  0.00    +0.000 A 
ATOM      8  C   UNL     1       1.180   2.916  18.820  0.00  0.00    +0.000 A 
ATOM      9  C   UNL     1       2.292   3.081  17.975  0.00  0.00    +0.000 A 
ATOM     10  C   UNL     1       3.305   3.972  18.371  0.00  0.00    +0.000 A 
ENDBRANCH   1   2
BRANCH   1  11
ATOM     11  C   UNL     1       5.138   5.120  15.746  0.00  0.00    +0.000 C 
BRANCH  11  12
ATOM     12  C   UNL     1       6.287   4.948  14.757  0.00  0.00    +0.000 C 
BRANCH  12  13
ATOM     13  C   UNL     1       6.134   3.629  13.996  0.00  0.00    +0.000 C 
BRANCH  13  14
ATOM     14  C   UNL     1       6.610   3.750  12.551  0.00  0.00    +0.000 C 
BRANCH  14  15
ATOM     15  C   UNL     1       5.679   3.000  11.595  0.00  0.00    +0.000 C 
BRANCH  15  16
ATOM     16  C   UNL     1       4.216   3.333  11.885  0.00  0.00    +0.000 C 
BRANCH  16  18
ATOM     17  C   UNL     1       3.096   4.252   9.829  0.00  0.00    +0.000 C 
ATOM     18  C   UNL     1       3.320   3.018  10.688  0.00  0.00    +0.000 C 
ENDBRANCH  16  18
ENDBRANCH  15  16
ENDBRANCH  14  15
ENDBRANCH  13  14
ENDBRANCH  12  13
ENDBRANCH  11  12
ENDBRANCH   1  11
TORSDOF 8
ENDMDL
MODEL 2
REMARK VINA RESULT:      -6.3      3.109      6.422
REMARK  Name = 
REMARK  9 active torsions:
REMARK  status: ('A' for Active; 'I' for Inactive)
REMARK    1  A    between atoms: C_1  and  C_2
REMARK    2  A    between atoms: C_2  and  C_3
REMARK    3  A    between atoms: C_3  and  C_4
REMARK    4  A    between atoms: C_4  and  C_5
REMARK    5  A    between atoms: C_5  and  C_6
REMARK    6  A    between atoms: C_6  and  C_7
REMARK    7  A    between atoms: C_7  and  C_8
REMARK    8  A    between atoms: C_8  and  O_9
REMARK    9  A    between atoms: O_9  and  C_10
REMARK                            x       y       z     vdW  Elec       q    Type
REMARK                         _______ _______ _______ _____ _____    ______ ____
ROOT
ATOM      1  O   UNL     1       3.251   2.219  17.868  0.00  0.00    +0.000 OA
ENDROOT
BRANCH   1   2
ATOM      2  C   UNL     1       4.268   3.035  18.252  0.00  0.00    +0.000 A 
ATOM      3  N   UNL     1       4.784   2.942  19.484  0.00  0.00    +0.000 NA
ATOM      4  O   UNL     1       5.775   3.904  19.542  0.00  0.00    +0.000 OA
ATOM      5  C   UNL     1       5.842   4.554  18.351  0.00  0.00    +0.000 A 
ATOM      6  C   UNL     1       6.722   5.588  18.044  0.00  0.00    +0.000 A 
ATOM      7  C   UNL     1       6.624   6.119  16.755  0.00  0.00    +0.000 A 
ATOM      8  C   UNL     1       5.688   5.624  15.840  0.00  0.00    +0.000 A 
ATOM      9  C   UNL     1       4.812   4.579  16.185  0.00  0.00    +0.000 A 
ATOM     10  C   UNL     1       4.899   4.034  17.478  0.00  0.00    +0.000 A 
ENDBRANCH   1   2
BRANCH   1  11
ATOM     11  C   UNL     1       1.969   2.849  17.944  0.00  0.00    +0.000 C 
BRANCH  11  12
ATOM     12  C   UNL     1       1.097   2.164  18.990  0.00  0.00    +0.000 C 
BRANCH  12  13
ATOM     13  C   UNL     1       1.233   2.875  20.338  0.00  0.00    +0.000 C 
BRANCH  13  14
ATOM     14  C   UNL     1       0.945   4.370  20.222  0.00  0.00    +0.000 C 
BRANCH  14  15
ATOM     15  C   UNL     1       2.084   5.203  20.815  0.00  0.00    +0.000 C 
BRANCH  15  16
ATOM     16  C   UNL     1       2.802   5.999  19.725  0.00  0.00    +0.000 C 
BRANCH  16  18
ATOM     17  C   UNL     1       2.365   7.894  18.130  0.00  0.00    +0.000 C 
ATOM     18  C   UNL     1       2.194   7.390  19.554  0.00  0.00    +0.000 C 
ENDBRANCH  16  18
ENDBRANCH  15  16
ENDBRANCH  14  15
ENDBRANCH  13  14
ENDBRANCH  12  13
ENDBRANCH  11  12
ENDBRANCH   1  11
TORSDOF 8
ENDMDL
MODEL 3
REMARK VINA RESULT:      -6.2      2.690      6.288
REMARK  Name = 
REMARK  9 active torsions:
REMARK  status: ('A' for Active; 'I' for Inactive)
REMARK    1  A    between atoms: C_1  and  C_2
REMARK    2  A    between atoms: C_2  and  C_3
REMARK    3  A    between atoms: C_3  and  C_4
REMARK    4  A    between atoms: C_4  and  C_5
REMARK    5  A    between atoms: C_5  and  C_6
REMARK    6  A    between atoms: C_6  and  C_7
REMARK    7  A    between atoms: C_7  and  C_8
REMARK    8  A    between atoms: C_8  and  O_9
REMARK    9  A    between atoms: O_9  and  C_10
REMARK                            x       y       z     vdW  Elec       q    Type
REMARK                         _______ _______ _______ _____ _____    ______ ____
ROOT
ATOM      1  O   UNL     1       3.973   6.332  19.317  0.00  0.00    +0.000 OA
ENDROOT
BRANCH   1   2
ATOM      2  C   UNL     1       5.038   5.647  18.823  0.00  0.00    +0.000 A 
ATOM      3  N   UNL     1       5.900   5.042  19.649  0.00  0.00    +0.000 NA
ATOM      4  O   UNL     1       6.848   4.458  18.830  0.00  0.00    +0.000 OA
ATOM      5  C   UNL     1       6.542   4.716  17.532  0.00  0.00    +0.000 A 
ATOM      6  C   UNL     1       7.277   4.288  16.429  0.00  0.00    +0.000 A 
ATOM      7  C   UNL     1       6.783   4.664  15.176  0.00  0.00    +0.000 A 
ATOM      8  C   UNL     1       5.616   5.427  15.059  0.00  0.00    +0.000 A 
ATOM      9  C   UNL     1       4.900   5.845  16.196  0.00  0.00    +0.000 A 
ATOM     10  C   UNL     1       5.384   5.474  17.463  0.00  0.00    +0.000 A 
ENDBRANCH   1   2
BRANCH   1  11
ATOM     11  C   UNL     1       2.728   5.659  19.104  0.00  0.00    +0.000 C 
BRANCH  11  12
ATOM     12  C   UNL     1       1.920   5.607  20.397  0.00  0.00    +0.000 C 
BRANCH  12  13
ATOM     13  C   UNL     1       0.981   4.399  20.382  0.00  0.00    +0.000 C 
BRANCH  13  14
ATOM     14  C   UNL     1       1.583   3.202  21.113  0.00  0.00    +0.000 C 
BRANCH  14  15
ATOM     15  C   UNL     1       1.965   2.088  20.136  0.00  0.00    +0.000 C 
BRANCH  15  16
ATOM     16  C   UNL     1       1.292   2.298  18.780  0.00  0.00    +0.000 C 
BRANCH  16  18
ATOM     17  C   UNL     1       3.730   2.170  18.175  0.00  0.00    +0.000 C 
ATOM     18  C   UNL     1       2.315   2.342  17.646  0.00  0.00    +0.000 C 
ENDBRANCH  16  18
ENDBRANCH  15  16
ENDBRANCH  14  15
ENDBRANCH  13  14
ENDBRANCH  12  13
ENDBRANCH  11  12
ENDBRANCH   1  11
TORSDOF 8
ENDMDL
MODEL 4
REMARK VINA RESULT:      -6.2      1.419      1.752
REMARK  Name = 
REMARK  9 active torsions:
REMARK  status: ('A' for Active; 'I' for Inactive)
REMARK    1  A    between atoms: C_1  and  C_2
REMARK    2  A    between atoms: C_2  and  C_3
REMARK    3  A    between atoms: C_3  and  C_4
REMARK    4  A    between atoms: C_4  and  C_5
REMARK    5  A    between atoms: C_5  and  C_6
REMARK    6  A    between atoms: C_6  and  C_7
REMARK    7  A    between atoms: C_7  and  C_8
REMARK    8  A    between atoms: C_8  and  O_9
REMARK    9  A    between atoms: O_9  and  C_10
REMARK                            x       y       z     vdW  Elec       q    Type
REMARK                         _______ _______ _______ _____ _____    ______ ____
ROOT
ATOM      1  O   UNL     1       4.365   4.536  17.367  0.00  0.00    +0.000 OA
ENDROOT
BRANCH   1   2
ATOM      2  C   UNL     1       4.210   3.838  18.522  0.00  0.00    +0.000 A 
ATOM      3  N   UNL     1       5.233   3.149  19.043  0.00  0.00    +0.000 NA
ATOM      4  O   UNL     1       4.735   2.562  20.192  0.00  0.00    +0.000 OA
ATOM      5  C   UNL     1       3.431   2.909  20.346  0.00  0.00    +0.000 A 
ATOM      6  C   UNL     1       2.605   2.499  21.390  0.00  0.00    +0.000 A 
ATOM      7  C   UNL     1       1.291   2.973  21.358  0.00  0.00    +0.000 A 
ATOM      8  C   UNL     1       0.850   3.810  20.327  0.00  0.00    +0.000 A 
ATOM      9  C   UNL     1       1.711   4.201  19.285  0.00  0.00    +0.000 A 
ATOM     10  C   UNL     1       3.037   3.733  19.304  0.00  0.00    +0.000 A 
ENDBRANCH   1   2
BRANCH   1  11
ATOM     11  C   UNL     1       5.599   5.259  17.312  0.00  0.00    +0.000 C 
BRANCH  11  12
ATOM     12  C   UNL     1       5.735   5.986  15.978  0.00  0.00    +0.000 C 
BRANCH  12  13
ATOM     13  C   UNL     1       5.326   5.061  14.830  0.00  0.00    +0.000 C 
BRANCH  13  14
ATOM     14  C   UNL     1       6.401   4.020  14.529  0.00  0.00    +0.000 C 
BRANCH  14  15
ATOM     15  C   UNL     1       6.339   3.563  13.070  0.00  0.00    +0.000 C 
BRANCH  15  16
ATOM     16  C   UNL     1       4.967   3.856  12.465  0.00  0.00    +0.000 C 
BRANCH  16  18
ATOM     17  C   UNL     1       3.354   3.289  10.620  0.00  0.00    +0.000 C 
ATOM     18  C   UNL     1       4.631   2.882  11.337  0.00  0.00    +0.000 C 
ENDBRANCH  16  18
ENDBRANCH  15  16
ENDBRANCH  14  15
ENDBRANCH  13  14
ENDBRANCH  12  13
ENDBRANCH  11  12
ENDBRANCH   1  11
TORSDOF 8
ENDMDL
MODEL 5
REMARK VINA RESULT:      -6.2      2.748      6.358
REMARK  Name = 
REMARK  9 active torsions:
REMARK  status: ('A' for Active; 'I' for Inactive)
REMARK    1  A    between atoms: C_1  and  C_2
REMARK    2  A    between atoms: C_2  and  C_3
REMARK    3  A    between atoms: C_3  and  C_4
REMARK    4  A    between atoms: C_4  and  C_5
REMARK    5  A    between atoms: C_5  and  C_6
REMARK    6  A    between atoms: C_6  and  C_7
REMARK    7  A    between atoms: C_7  and  C_8
REMARK    8  A    between atoms: C_8  and  O_9
REMARK    9  A    between atoms: O_9  and  C_10
REMARK                            x       y       z     vdW  Elec       q    Type
REMARK                         _______ _______ _______ _____ _____    ______ ____
ROOT
ATOM      1  O   UNL     1       3.267   2.747  18.119  0.00  0.00    +0.000 OA
ENDROOT
BRANCH   1   2
ATOM      2  C   UNL     1       4.442   3.426  18.205  0.00  0.00    +0.000 A 
ATOM      3  N   UNL     1       5.054   3.576  19.386  0.00  0.00    +0.000 NA
ATOM      4  O   UNL     1       6.196   4.308  19.119  0.00  0.00    +0.000 OA
ATOM      5  C   UNL     1       6.254   4.582  17.789  0.00  0.00    +0.000 A 
ATOM      6  C   UNL     1       7.264   5.304  17.158  0.00  0.00    +0.000 A 
ATOM      7  C   UNL     1       7.131   5.470  15.776  0.00  0.00    +0.000 A 
ATOM      8  C   UNL     1       6.038   4.933  15.087  0.00  0.00    +0.000 A 
ATOM      9  C   UNL     1       5.034   4.211  15.758  0.00  0.00    +0.000 A 
ATOM     10  C   UNL     1       5.155   4.035  17.148  0.00  0.00    +0.000 A 
ENDBRANCH   1   2
BRANCH   1  11
ATOM     11  C   UNL     1       2.739   2.379  19.397  0.00  0.00    +0.000 C 
BRANCH  11  12
ATOM     12  C   UNL     1       1.221   2.526  19.411  0.00  0.00    +0.000 C 
BRANCH  12  13
ATOM     13  C   UNL     1       0.820   3.780  20.189  0.00  0.00    +0.000 C 
BRANCH  13  14
ATOM     14  C   UNL     1       2.033   4.491  20.785  0.00  0.00    +0.000 C 
BRANCH  14  15
ATOM     15  C   UNL     1       2.100   5.951  20.331  0.00  0.00    +0.000 C 
BRANCH  15  16
ATOM     16  C   UNL     1       2.197   6.046  18.809  0.00  0.00    +0.000 C 
BRANCH  16  18
ATOM     17  C   UNL     1       3.840   7.394  17.465  0.00  0.00    +0.000 C 
ATOM     18  C   UNL     1       2.611   7.445  18.359  0.00  0.00    +0.000 C 
ENDBRANCH  16  18
ENDBRANCH  15  16
ENDBRANCH  14  15
ENDBRANCH  13  14
ENDBRANCH  12  13
ENDBRANCH  11  12
ENDBRANCH   1  11
TORSDOF 8
ENDMDL
MODEL 6
REMARK VINA RESULT:      -6.1      1.793      7.103
REMARK  Name = 
REMARK  9 active torsions:
REMARK  status: ('A' for Active; 'I' for Inactive)
REMARK    1  A    between atoms: C_1  and  C_2
REMARK    2  A    between atoms: C_2  and  C_3
REMARK    3  A    between atoms: C_3  and  C_4
REMARK    4  A    between atoms: C_4  and  C_5
REMARK    5  A    between atoms: C_5  and  C_6
REMARK    6  A    between atoms: C_6  and  C_7
REMARK    7  A    between atoms: C_7  and  C_8
REMARK    8  A    between atoms: C_8  and  O_9
REMARK    9  A    between atoms: O_9  and  C_10
REMARK                            x       y       z     vdW  Elec       q    Type
REMARK                         _______ _______ _______ _____ _____    ______ ____
ROOT
ATOM      1  O   UNL     1       4.520   4.405  16.502  0.00  0.00    +0.000 OA
ENDROOT
BRANCH   1   2
ATOM      2  C   UNL     1       5.597   4.750  15.749  0.00  0.00    +0.000 A 
ATOM      3  N   UNL     1       6.552   5.542  16.251  0.00  0.00    +0.000 NA
ATOM      4  O   UNL     1       7.477   5.694  15.236  0.00  0.00    +0.000 OA
ATOM      5  C   UNL     1       7.069   4.992  14.146  0.00  0.00    +0.000 A 
ATOM      6  C   UNL     1       7.750   4.917  12.934  0.00  0.00    +0.000 A 
ATOM      7  C   UNL     1       7.154   4.136  11.940  0.00  0.00    +0.000 A 
ATOM      8  C   UNL     1       5.942   3.476  12.170  0.00  0.00    +0.000 A 
ATOM      9  C   UNL     1       5.279   3.577  13.408  0.00  0.00    +0.000 A 
ATOM     10  C   UNL     1       5.867   4.359  14.418  0.00  0.00    +0.000 A 
ENDBRANCH   1   2
BRANCH   1  11
ATOM     11  C   UNL     1       4.867   4.051  17.845  0.00  0.00    +0.000 C 
BRANCH  11  12
ATOM     12  C   UNL     1       3.958   2.937  18.356  0.00  0.00    +0.000 C 
BRANCH  12  13
ATOM     13  C   UNL     1       2.711   2.829  17.476  0.00  0.00    +0.000 C 
BRANCH  13  14
ATOM     14  C   UNL     1       1.435   2.750  18.309  0.00  0.00    +0.000 C 
BRANCH  14  15
ATOM     15  C   UNL     1       1.674   2.003  19.624  0.00  0.00    +0.000 C 
BRANCH  15  16
ATOM     16  C   UNL     1       1.381   2.903  20.824  0.00  0.00    +0.000 C 
BRANCH  16  18
ATOM     17  C   UNL     1       1.916   5.359  20.759  0.00  0.00    +0.000 C 
ATOM     18  C   UNL     1       0.906   4.287  20.385  0.00  0.00    +0.000 C 
ENDBRANCH  16  18
ENDBRANCH  15  16
ENDBRANCH  14  15
ENDBRANCH  13  14
ENDBRANCH  12  13
ENDBRANCH  11  12
ENDBRANCH   1  11
TORSDOF 8
ENDMDL
MODEL 7
REMARK VINA RESULT:      -6.0      1.644      2.250
REMARK  Name = 
REMARK  9 active torsions:
REMARK  status: ('A' for Active; 'I' for Inactive)
REMARK    1  A    between atoms: C_1  and  C_2
REMARK    2  A    between atoms: C_2  and  C_3
REMARK    3  A    between atoms: C_3  and  C_4
REMARK    4  A    between atoms: C_4  and  C_5
REMARK    5  A    between atoms: C_5  and  C_6
REMARK    6  A    between atoms: C_6  and  C_7
REMARK    7  A    between atoms: C_7  and  C_8
REMARK    8  A    between atoms: C_8  and  O_9
REMARK    9  A    between atoms: O_9  and  C_10
REMARK                            x       y       z     vdW  Elec       q    Type
REMARK                         _______ _______ _______ _____ _____    ______ ____
ROOT
ATOM      1  O   UNL     1       5.565   5.141  18.227  0.00  0.00    +0.000 OA
ENDROOT
BRANCH   1   2
ATOM      2  C   UNL     1       4.795   4.177  18.796  0.00  0.00    +0.000 A 
ATOM      3  N   UNL     1       5.320   3.328  19.688  0.00  0.00    +0.000 NA
ATOM      4  O   UNL     1       4.283   2.489  20.053  0.00  0.00    +0.000 OA
ATOM      5  C   UNL     1       3.157   2.847  19.383  0.00  0.00    +0.000 A 
ATOM      6  C   UNL     1       1.918   2.223  19.497  0.00  0.00    +0.000 A 
ATOM      7  C   UNL     1       0.887   2.753  18.715  0.00  0.00    +0.000 A 
ATOM      8  C   UNL     1       1.110   3.848  17.874  0.00  0.00    +0.000 A 
ATOM      9  C   UNL     1       2.377   4.453  17.781  0.00  0.00    +0.000 A 
ATOM     10  C   UNL     1       3.423   3.931  18.562  0.00  0.00    +0.000 A 
ENDBRANCH   1   2
BRANCH   1  11
ATOM     11  C   UNL     1       6.788   4.633  17.685  0.00  0.00    +0.000 C 
BRANCH  11  12
ATOM     12  C   UNL     1       7.039   5.209  16.296  0.00  0.00    +0.000 C 
BRANCH  12  13
ATOM     13  C   UNL     1       5.730   5.264  15.504  0.00  0.00    +0.000 C 
BRANCH  13  14
ATOM     14  C   UNL     1       5.753   4.320  14.305  0.00  0.00    +0.000 C 
BRANCH  14  15
ATOM     15  C   UNL     1       6.882   4.679  13.336  0.00  0.00    +0.000 C 
BRANCH  15  16
ATOM     16  C   UNL     1       6.948   3.680  12.181  0.00  0.00    +0.000 C 
BRANCH  16  18
ATOM     17  C   UNL     1       5.789   1.614  11.337  0.00  0.00    +0.000 C 
ATOM     18  C   UNL     1       5.604   2.989  11.959  0.00  0.00    +0.000 C 
ENDBRANCH  16  18
ENDBRANCH  15  16
ENDBRANCH  14  15
ENDBRANCH  13  14
ENDBRANCH  12  13
ENDBRANCH  11  12
ENDBRANCH   1  11
TORSDOF 8
ENDMDL
MODEL 8
REMARK VINA RESULT:      -6.0      2.627      6.251
REMARK  Name = 
REMARK  9 active torsions:
REMARK  status: ('A' for Active; 'I' for Inactive)
REMARK    1  A    between atoms: C_1  and  C_2
REMARK    2  A    between atoms: C_2  and  C_3
REMARK    3  A    between atoms: C_3  and  C_4
REMARK    4  A    between atoms: C_4  and  C_5
REMARK    5  A    between atoms: C_5  and  C_6
REMARK    6  A    between atoms: C_6  and  C_7
REMARK    7  A    between atoms: C_7  and  C_8
REMARK    8  A    between atoms: C_8  and  O_9
REMARK    9  A    between atoms: O_9  and  C_10
REMARK                            x       y       z     vdW  Elec       q    Type
REMARK                         _______ _______ _______ _____ _____    ______ ____
ROOT
ATOM      1  O   UNL     1       5.017   5.935  19.684  0.00  0.00    +0.000 OA
ENDROOT
BRANCH   1   2
ATOM      2  C   UNL     1       5.913   5.418  18.803  0.00  0.00    +0.000 A 
ATOM      3  N   UNL     1       7.042   4.846  19.239  0.00  0.00    +0.000 NA
ATOM      4  O   UNL     1       7.714   4.443  18.101  0.00  0.00    +0.000 OA
ATOM      5  C   UNL     1       6.982   4.772  17.005  0.00  0.00    +0.000 A 
ATOM      6  C   UNL     1       7.349   4.522  15.684  0.00  0.00    +0.000 A 
ATOM      7  C   UNL     1       6.446   4.944  14.704  0.00  0.00    +0.000 A 
ATOM      8  C   UNL     1       5.248   5.579  15.051  0.00  0.00    +0.000 A 
ATOM      9  C   UNL     1       4.911   5.817  16.396  0.00  0.00    +0.000 A 
ATOM     10  C   UNL     1       5.809   5.398  17.393  0.00  0.00    +0.000 A 
ENDBRANCH   1   2
BRANCH   1  11
ATOM     11  C   UNL     1       3.869   5.101  19.869  0.00  0.00    +0.000 C 
BRANCH  11  12
ATOM     12  C   UNL     1       2.587   5.908  19.691  0.00  0.00    +0.000 C 
BRANCH  12  13
ATOM     13  C   UNL     1       1.485   5.353  20.597  0.00  0.00    +0.000 C 
BRANCH  13  14
ATOM     14  C   UNL     1       1.549   3.831  20.701  0.00  0.00    +0.000 C 
BRANCH  14  15
ATOM     15  C   UNL     1       0.971   3.164  19.450  0.00  0.00    +0.000 C 
BRANCH  15  16
ATOM     16  C   UNL     1       1.714   1.867  19.131  0.00  0.00    +0.000 C 
BRANCH  16  18
ATOM     17  C   UNL     1       2.401   3.250  17.146  0.00  0.00    +0.000 C 
ATOM     18  C   UNL     1       2.762   2.075  18.040  0.00  0.00    +0.000 C 
ENDBRANCH  16  18
ENDBRANCH  15  16
ENDBRANCH  14  15
ENDBRANCH  13  14
ENDBRANCH  12  13
ENDBRANCH  11  12
ENDBRANCH   1  11
TORSDOF 8
ENDMDL
MODEL 9
REMARK VINA RESULT:      -6.0      1.577      2.346
REMARK  Name = 
REMARK  9 active torsions:
REMARK  status: ('A' for Active; 'I' for Inactive)
REMARK    1  A    between atoms: C_1  and  C_2
REMARK    2  A    between atoms: C_2  and  C_3
REMARK    3  A    between atoms: C_3  and  C_4
REMARK    4  A    between atoms: C_4  and  C_5
REMARK    5  A    between atoms: C_5  and  C_6
REMARK    6  A    between atoms: C_6  and  C_7
REMARK    7  A    between atoms: C_7  and  C_8
REMARK    8  A    between atoms: C_8  and  O_9
REMARK    9  A    between atoms: O_9  and  C_10
REMARK                            x       y       z     vdW  Elec       q    Type
REMARK                         _______ _______ _______ _____ _____    ______ ____
ROOT
ATOM      1  O   UNL     1       4.730   3.726  16.945  0.00  0.00    +0.000 OA
ENDROOT
BRANCH   1   2
ATOM      2  C   UNL     1       3.847   3.158  17.809  0.00  0.00    +0.000 A 
ATOM      3  N   UNL     1       3.678   1.831  17.834  0.00  0.00    +0.000 NA
ATOM      4  O   UNL     1       2.720   1.599  18.803  0.00  0.00    +0.000 OA
ATOM      5  C   UNL     1       2.333   2.782  19.346  0.00  0.00    +0.000 A 
ATOM      6  C   UNL     1       1.381   2.936  20.350  0.00  0.00    +0.000 A 
ATOM      7  C   UNL     1       1.131   4.247  20.767  0.00  0.00    +0.000 A 
ATOM      8  C   UNL     1       1.810   5.328  20.194  0.00  0.00    +0.000 A 
ATOM      9  C   UNL     1       2.765   5.136  19.179  0.00  0.00    +0.000 A 
ATOM     10  C   UNL     1       3.027   3.823  18.750  0.00  0.00    +0.000 A 
ENDBRANCH   1   2
BRANCH   1  11
ATOM     11  C   UNL     1       5.837   4.346  17.605  0.00  0.00    +0.000 C 
BRANCH  11  12
ATOM     12  C   UNL     1       6.225   5.641  16.899  0.00  0.00    +0.000 C 
BRANCH  12  13
ATOM     13  C   UNL     1       5.636   5.667  15.487  0.00  0.00    +0.000 C 
BRANCH  13  14
ATOM     14  C   UNL     1       6.462   4.833  14.512  0.00  0.00    +0.000 C 
BRANCH  14  15
ATOM     15  C   UNL     1       5.566   3.969  13.621  0.00  0.00    +0.000 C 
BRANCH  15  16
ATOM     16  C   UNL     1       6.324   3.492  12.383  0.00  0.00    +0.000 C 
BRANCH  16  18
ATOM     17  C   UNL     1       4.116   3.119  11.239  0.00  0.00    +0.000 C 
ATOM     18  C   UNL     1       5.483   2.530  11.546  0.00  0.00    +0.000 C 
ENDBRANCH  16  18
ENDBRANCH  15  16
ENDBRANCH  14  15
ENDBRANCH  13  14
ENDBRANCH  12  13
ENDBRANCH  11  12
ENDBRANCH   1  11
TORSDOF 8
ENDMDL
