MODEL 1
REMARK VINA RESULT:      -6.1      0.000      0.000
REMARK  Name = 
REMARK  7 active torsions:
REMARK  status: ('A' for Active; 'I' for Inactive)
REMARK    1  A    between atoms: C_1  and  O_2
REMARK    2  A    between atoms: O_2  and  C_3
REMARK    3  A    between atoms: C_3  and  C_4
REMARK    4  A    between atoms: C_4  and  N_5
REMARK    5  A    between atoms: N_9  and  C_10
REMARK    6  A    between atoms: C_10  and  C_11
REMARK    7  A    between atoms: C_15  and  C_16
REMARK                            x       y       z     vdW  Elec       q    Type
REMARK                         _______ _______ _______ _____ _____    ______ ____
ROOT
ATOM      1  N   UNL     1       6.613   4.801  16.242  0.00  0.00    +0.000 N 
ATOM      2  C   UNL     1       7.347   4.630  17.379  0.00  0.00    +0.000 A 
ATOM      3  C   UNL     1       6.528   5.045  18.406  0.00  0.00    +0.000 A 
ATOM      4  C   UNL     1       5.312   5.418  17.791  0.00  0.00    +0.000 A 
ATOM      5  N   UNL     1       4.270   5.922  18.475  0.00  0.00    +0.000 N 
ATOM      6  N   UNL     1       5.355   5.213  16.475  0.00  0.00    +0.000 NA
ATOM      7  H   UNL     1       4.325   6.008  19.485  0.00  0.00    +0.000 HD
ENDROOT
BRANCH   1   8
ATOM      8  C   UNL     1       7.076   4.652  14.878  0.00  0.00    +0.000 C 
BRANCH   8   9
ATOM      9  C   UNL     1       5.995   4.035  13.991  0.00  0.00    +0.000 C 
BRANCH   9  11
ATOM     10  C   UNL     1       5.702   2.899  11.951  0.00  0.00    +0.000 C 
ATOM     11  O   UNL     1       6.533   3.789  12.688  0.00  0.00    +0.000 OA
ENDBRANCH   9  11
ENDBRANCH   8   9
ENDBRANCH   1   8
BRANCH   5  12
ATOM     12  C   UNL     1       2.919   5.679  17.993  0.00  0.00    +0.000 C 
BRANCH  12  13
ATOM     13  C   UNL     1       2.285   4.459  18.614  0.00  0.00    +0.000 A 
ATOM     14  S   UNL     1       2.279   2.974  17.754  0.00  0.00    +0.000 S 
ATOM     15  C   UNL     1       1.462   2.170  19.017  0.00  0.00    +0.000 A 
ATOM     16  C   UNL     1       1.206   3.006  20.079  0.00  0.00    +0.000 A 
ATOM     17  C   UNL     1       1.681   4.341  19.858  0.00  0.00    +0.000 A 
ATOM     18  C   UNL     1       1.542   5.456  20.841  0.00  0.00    +0.000 C 
ENDBRANCH  12  13
ENDBRANCH   5  12
TORSDOF 5
ENDMDL
MODEL 2
REMARK VINA RESULT:      -6.1      1.075      1.578
REMARK  Name = 
REMARK  7 active torsions:
REMARK  status: ('A' for Active; 'I' for Inactive)
REMARK    1  A    between atoms: C_1  and  O_2
REMARK    2  A    between atoms: O_2  and  C_3
REMARK    3  A    between atoms: C_3  and  C_4
REMARK    4  A    between atoms: C_4  and  N_5
REMARK    5  A    between atoms: N_9  and  C_10
REMARK    6  A    between atoms: C_10  and  C_11
REMARK    7  A    between atoms: C_15  and  C_16
REMARK                            x       y       z     vdW  Elec       q    Type
REMARK                         _______ _______ _______ _____ _____    ______ ____
ROOT
ATOM      1  N   UNL     1       6.610   4.829  16.396  0.00  0.00    +0.000 N 
ATOM      2  C   UNL     1       7.391   4.740  17.512  0.00  0.00    +0.000 A 
ATOM      3  C   UNL     1       6.582   5.135  18.554  0.00  0.00    +0.000 A 
ATOM      4  C   UNL     1       5.324   5.413  17.972  0.00  0.00    +0.000 A 
ATOM      5  N   UNL     1       4.275   5.871  18.676  0.00  0.00    +0.000 N 
ATOM      6  N   UNL     1       5.337   5.169  16.661  0.00  0.00    +0.000 NA
ATOM      7  H   UNL     1       4.358   5.992  19.681  0.00  0.00    +0.000 HD
ENDROOT
BRANCH   1   8
ATOM      8  C   UNL     1       7.037   4.668  15.022  0.00  0.00    +0.000 C 
BRANCH   8   9
ATOM      9  C   UNL     1       6.040   3.824  14.229  0.00  0.00    +0.000 C 
BRANCH   9  11
ATOM     10  C   UNL     1       5.454   3.196  12.038  0.00  0.00    +0.000 C 
ATOM     11  O   UNL     1       6.483   3.715  12.872  0.00  0.00    +0.000 OA
ENDBRANCH   9  11
ENDBRANCH   8   9
ENDBRANCH   1   8
BRANCH   5  12
ATOM     12  C   UNL     1       2.928   5.529  18.248  0.00  0.00    +0.000 C 
BRANCH  12  13
ATOM     13  C   UNL     1       2.318   4.415  19.063  0.00  0.00    +0.000 A 
ATOM     14  S   UNL     1       1.644   4.760  20.602  0.00  0.00    +0.000 S 
ATOM     15  C   UNL     1       1.203   3.131  20.848  0.00  0.00    +0.000 A 
ATOM     16  C   UNL     1       1.549   2.338  19.779  0.00  0.00    +0.000 A 
ATOM     17  C   UNL     1       2.197   3.073  18.732  0.00  0.00    +0.000 A 
ATOM     18  C   UNL     1       2.679   2.469  17.454  0.00  0.00    +0.000 C 
ENDBRANCH  12  13
ENDBRANCH   5  12
TORSDOF 5
ENDMDL
MODEL 3
REMARK VINA RESULT:      -6.1      1.617      1.983
REMARK  Name = 
REMARK  7 active torsions:
REMARK  status: ('A' for Active; 'I' for Inactive)
REMARK    1  A    between atoms: C_1  and  O_2
REMARK    2  A    between atoms: O_2  and  C_3
REMARK    3  A    between atoms: C_3  and  C_4
REMARK    4  A    between atoms: C_4  and  N_5
REMARK    5  A    between atoms: N_9  and  C_10
REMARK    6  A    between atoms: C_10  and  C_11
REMARK    7  A    between atoms: C_15  and  C_16
REMARK                            x       y       z     vdW  Elec       q    Type
REMARK                         _______ _______ _______ _____ _____    ______ ____
ROOT
ATOM      1  N   UNL     1       6.254   5.420  16.456  0.00  0.00    +0.000 N 
ATOM      2  C   UNL     1       7.255   5.975  17.198  0.00  0.00    +0.000 A 
ATOM      3  C   UNL     1       7.011   5.576  18.494  0.00  0.00    +0.000 A 
ATOM      4  C   UNL     1       5.859   4.760  18.427  0.00  0.00    +0.000 A 
ATOM      5  N   UNL     1       5.283   4.214  19.512  0.00  0.00    +0.000 N 
ATOM      6  N   UNL     1       5.437   4.626  17.169  0.00  0.00    +0.000 NA
ATOM      7  H   UNL     1       5.704   4.348  20.426  0.00  0.00    +0.000 HD
ENDROOT
BRANCH   1   8
ATOM      8  C   UNL     1       5.973   5.663  15.057  0.00  0.00    +0.000 C 
BRANCH   8   9
ATOM      9  C   UNL     1       6.855   4.797  14.158  0.00  0.00    +0.000 C 
BRANCH   9  11
ATOM     10  C   UNL     1       6.169   3.400  12.392  0.00  0.00    +0.000 C 
ATOM     11  O   UNL     1       6.144   3.607  13.800  0.00  0.00    +0.000 OA
ENDBRANCH   9  11
ENDBRANCH   8   9
ENDBRANCH   1   8
BRANCH   5  12
ATOM     12  C   UNL     1       4.585   2.944  19.382  0.00  0.00    +0.000 C 
BRANCH  12  13
ATOM     13  C   UNL     1       3.139   3.023  19.805  0.00  0.00    +0.000 A 
ATOM     14  S   UNL     1       2.708   2.670  21.427  0.00  0.00    +0.000 S 
ATOM     15  C   UNL     1       1.056   2.964  21.122  0.00  0.00    +0.000 A 
ATOM     16  C   UNL     1       0.832   3.334  19.816  0.00  0.00    +0.000 A 
ATOM     17  C   UNL     1       2.036   3.375  19.039  0.00  0.00    +0.000 A 
ATOM     18  C   UNL     1       2.093   3.746  17.594  0.00  0.00    +0.000 C 
ENDBRANCH  12  13
ENDBRANCH   5  12
TORSDOF 5
ENDMDL
MODEL 4
REMARK VINA RESULT:      -5.9      2.430      3.590
REMARK  Name = 
REMARK  7 active torsions:
REMARK  status: ('A' for Active; 'I' for Inactive)
REMARK    1  A    between atoms: C_1  and  O_2
REMARK    2  A    between atoms: O_2  and  C_3
REMARK    3  A    between atoms: C_3  and  C_4
REMARK    4  A    between atoms: C_4  and  N_5
REMARK    5  A    between atoms: N_9  and  C_10
REMARK    6  A    between atoms: C_10  and  C_11
REMARK    7  A    between atoms: C_15  and  C_16
REMARK                            x       y       z     vdW  Elec       q    Type
REMARK                         _______ _______ _______ _____ _____    ______ ____
ROOT
ATOM      1  N   UNL     1       6.470   4.514  17.083  0.00  0.00    +0.000 N 
ATOM      2  C   UNL     1       6.400   4.070  15.795  0.00  0.00    +0.000 A 
ATOM      3  C   UNL     1       5.074   3.757  15.590  0.00  0.00    +0.000 A 
ATOM      4  C   UNL     1       4.420   4.075  16.801  0.00  0.00    +0.000 A 
ATOM      5  N   UNL     1       3.107   3.864  17.002  0.00  0.00    +0.000 N 
ATOM      6  N   UNL     1       5.272   4.588  17.688  0.00  0.00    +0.000 NA
ATOM      7  H   UNL     1       2.535   3.498  16.247  0.00  0.00    +0.000 HD
ENDROOT
BRANCH   1   8
ATOM      8  C   UNL     1       7.670   4.823  17.831  0.00  0.00    +0.000 C 
BRANCH   8   9
ATOM      9  C   UNL     1       7.388   5.845  18.932  0.00  0.00    +0.000 C 
BRANCH   9  11
ATOM     10  C   UNL     1       7.704   7.725  17.552  0.00  0.00    +0.000 C 
ATOM     11  O   UNL     1       8.168   7.022  18.699  0.00  0.00    +0.000 OA
ENDBRANCH   9  11
ENDBRANCH   8   9
ENDBRANCH   1   8
BRANCH   5  12
ATOM     12  C   UNL     1       2.377   4.742  17.903  0.00  0.00    +0.000 C 
BRANCH  12  13
ATOM     13  C   UNL     1       2.131   4.121  19.257  0.00  0.00    +0.000 A 
ATOM     14  S   UNL     1       2.849   4.816  20.652  0.00  0.00    +0.000 S 
ATOM     15  C   UNL     1       2.148   3.646  21.676  0.00  0.00    +0.000 A 
ATOM     16  C   UNL     1       1.373   2.749  20.978  0.00  0.00    +0.000 A 
ATOM     17  C   UNL     1       1.353   3.015  19.569  0.00  0.00    +0.000 A 
ATOM     18  C   UNL     1       0.594   2.205  18.571  0.00  0.00    +0.000 C 
ENDBRANCH  12  13
ENDBRANCH   5  12
TORSDOF 5
ENDMDL
MODEL 5
REMARK VINA RESULT:      -5.9      1.318      1.380
REMARK  Name = 
REMARK  7 active torsions:
REMARK  status: ('A' for Active; 'I' for Inactive)
REMARK    1  A    between atoms: C_1  and  O_2
REMARK    2  A    between atoms: O_2  and  C_3
REMARK    3  A    between atoms: C_3  and  C_4
REMARK    4  A    between atoms: C_4  and  N_5
REMARK    5  A    between atoms: N_9  and  C_10
REMARK    6  A    between atoms: C_10  and  C_11
REMARK    7  A    between atoms: C_15  and  C_16
REMARK                            x       y       z     vdW  Elec       q    Type
REMARK                         _______ _______ _______ _____ _____    ______ ____
ROOT
ATOM      1  N   UNL     1       6.701   5.093  16.336  0.00  0.00    +0.000 N 
ATOM      2  C   UNL     1       7.235   6.150  17.013  0.00  0.00    +0.000 A 
ATOM      3  C   UNL     1       6.625   6.137  18.247  0.00  0.00    +0.000 A 
ATOM      4  C   UNL     1       5.763   5.017  18.231  0.00  0.00    +0.000 A 
ATOM      5  N   UNL     1       4.957   4.697  19.258  0.00  0.00    +0.000 N 
ATOM      6  N   UNL     1       5.859   4.354  17.078  0.00  0.00    +0.000 NA
ATOM      7  H   UNL     1       4.984   5.250  20.109  0.00  0.00    +0.000 HD
ENDROOT
BRANCH   1   8
ATOM      8  C   UNL     1       6.901   4.765  14.940  0.00  0.00    +0.000 C 
BRANCH   8   9
ATOM      9  C   UNL     1       5.930   3.676  14.483  0.00  0.00    +0.000 C 
BRANCH   9  11
ATOM     10  C   UNL     1       6.761   3.649  12.281  0.00  0.00    +0.000 C 
ATOM     11  O   UNL     1       5.618   3.869  13.100  0.00  0.00    +0.000 OA
ENDBRANCH   9  11
ENDBRANCH   8   9
ENDBRANCH   1   8
BRANCH   5  12
ATOM     12  C   UNL     1       4.622   3.301  19.489  0.00  0.00    +0.000 C 
BRANCH  12  13
ATOM     13  C   UNL     1       3.142   3.026  19.379  0.00  0.00    +0.000 A 
ATOM     14  S   UNL     1       2.518   2.300  17.955  0.00  0.00    +0.000 S 
ATOM     15  C   UNL     1       0.925   2.322  18.563  0.00  0.00    +0.000 A 
ATOM     16  C   UNL     1       0.864   2.859  19.829  0.00  0.00    +0.000 A 
ATOM     17  C   UNL     1       2.148   3.272  20.316  0.00  0.00    +0.000 A 
ATOM     18  C   UNL     1       2.382   3.885  21.657  0.00  0.00    +0.000 C 
ENDBRANCH  12  13
ENDBRANCH   5  12
TORSDOF 5
ENDMDL
MODEL 6
REMARK VINA RESULT:      -5.8      1.139      1.241
REMARK  Name = 
REMARK  7 active torsions:
REMARK  status: ('A' for Active; 'I' for Inactive)
REMARK    1  A    between atoms: C_1  and  O_2
REMARK    2  A    between atoms: O_2  and  C_3
REMARK    3  A    between atoms: C_3  and  C_4
REMARK    4  A    between atoms: C_4  and  N_5
REMARK    5  A    between atoms: N_9  and  C_10
REMARK    6  A    between atoms: C_10  and  C_11
REMARK    7  A    between atoms: C_15  and  C_16
REMARK                            x       y       z     vdW  Elec       q    Type
REMARK                         _______ _______ _______ _____ _____    ______ ____
ROOT
ATOM      1  N   UNL     1       5.638   5.291  16.670  0.00  0.00    +0.000 N 
ATOM      2  C   UNL     1       6.577   4.668  17.438  0.00  0.00    +0.000 A 
ATOM      3  C   UNL     1       6.107   4.756  18.729  0.00  0.00    +0.000 A 
ATOM      4  C   UNL     1       4.864   5.421  18.634  0.00  0.00    +0.000 A 
ATOM      5  N   UNL     1       4.115   5.733  19.707  0.00  0.00    +0.000 N 
ATOM      6  N   UNL     1       4.561   5.695  17.365  0.00  0.00    +0.000 NA
ATOM      7  H   UNL     1       4.420   5.449  20.633  0.00  0.00    +0.000 HD
ENDROOT
BRANCH   1   8
ATOM      8  C   UNL     1       5.735   5.600  15.259  0.00  0.00    +0.000 C 
BRANCH   8   9
ATOM      9  C   UNL     1       6.836   4.780  14.588  0.00  0.00    +0.000 C 
BRANCH   9  11
ATOM     10  C   UNL     1       6.281   3.620  12.616  0.00  0.00    +0.000 C 
ATOM     11  O   UNL     1       6.271   3.585  14.039  0.00  0.00    +0.000 OA
ENDBRANCH   9  11
ENDBRANCH   8   9
ENDBRANCH   1   8
BRANCH   5  12
ATOM     12  C   UNL     1       2.668   5.788  19.570  0.00  0.00    +0.000 C 
BRANCH  12  13
ATOM     13  C   UNL     1       2.038   4.423  19.437  0.00  0.00    +0.000 A 
ATOM     14  S   UNL     1       1.460   3.901  17.909  0.00  0.00    +0.000 S 
ATOM     15  C   UNL     1       0.951   2.401  18.540  0.00  0.00    +0.000 A 
ATOM     16  C   UNL     1       1.223   2.289  19.884  0.00  0.00    +0.000 A 
ATOM     17  C   UNL     1       1.858   3.458  20.418  0.00  0.00    +0.000 A 
ATOM     18  C   UNL     1       2.269   3.615  21.845  0.00  0.00    +0.000 C 
ENDBRANCH  12  13
ENDBRANCH   5  12
TORSDOF 5
ENDMDL
MODEL 7
REMARK VINA RESULT:      -5.8      1.535      2.066
REMARK  Name = 
REMARK  7 active torsions:
REMARK  status: ('A' for Active; 'I' for Inactive)
REMARK    1  A    between atoms: C_1  and  O_2
REMARK    2  A    between atoms: O_2  and  C_3
REMARK    3  A    between atoms: C_3  and  C_4
REMARK    4  A    between atoms: C_4  and  N_5
REMARK    5  A    between atoms: N_9  and  C_10
REMARK    6  A    between atoms: C_10  and  C_11
REMARK    7  A    between atoms: C_15  and  C_16
REMARK                            x       y       z     vdW  Elec       q    Type
REMARK                         _______ _______ _______ _____ _____    ______ ____
ROOT
ATOM      1  N   UNL     1       6.002   5.065  16.487  0.00  0.00    +0.000 N 
ATOM      2  C   UNL     1       6.258   6.231  17.148  0.00  0.00    +0.000 A 
ATOM      3  C   UNL     1       5.049   6.618  17.684  0.00  0.00    +0.000 A 
ATOM      4  C   UNL     1       4.133   5.607  17.316  0.00  0.00    +0.000 A 
ATOM      5  N   UNL     1       2.825   5.656  17.624  0.00  0.00    +0.000 N 
ATOM      6  N   UNL     1       4.737   4.635  16.632  0.00  0.00    +0.000 NA
ATOM      7  H   UNL     1       2.468   6.427  18.181  0.00  0.00    +0.000 HD
ENDROOT
BRANCH   1   8
ATOM      8  C   UNL     1       6.911   4.335  15.629  0.00  0.00    +0.000 C 
BRANCH   8   9
ATOM      9  C   UNL     1       6.708   4.710  14.161  0.00  0.00    +0.000 C 
BRANCH   9  11
ATOM     10  C   UNL     1       6.390   3.432  12.211  0.00  0.00    +0.000 C 
ATOM     11  O   UNL     1       5.910   3.709  13.522  0.00  0.00    +0.000 OA
ENDBRANCH   9  11
ENDBRANCH   8   9
ENDBRANCH   1   8
BRANCH   5  12
ATOM     12  C   UNL     1       2.096   4.414  17.829  0.00  0.00    +0.000 C 
BRANCH  12  13
ATOM     13  C   UNL     1       2.252   3.865  19.226  0.00  0.00    +0.000 A 
ATOM     14  S   UNL     1       1.590   4.724  20.554  0.00  0.00    +0.000 S 
ATOM     15  C   UNL     1       2.138   3.555  21.668  0.00  0.00    +0.000 A 
ATOM     16  C   UNL     1       2.803   2.523  21.047  0.00  0.00    +0.000 A 
ATOM     17  C   UNL     1       2.875   2.690  19.624  0.00  0.00    +0.000 A 
ATOM     18  C   UNL     1       3.535   1.725  18.697  0.00  0.00    +0.000 C 
ENDBRANCH  12  13
ENDBRANCH   5  12
TORSDOF 5
ENDMDL
MODEL 8
REMARK VINA RESULT:      -5.7      1.656      2.200
REMARK  Name = 
REMARK  7 active torsions:
REMARK  status: ('A' for Active; 'I' for Inactive)
REMARK    1  A    between atoms: C_1  and  O_2
REMARK    2  A    between atoms: O_2  and  C_3
REMARK    3  A    between atoms: C_3  and  C_4
REMARK    4  A    between atoms: C_4  and  N_5
REMARK    5  A    between atoms: N_9  and  C_10
REMARK    6  A    between atoms: C_10  and  C_11
REMARK    7  A    between atoms: C_15  and  C_16
REMARK                            x       y       z     vdW  Elec       q    Type
REMARK                         _______ _______ _______ _____ _____    ______ ____
ROOT
ATOM      1  N   UNL     1       5.915   4.199  15.214  0.00  0.00    +0.000 N 
ATOM      2  C   UNL     1       7.220   4.502  15.468  0.00  0.00    +0.000 A 
ATOM      3  C   UNL     1       7.293   4.680  16.832  0.00  0.00    +0.000 A 
ATOM      4  C   UNL     1       5.988   4.432  17.315  0.00  0.00    +0.000 A 
ATOM      5  N   UNL     1       5.651   4.550  18.611  0.00  0.00    +0.000 N 
ATOM      6  N   UNL     1       5.166   4.084  16.324  0.00  0.00    +0.000 NA
ATOM      7  H   UNL     1       6.362   4.788  19.296  0.00  0.00    +0.000 HD
ENDROOT
BRANCH   1   8
ATOM      8  C   UNL     1       5.291   4.069  13.914  0.00  0.00    +0.000 C 
BRANCH   8   9
ATOM      9  C   UNL     1       6.304   3.637  12.855  0.00  0.00    +0.000 C 
BRANCH   9  11
ATOM     10  C   UNL     1       4.396   3.214  11.543  0.00  0.00    +0.000 C 
ATOM     11  O   UNL     1       5.676   2.734  11.938  0.00  0.00    +0.000 OA
ENDBRANCH   9  11
ENDBRANCH   8   9
ENDBRANCH   1   8
BRANCH   5  12
ATOM     12  C   UNL     1       4.593   3.709  19.150  0.00  0.00    +0.000 C 
BRANCH  12  13
ATOM     13  C   UNL     1       3.435   4.504  19.702  0.00  0.00    +0.000 A 
ATOM     14  S   UNL     1       3.156   6.100  19.139  0.00  0.00    +0.000 S 
ATOM     15  C   UNL     1       1.796   6.290  20.149  0.00  0.00    +0.000 A 
ATOM     16  C   UNL     1       1.547   5.161  20.895  0.00  0.00    +0.000 A 
ATOM     17  C   UNL     1       2.493   4.113  20.643  0.00  0.00    +0.000 A 
ATOM     18  C   UNL     1       2.465   2.777  21.308  0.00  0.00    +0.000 C 
ENDBRANCH  12  13
ENDBRANCH   5  12
TORSDOF 5
ENDMDL
MODEL 9
REMARK VINA RESULT:      -5.7      5.202      7.577
REMARK  Name = 
REMARK  7 active torsions:
REMARK  status: ('A' for Active; 'I' for Inactive)
REMARK    1  A    between atoms: C_1  and  O_2
REMARK    2  A    between atoms: O_2  and  C_3
REMARK    3  A    between atoms: C_3  and  C_4
REMARK    4  A    between atoms: C_4  and  N_5
REMARK    5  A    between atoms: N_9  and  C_10
REMARK    6  A    between atoms: C_10  and  C_11
REMARK    7  A    between atoms: C_15  and  C_16
REMARK                            x       y       z     vdW  Elec       q    Type
REMARK                         _______ _______ _______ _____ _____    ______ ____
ROOT
ATOM      1  N   UNL     1       0.990   9.505  20.296  0.00  0.00    +0.000 N 
ATOM      2  C   UNL     1       1.185   9.763  18.971  0.00  0.00    +0.000 A 
ATOM      3  C   UNL     1       1.851   8.661  18.480  0.00  0.00    +0.000 A 
ATOM      4  C   UNL     1       1.985   7.782  19.578  0.00  0.00    +0.000 A 
ATOM      5  N   UNL     1       2.629   6.604  19.500  0.00  0.00    +0.000 N 
ATOM      6  N   UNL     1       1.406   8.283  20.670  0.00  0.00    +0.000 NA
ATOM      7  H   UNL     1       3.007   6.296  18.609  0.00  0.00    +0.000 HD
ENDROOT
BRANCH   1   8
ATOM      8  C   UNL     1       0.467  10.417  21.291  0.00  0.00    +0.000 C 
BRANCH   8   9
ATOM      9  C   UNL     1      -0.047   9.664  22.517  0.00  0.00    +0.000 C 
BRANCH   9  11
ATOM     10  C   UNL     1      -1.083  11.763  22.768  0.00  0.00    +0.000 C 
ATOM     11  O   UNL     1      -0.623  10.595  23.440  0.00  0.00    +0.000 OA
ENDBRANCH   9  11
ENDBRANCH   8   9
ENDBRANCH   1   8
BRANCH   5  12
ATOM     12  C   UNL     1       2.206   5.505  20.354  0.00  0.00    +0.000 C 
BRANCH  12  13
ATOM     13  C   UNL     1       2.141   4.185  19.625  0.00  0.00    +0.000 A 
ATOM     14  S   UNL     1       2.472   4.128  17.943  0.00  0.00    +0.000 S 
ATOM     15  C   UNL     1       2.217   2.443  17.883  0.00  0.00    +0.000 A 
ATOM     16  C   UNL     1       1.897   1.927  19.118  0.00  0.00    +0.000 A 
ATOM     17  C   UNL     1       1.851   2.930  20.141  0.00  0.00    +0.000 A 
ATOM     18  C   UNL     1       1.532   2.656  21.574  0.00  0.00    +0.000 C 
ENDBRANCH  12  13
ENDBRANCH   5  12
TORSDOF 5
ENDMDL
