MODEL 1
REMARK VINA RESULT:      -9.0      0.000      0.000
REMARK  Name = 
REMARK  8 active torsions:
REMARK  status: ('A' for Active; 'I' for Inactive)
REMARK    1  A    between atoms: C_1  and  C_2
REMARK    2  A    between atoms: C_2  and  N_3
REMARK    3  A    between atoms: C_2  and  C_30
REMARK    4  A    between atoms: C_4  and  C_6
REMARK    5  A    between atoms: C_6  and  C_7
REMARK    6  A    between atoms: C_6  and  N_17
REMARK    7  A    between atoms: C_7  and  C_8
REMARK    8  A    between atoms: C_18  and  C_20
REMARK                            x       y       z     vdW  Elec       q    Type
REMARK                         _______ _______ _______ _____ _____    ______ ____
ROOT
ATOM      1  C   UNL     1       6.391   6.480  16.927  0.00  0.00    +0.000 C 
ENDROOT
BRANCH   1   3
ATOM      2  N   UNL     1       6.929   5.590  14.717  0.00  0.00    +0.000 N 
ATOM      3  C   UNL     1       7.131   5.430  16.075  0.00  0.00    +0.000 C 
ATOM      4  O   UNL     1       7.808   4.523  16.553  0.00  0.00    +0.000 OA
ATOM      5  H   UNL     1       6.139   6.167  14.432  0.00  0.00    +0.000 HD
BRANCH   2   7
ATOM      6  C   UNL     1       8.467   5.646  12.786  0.00  0.00    +0.000 C 
ATOM      7  C   UNL     1       7.604   4.780  13.716  0.00  0.00    +0.000 C 
BRANCH   7   8
ATOM      8  C   UNL     1       6.592   3.979  12.915  0.00  0.00    +0.000 A 
ATOM      9  C   UNL     1       5.218   4.196  13.092  0.00  0.00    +0.000 A 
ATOM     10  C   UNL     1       4.282   3.457  12.362  0.00  0.00    +0.000 A 
ATOM     11  C   UNL     1       4.708   2.498  11.445  0.00  0.00    +0.000 A 
ATOM     12  C   UNL     1       6.068   2.275  11.256  0.00  0.00    +0.000 A 
ATOM     13  C   UNL     1       7.004   3.009  11.985  0.00  0.00    +0.000 A 
ENDBRANCH   7   8
ENDBRANCH   2   7
ENDBRANCH   1   3
BRANCH   1  14
ATOM     14  N   UNL     1       7.181   7.702  17.011  0.00  0.00    +0.000 N 
ATOM     15  C   UNL     1       8.064   7.941  18.037  0.00  0.00    +0.000 C 
ATOM     16  O   UNL     1       8.300   7.104  18.904  0.00  0.00    +0.000 OA
ATOM     17  H   UNL     1       7.043   8.467  16.353  0.00  0.00    +0.000 HD
BRANCH  15  18
ATOM     18  C   UNL     1       8.740   9.321  17.997  0.00  0.00    +0.000 C 
ATOM     19  C   UNL     1       9.136   9.746  19.427  0.00  0.00    +0.000 C 
ATOM     20  C   UNL     1       9.708  11.138  19.378  0.00  0.00    +0.000 A 
ATOM     21  C   UNL     1      10.825  11.528  20.123  0.00  0.00    +0.000 A 
ATOM     22  C   UNL     1      11.309  12.832  20.011  0.00  0.00    +0.000 A 
ATOM     23  C   UNL     1      10.676  13.747  19.167  0.00  0.00    +0.000 A 
ATOM     24  C   UNL     1       9.546  13.367  18.440  0.00  0.00    +0.000 A 
ATOM     25  C   UNL     1       9.060  12.061  18.540  0.00  0.00    +0.000 A 
ATOM     26  C   UNL     1       7.799  11.614  17.847  0.00  0.00    +0.000 C 
ATOM     27  N   UNL     1       7.901  10.291  17.220  0.00  0.00    +0.000 NA
ATOM     28  H   UNL     1       8.349  10.403  16.310  0.00  0.00    +0.000 HD
ENDBRANCH  15  18
ENDBRANCH   1  14
BRANCH   1  29
ATOM     29  C   UNL     1       4.982   6.736  16.374  0.00  0.00    +0.000 C 
BRANCH  29  30
ATOM     30  C   UNL     1       3.902   6.378  17.358  0.00  0.00    +0.000 A 
ATOM     31  C   UNL     1       3.245   7.256  18.200  0.00  0.00    +0.000 A 
ATOM     32  N   UNL     1       2.332   6.552  18.934  0.00  0.00    +0.000 N 
ATOM     33  C   UNL     1       2.387   5.218  18.606  0.00  0.00    +0.000 A 
ATOM     34  C   UNL     1       1.661   4.138  19.120  0.00  0.00    +0.000 A 
ATOM     35  C   UNL     1       1.924   2.871  18.595  0.00  0.00    +0.000 A 
ATOM     36  C   UNL     1       2.871   2.697  17.588  0.00  0.00    +0.000 A 
ATOM     37  C   UNL     1       3.589   3.790  17.086  0.00  0.00    +0.000 A 
ATOM     38  C   UNL     1       3.353   5.077  17.609  0.00  0.00    +0.000 A 
ATOM     39  H   UNL     1       1.708   6.946  19.623  0.00  0.00    +0.000 HD
ENDBRANCH  29  30
ENDBRANCH   1  29
TORSDOF 7
ENDMDL
MODEL 2
REMARK VINA RESULT:      -8.7      6.028     10.746
REMARK  Name = 
REMARK  8 active torsions:
REMARK  status: ('A' for Active; 'I' for Inactive)
REMARK    1  A    between atoms: C_1  and  C_2
REMARK    2  A    between atoms: C_2  and  N_3
REMARK    3  A    between atoms: C_2  and  C_30
REMARK    4  A    between atoms: C_4  and  C_6
REMARK    5  A    between atoms: C_6  and  C_7
REMARK    6  A    between atoms: C_6  and  N_17
REMARK    7  A    between atoms: C_7  and  C_8
REMARK    8  A    between atoms: C_18  and  C_20
REMARK                            x       y       z     vdW  Elec       q    Type
REMARK                         _______ _______ _______ _____ _____    ______ ____
ROOT
ATOM      1  C   UNL     1       0.432  10.474  19.303  0.00  0.00    +0.000 C 
ENDROOT
BRANCH   1   3
ATOM      2  N   UNL     1       1.095  12.816  19.506  0.00  0.00    +0.000 N 
ATOM      3  C   UNL     1       1.047  11.599  20.159  0.00  0.00    +0.000 C 
ATOM      4  O   UNL     1       1.481  11.427  21.295  0.00  0.00    +0.000 OA
ATOM      5  H   UNL     1       0.992  12.802  18.492  0.00  0.00    +0.000 HD
BRANCH   2   7
ATOM      6  C   UNL     1       0.423  14.671  20.991  0.00  0.00    +0.000 C 
ATOM      7  C   UNL     1       1.543  14.042  20.148  0.00  0.00    +0.000 C 
BRANCH   7   8
ATOM      8  C   UNL     1       2.051  15.027  19.110  0.00  0.00    +0.000 A 
ATOM      9  C   UNL     1       1.408  16.261  18.930  0.00  0.00    +0.000 A 
ATOM     10  C   UNL     1       1.867  17.169  17.972  0.00  0.00    +0.000 A 
ATOM     11  C   UNL     1       2.977  16.858  17.187  0.00  0.00    +0.000 A 
ATOM     12  C   UNL     1       3.627  15.640  17.357  0.00  0.00    +0.000 A 
ATOM     13  C   UNL     1       3.168  14.731  18.311  0.00  0.00    +0.000 A 
ENDBRANCH   7   8
ENDBRANCH   2   7
ENDBRANCH   1   3
BRANCH   1  14
ATOM     14  N   UNL     1       1.158   9.229  19.520  0.00  0.00    +0.000 N 
ATOM     15  C   UNL     1       1.911   8.633  18.536  0.00  0.00    +0.000 C 
ATOM     16  O   UNL     1       2.084   9.155  17.439  0.00  0.00    +0.000 OA
ATOM     17  H   UNL     1       1.063   8.706  20.389  0.00  0.00    +0.000 HD
BRANCH  15  18
ATOM     18  C   UNL     1       2.530   7.281  18.929  0.00  0.00    +0.000 C 
ATOM     19  C   UNL     1       2.135   6.209  17.892  0.00  0.00    +0.000 C 
ATOM     20  C   UNL     1       2.670   4.876  18.345  0.00  0.00    +0.000 A 
ATOM     21  C   UNL     1       3.246   3.950  17.471  0.00  0.00    +0.000 A 
ATOM     22  C   UNL     1       3.737   2.743  17.968  0.00  0.00    +0.000 A 
ATOM     23  C   UNL     1       3.646   2.454  19.331  0.00  0.00    +0.000 A 
ATOM     24  C   UNL     1       3.050   3.367  20.203  0.00  0.00    +0.000 A 
ATOM     25  C   UNL     1       2.563   4.582  19.715  0.00  0.00    +0.000 A 
ATOM     26  C   UNL     1       1.837   5.571  20.590  0.00  0.00    +0.000 C 
ATOM     27  N   UNL     1       2.229   6.967  20.364  0.00  0.00    +0.000 NA
ATOM     28  H   UNL     1       3.085   7.146  20.890  0.00  0.00    +0.000 HD
ENDBRANCH  15  18
ENDBRANCH   1  14
BRANCH   1  29
ATOM     29  C   UNL     1      -1.069  10.330  19.589  0.00  0.00    +0.000 C 
BRANCH  29  30
ATOM     30  C   UNL     1      -1.907  10.444  18.345  0.00  0.00    +0.000 A 
ATOM     31  C   UNL     1      -1.597   9.919  17.104  0.00  0.00    +0.000 A 
ATOM     32  N   UNL     1      -2.607  10.229  16.237  0.00  0.00    +0.000 N 
ATOM     33  C   UNL     1      -3.572  10.969  16.878  0.00  0.00    +0.000 A 
ATOM     34  C   UNL     1      -4.757  11.521  16.379  0.00  0.00    +0.000 A 
ATOM     35  C   UNL     1      -5.563  12.236  17.267  0.00  0.00    +0.000 A 
ATOM     36  C   UNL     1      -5.199  12.383  18.604  0.00  0.00    +0.000 A 
ATOM     37  C   UNL     1      -4.008  11.824  19.085  0.00  0.00    +0.000 A 
ATOM     38  C   UNL     1      -3.169  11.109  18.207  0.00  0.00    +0.000 A 
ATOM     39  H   UNL     1      -2.643   9.962  15.264  0.00  0.00    +0.000 HD
ENDBRANCH  29  30
ENDBRANCH   1  29
TORSDOF 7
ENDMDL
MODEL 3
REMARK VINA RESULT:      -8.5      5.835     10.459
REMARK  Name = 
REMARK  8 active torsions:
REMARK  status: ('A' for Active; 'I' for Inactive)
REMARK    1  A    between atoms: C_1  and  C_2
REMARK    2  A    between atoms: C_2  and  N_3
REMARK    3  A    between atoms: C_2  and  C_30
REMARK    4  A    between atoms: C_4  and  C_6
REMARK    5  A    between atoms: C_6  and  C_7
REMARK    6  A    between atoms: C_6  and  N_17
REMARK    7  A    between atoms: C_7  and  C_8
REMARK    8  A    between atoms: C_18  and  C_20
REMARK                            x       y       z     vdW  Elec       q    Type
REMARK                         _______ _______ _______ _____ _____    ______ ____
ROOT
ATOM      1  C   UNL     1       0.196  10.794  19.528  0.00  0.00    +0.000 C 
ENDROOT
BRANCH   1   3
ATOM      2  N   UNL     1       0.644  13.195  19.505  0.00  0.00    +0.000 N 
ATOM      3  C   UNL     1       0.905  12.007  20.162  0.00  0.00    +0.000 C 
ATOM      4  O   UNL     1       1.651  11.926  21.134  0.00  0.00    +0.000 OA
ATOM      5  H   UNL     1       0.267  13.127  18.560  0.00  0.00    +0.000 HD
BRANCH   2   7
ATOM      6  C   UNL     1      -0.024  15.499  20.088  0.00  0.00    +0.000 C 
ATOM      7  C   UNL     1       1.123  14.483  19.979  0.00  0.00    +0.000 C 
BRANCH   7   8
ATOM      8  C   UNL     1       2.219  15.008  19.067  0.00  0.00    +0.000 A 
ATOM      9  C   UNL     1       2.039  16.206  18.360  0.00  0.00    +0.000 A 
ATOM     10  C   UNL     1       3.041  16.690  17.516  0.00  0.00    +0.000 A 
ATOM     11  C   UNL     1       4.237  15.987  17.372  0.00  0.00    +0.000 A 
ATOM     12  C   UNL     1       4.431  14.800  18.070  0.00  0.00    +0.000 A 
ATOM     13  C   UNL     1       3.430  14.313  18.912  0.00  0.00    +0.000 A 
ENDBRANCH   7   8
ENDBRANCH   2   7
ENDBRANCH   1   3
BRANCH   1  14
ATOM     14  N   UNL     1       1.013   9.598  19.691  0.00  0.00    +0.000 N 
ATOM     15  C   UNL     1       1.676   9.008  18.642  0.00  0.00    +0.000 C 
ATOM     16  O   UNL     1       1.686   9.499  17.517  0.00  0.00    +0.000 OA
ATOM     17  H   UNL     1       1.053   9.102  20.581  0.00  0.00    +0.000 HD
BRANCH  15  18
ATOM     18  C   UNL     1       2.415   7.707  18.996  0.00  0.00    +0.000 C 
ATOM     19  C   UNL     1       2.212   6.673  17.869  0.00  0.00    +0.000 C 
ATOM     20  C   UNL     1       2.861   5.376  18.278  0.00  0.00    +0.000 A 
ATOM     21  C   UNL     1       3.594   4.580  17.393  0.00  0.00    +0.000 A 
ATOM     22  C   UNL     1       4.183   3.400  17.851  0.00  0.00    +0.000 A 
ATOM     23  C   UNL     1       4.033   3.011  19.183  0.00  0.00    +0.000 A 
ATOM     24  C   UNL     1       3.283   3.792  20.063  0.00  0.00    +0.000 A 
ATOM     25  C   UNL     1       2.696   4.978  19.616  0.00  0.00    +0.000 A 
ATOM     26  C   UNL     1       1.807   5.821  20.494  0.00  0.00    +0.000 C 
ATOM     27  N   UNL     1       2.056   7.264  20.382  0.00  0.00    +0.000 NA
ATOM     28  H   UNL     1       2.849   7.497  20.981  0.00  0.00    +0.000 HD
ENDBRANCH  15  18
ENDBRANCH   1  14
BRANCH   1  29
ATOM     29  C   UNL     1      -1.213  10.619  20.111  0.00  0.00    +0.000 C 
BRANCH  29  30
ATOM     30  C   UNL     1      -2.283  11.167  19.206  0.00  0.00    +0.000 A 
ATOM     31  C   UNL     1      -3.196  12.154  19.530  0.00  0.00    +0.000 A 
ATOM     32  N   UNL     1      -3.996  12.378  18.445  0.00  0.00    +0.000 N 
ATOM     33  C   UNL     1      -3.641  11.542  17.413  0.00  0.00    +0.000 A 
ATOM     34  C   UNL     1      -4.198  11.407  16.136  0.00  0.00    +0.000 A 
ATOM     35  C   UNL     1      -3.629  10.465  15.277  0.00  0.00    +0.000 A 
ATOM     36  C   UNL     1      -2.539   9.696  15.680  0.00  0.00    +0.000 A 
ATOM     37  C   UNL     1      -1.995   9.844  16.962  0.00  0.00    +0.000 A 
ATOM     38  C   UNL     1      -2.559  10.778  17.854  0.00  0.00    +0.000 A 
ATOM     39  H   UNL     1      -4.744  13.055  18.401  0.00  0.00    +0.000 HD
ENDBRANCH  29  30
ENDBRANCH   1  29
TORSDOF 7
ENDMDL
MODEL 4
REMARK VINA RESULT:      -8.4      5.654     10.576
REMARK  Name = 
REMARK  8 active torsions:
REMARK  status: ('A' for Active; 'I' for Inactive)
REMARK    1  A    between atoms: C_1  and  C_2
REMARK    2  A    between atoms: C_2  and  N_3
REMARK    3  A    between atoms: C_2  and  C_30
REMARK    4  A    between atoms: C_4  and  C_6
REMARK    5  A    between atoms: C_6  and  C_7
REMARK    6  A    between atoms: C_6  and  N_17
REMARK    7  A    between atoms: C_7  and  C_8
REMARK    8  A    between atoms: C_18  and  C_20
REMARK                            x       y       z     vdW  Elec       q    Type
REMARK                         _______ _______ _______ _____ _____    ______ ____
ROOT
ATOM      1  C   UNL     1       0.520  10.644  19.388  0.00  0.00    +0.000 C 
ENDROOT
BRANCH   1   3
ATOM      2  N   UNL     1       1.331  12.938  19.599  0.00  0.00    +0.000 N 
ATOM      3  C   UNL     1       1.152  11.741  20.267  0.00  0.00    +0.000 C 
ATOM      4  O   UNL     1       1.492  11.564  21.434  0.00  0.00    +0.000 OA
ATOM      5  H   UNL     1       1.298  12.909  18.581  0.00  0.00    +0.000 HD
BRANCH   2   7
ATOM      6  C   UNL     1       0.843  15.314  20.061  0.00  0.00    +0.000 C 
ATOM      7  C   UNL     1       1.818  14.143  20.252  0.00  0.00    +0.000 C 
BRANCH   7   8
ATOM      8  C   UNL     1       3.198  14.504  19.731  0.00  0.00    +0.000 A 
ATOM      9  C   UNL     1       3.515  14.321  18.377  0.00  0.00    +0.000 A 
ATOM     10  C   UNL     1       4.785  14.646  17.894  0.00  0.00    +0.000 A 
ATOM     11  C   UNL     1       5.752  15.163  18.755  0.00  0.00    +0.000 A 
ATOM     12  C   UNL     1       5.450  15.355  20.100  0.00  0.00    +0.000 A 
ATOM     13  C   UNL     1       4.184  15.028  20.585  0.00  0.00    +0.000 A 
ENDBRANCH   7   8
ENDBRANCH   2   7
ENDBRANCH   1   3
BRANCH   1  14
ATOM     14  N   UNL     1       1.219   9.380  19.588  0.00  0.00    +0.000 N 
ATOM     15  C   UNL     1       1.913   8.753  18.581  0.00  0.00    +0.000 C 
ATOM     16  O   UNL     1       2.054   9.259  17.471  0.00  0.00    +0.000 OA
ATOM     17  H   UNL     1       1.146   8.869  20.466  0.00  0.00    +0.000 HD
BRANCH  15  18
ATOM     18  C   UNL     1       2.509   7.389  18.963  0.00  0.00    +0.000 C 
ATOM     19  C   UNL     1       2.088   6.330  17.923  0.00  0.00    +0.000 C 
ATOM     20  C   UNL     1       2.602   4.984  18.365  0.00  0.00    +0.000 A 
ATOM     21  C   UNL     1       3.154   4.053  17.482  0.00  0.00    +0.000 A 
ATOM     22  C   UNL     1       3.627   2.834  17.970  0.00  0.00    +0.000 A 
ATOM     23  C   UNL     1       3.539   2.540  19.332  0.00  0.00    +0.000 A 
ATOM     24  C   UNL     1       2.966   3.459  20.213  0.00  0.00    +0.000 A 
ATOM     25  C   UNL     1       2.498   4.685  19.734  0.00  0.00    +0.000 A 
ATOM     26  C   UNL     1       1.796   5.682  20.620  0.00  0.00    +0.000 C 
ATOM     27  N   UNL     1       2.212   7.072  20.397  0.00  0.00    +0.000 NA
ATOM     28  H   UNL     1       3.075   7.233  20.919  0.00  0.00    +0.000 HD
ENDBRANCH  15  18
ENDBRANCH   1  14
BRANCH   1  29
ATOM     29  C   UNL     1      -0.986  10.525  19.662  0.00  0.00    +0.000 C 
BRANCH  29  30
ATOM     30  C   UNL     1      -1.804  10.532  18.399  0.00  0.00    +0.000 A 
ATOM     31  C   UNL     1      -1.453   9.942  17.199  0.00  0.00    +0.000 A 
ATOM     32  N   UNL     1      -2.457  10.162  16.298  0.00  0.00    +0.000 N 
ATOM     33  C   UNL     1      -3.459  10.905  16.876  0.00  0.00    +0.000 A 
ATOM     34  C   UNL     1      -4.653  11.382  16.323  0.00  0.00    +0.000 A 
ATOM     35  C   UNL     1      -5.500  12.122  17.152  0.00  0.00    +0.000 A 
ATOM     36  C   UNL     1      -5.165  12.364  18.482  0.00  0.00    +0.000 A 
ATOM     37  C   UNL     1      -3.965  11.879  19.017  0.00  0.00    +0.000 A 
ATOM     38  C   UNL     1      -3.086  11.142  18.199  0.00  0.00    +0.000 A 
ATOM     39  H   UNL     1      -2.466   9.833  15.343  0.00  0.00    +0.000 HD
ENDBRANCH  29  30
ENDBRANCH   1  29
TORSDOF 7
ENDMDL
MODEL 5
REMARK VINA RESULT:      -8.4      5.648      7.953
REMARK  Name = 
REMARK  8 active torsions:
REMARK  status: ('A' for Active; 'I' for Inactive)
REMARK    1  A    between atoms: C_1  and  C_2
REMARK    2  A    between atoms: C_2  and  N_3
REMARK    3  A    between atoms: C_2  and  C_30
REMARK    4  A    between atoms: C_4  and  C_6
REMARK    5  A    between atoms: C_6  and  C_7
REMARK    6  A    between atoms: C_6  and  N_17
REMARK    7  A    between atoms: C_7  and  C_8
REMARK    8  A    between atoms: C_18  and  C_20
REMARK                            x       y       z     vdW  Elec       q    Type
REMARK                         _______ _______ _______ _____ _____    ______ ____
ROOT
ATOM      1  C   UNL     1       0.474   9.828  19.674  0.00  0.00    +0.000 C 
ENDROOT
BRANCH   1   3
ATOM      2  N   UNL     1       1.844   7.935  18.964  0.00  0.00    +0.000 N 
ATOM      3  C   UNL     1       1.454   8.698  20.048  0.00  0.00    +0.000 C 
ATOM      4  O   UNL     1       1.827   8.476  21.197  0.00  0.00    +0.000 OA
ATOM      5  H   UNL     1       1.272   7.999  18.123  0.00  0.00    +0.000 HD
BRANCH   2   7
ATOM      6  C   UNL     1       3.772   6.879  17.838  0.00  0.00    +0.000 C 
ATOM      7  C   UNL     1       2.837   6.877  19.057  0.00  0.00    +0.000 C 
BRANCH   7   8
ATOM      8  C   UNL     1       2.158   5.527  19.209  0.00  0.00    +0.000 A 
ATOM      9  C   UNL     1       1.727   5.090  20.470  0.00  0.00    +0.000 A 
ATOM     10  C   UNL     1       1.107   3.846  20.617  0.00  0.00    +0.000 A 
ATOM     11  C   UNL     1       0.905   3.028  19.508  0.00  0.00    +0.000 A 
ATOM     12  C   UNL     1       1.324   3.450  18.249  0.00  0.00    +0.000 A 
ATOM     13  C   UNL     1       1.946   4.690  18.101  0.00  0.00    +0.000 A 
ENDBRANCH   7   8
ENDBRANCH   2   7
ENDBRANCH   1   3
BRANCH   1  14
ATOM     14  N   UNL     1       1.172  11.108  19.659  0.00  0.00    +0.000 N 
ATOM     15  C   UNL     1       1.109  11.995  20.707  0.00  0.00    +0.000 C 
ATOM     16  O   UNL     1       0.528  11.729  21.755  0.00  0.00    +0.000 OA
ATOM     17  H   UNL     1       1.665  11.432  18.828  0.00  0.00    +0.000 HD
BRANCH  15  18
ATOM     18  C   UNL     1       1.840  13.327  20.468  0.00  0.00    +0.000 C 
ATOM     19  C   UNL     1       2.540  13.294  19.094  0.00  0.00    +0.000 C 
ATOM     20  C   UNL     1       3.327  14.567  18.920  0.00  0.00    +0.000 A 
ATOM     21  C   UNL     1       3.379  15.270  17.714  0.00  0.00    +0.000 A 
ATOM     22  C   UNL     1       4.115  16.453  17.635  0.00  0.00    +0.000 A 
ATOM     23  C   UNL     1       4.806  16.927  18.752  0.00  0.00    +0.000 A 
ATOM     24  C   UNL     1       4.774  16.214  19.951  0.00  0.00    +0.000 A 
ATOM     25  C   UNL     1       4.034  15.033  20.041  0.00  0.00    +0.000 A 
ATOM     26  C   UNL     1       4.027  14.176  21.281  0.00  0.00    +0.000 C 
ATOM     27  N   UNL     1       2.699  13.669  21.648  0.00  0.00    +0.000 NA
ATOM     28  H   UNL     1       2.211  14.402  22.165  0.00  0.00    +0.000 HD
ENDBRANCH  15  18
ENDBRANCH   1  14
BRANCH   1  29
ATOM     29  C   UNL     1      -0.220   9.528  18.338  0.00  0.00    +0.000 C 
BRANCH  29  30
ATOM     30  C   UNL     1      -1.461  10.353  18.135  0.00  0.00    +0.000 A 
ATOM     31  C   UNL     1      -2.009  11.237  19.047  0.00  0.00    +0.000 A 
ATOM     32  N   UNL     1      -3.126  11.795  18.492  0.00  0.00    +0.000 N 
ATOM     33  C   UNL     1      -3.339  11.281  17.235  0.00  0.00    +0.000 A 
ATOM     34  C   UNL     1      -4.368  11.542  16.323  0.00  0.00    +0.000 A 
ATOM     35  C   UNL     1      -4.335  10.869  15.099  0.00  0.00    +0.000 A 
ATOM     36  C   UNL     1      -3.307   9.978  14.801  0.00  0.00    +0.000 A 
ATOM     37  C   UNL     1      -2.286   9.728  15.727  0.00  0.00    +0.000 A 
ATOM     38  C   UNL     1      -2.303  10.383  16.975  0.00  0.00    +0.000 A 
ATOM     39  H   UNL     1      -3.718  12.482  18.937  0.00  0.00    +0.000 HD
ENDBRANCH  29  30
ENDBRANCH   1  29
TORSDOF 7
ENDMDL
MODEL 6
REMARK VINA RESULT:      -8.3      6.254     10.856
REMARK  Name = 
REMARK  8 active torsions:
REMARK  status: ('A' for Active; 'I' for Inactive)
REMARK    1  A    between atoms: C_1  and  C_2
REMARK    2  A    between atoms: C_2  and  N_3
REMARK    3  A    between atoms: C_2  and  C_30
REMARK    4  A    between atoms: C_4  and  C_6
REMARK    5  A    between atoms: C_6  and  C_7
REMARK    6  A    between atoms: C_6  and  N_17
REMARK    7  A    between atoms: C_7  and  C_8
REMARK    8  A    between atoms: C_18  and  C_20
REMARK                            x       y       z     vdW  Elec       q    Type
REMARK                         _______ _______ _______ _____ _____    ______ ____
ROOT
ATOM      1  C   UNL     1       0.762  10.546  18.508  0.00  0.00    +0.000 C 
ENDROOT
BRANCH   1   3
ATOM      2  N   UNL     1       1.381  12.741  19.383  0.00  0.00    +0.000 N 
ATOM      3  C   UNL     1       1.773  11.710  18.550  0.00  0.00    +0.000 C 
ATOM      4  O   UNL     1       2.807  11.735  17.889  0.00  0.00    +0.000 OA
ATOM      5  H   UNL     1       0.398  12.770  19.653  0.00  0.00    +0.000 HD
BRANCH   2   7
ATOM      6  C   UNL     1       2.578  13.985  21.148  0.00  0.00    +0.000 C 
ATOM      7  C   UNL     1       2.218  13.898  19.658  0.00  0.00    +0.000 C 
BRANCH   7   8
ATOM      8  C   UNL     1       1.529  15.170  19.197  0.00  0.00    +0.000 A 
ATOM      9  C   UNL     1       0.152  15.173  18.928  0.00  0.00    +0.000 A 
ATOM     10  C   UNL     1      -0.486  16.339  18.499  0.00  0.00    +0.000 A 
ATOM     11  C   UNL     1       0.240  17.518  18.339  0.00  0.00    +0.000 A 
ATOM     12  C   UNL     1       1.606  17.532  18.606  0.00  0.00    +0.000 A 
ATOM     13  C   UNL     1       2.246  16.368  19.032  0.00  0.00    +0.000 A 
ENDBRANCH   7   8
ENDBRANCH   2   7
ENDBRANCH   1   3
BRANCH   1  14
ATOM     14  N   UNL     1       1.364   9.342  19.067  0.00  0.00    +0.000 N 
ATOM     15  C   UNL     1       2.079   8.452  18.302  0.00  0.00    +0.000 C 
ATOM     16  O   UNL     1       2.323   8.657  17.117  0.00  0.00    +0.000 OA
ATOM     17  H   UNL     1       1.202   9.071  20.035  0.00  0.00    +0.000 HD
BRANCH  15  18
ATOM     18  C   UNL     1       2.561   7.200  19.053  0.00  0.00    +0.000 C 
ATOM     19  C   UNL     1       2.370   5.955  18.162  0.00  0.00    +0.000 C 
ATOM     20  C   UNL     1       2.758   4.730  18.949  0.00  0.00    +0.000 A 
ATOM     21  C   UNL     1       3.483   3.670  18.398  0.00  0.00    +0.000 A 
ATOM     22  C   UNL     1       3.822   2.577  19.196  0.00  0.00    +0.000 A 
ATOM     23  C   UNL     1       3.430   2.536  20.536  0.00  0.00    +0.000 A 
ATOM     24  C   UNL     1       2.686   3.583  21.082  0.00  0.00    +0.000 A 
ATOM     25  C   UNL     1       2.349   4.685  20.292  0.00  0.00    +0.000 A 
ATOM     26  C   UNL     1       1.478   5.806  20.800  0.00  0.00    +0.000 C 
ATOM     27  N   UNL     1       1.949   7.143  20.420  0.00  0.00    +0.000 NA
ATOM     28  H   UNL     1       2.675   7.424  21.080  0.00  0.00    +0.000 HD
ENDBRANCH  15  18
ENDBRANCH   1  14
BRANCH   1  29
ATOM     29  C   UNL     1      -0.542  10.930  19.223  0.00  0.00    +0.000 C 
BRANCH  29  30
ATOM     30  C   UNL     1      -1.750  10.781  18.338  0.00  0.00    +0.000 A 
ATOM     31  C   UNL     1      -1.817  10.044  17.171  0.00  0.00    +0.000 A 
ATOM     32  N   UNL     1      -3.081  10.152  16.662  0.00  0.00    +0.000 N 
ATOM     33  C   UNL     1      -3.847  10.965  17.463  0.00  0.00    +0.000 A 
ATOM     34  C   UNL     1      -5.177  11.373  17.315  0.00  0.00    +0.000 A 
ATOM     35  C   UNL     1      -5.710  12.213  18.294  0.00  0.00    +0.000 A 
ATOM     36  C   UNL     1      -4.942  12.620  19.383  0.00  0.00    +0.000 A 
ATOM     37  C   UNL     1      -3.612  12.203  19.514  0.00  0.00    +0.000 A 
ATOM     38  C   UNL     1      -3.044  11.365  18.532  0.00  0.00    +0.000 A 
ATOM     39  H   UNL     1      -3.410   9.706  15.818  0.00  0.00    +0.000 HD
ENDBRANCH  29  30
ENDBRANCH   1  29
TORSDOF 7
ENDMDL
MODEL 7
REMARK VINA RESULT:      -8.2      6.057     10.169
REMARK  Name = 
REMARK  8 active torsions:
REMARK  status: ('A' for Active; 'I' for Inactive)
REMARK    1  A    between atoms: C_1  and  C_2
REMARK    2  A    between atoms: C_2  and  N_3
REMARK    3  A    between atoms: C_2  and  C_30
REMARK    4  A    between atoms: C_4  and  C_6
REMARK    5  A    between atoms: C_6  and  C_7
REMARK    6  A    between atoms: C_6  and  N_17
REMARK    7  A    between atoms: C_7  and  C_8
REMARK    8  A    between atoms: C_18  and  C_20
REMARK                            x       y       z     vdW  Elec       q    Type
REMARK                         _______ _______ _______ _____ _____    ______ ____
ROOT
ATOM      1  C   UNL     1       0.896   9.003  19.827  0.00  0.00    +0.000 C 
ENDROOT
BRANCH   1   3
ATOM      2  N   UNL     1      -0.840  10.420  18.855  0.00  0.00    +0.000 N 
ATOM      3  C   UNL     1       0.490  10.051  18.772  0.00  0.00    +0.000 C 
ATOM      4  O   UNL     1       1.259  10.493  17.923  0.00  0.00    +0.000 OA
ATOM      5  H   UNL     1      -1.460   9.803  19.378  0.00  0.00    +0.000 HD
BRANCH   2   7
ATOM      6  C   UNL     1      -0.644  12.781  18.158  0.00  0.00    +0.000 C 
ATOM      7  C   UNL     1      -1.424  11.464  18.028  0.00  0.00    +0.000 C 
BRANCH   7   8
ATOM      8  C   UNL     1      -2.885  11.668  18.390  0.00  0.00    +0.000 A 
ATOM      9  C   UNL     1      -3.235  12.326  19.579  0.00  0.00    +0.000 A 
ATOM     10  C   UNL     1      -4.577  12.512  19.920  0.00  0.00    +0.000 A 
ATOM     11  C   UNL     1      -5.586  12.049  19.076  0.00  0.00    +0.000 A 
ATOM     12  C   UNL     1      -5.254  11.398  17.892  0.00  0.00    +0.000 A 
ATOM     13  C   UNL     1      -3.914  11.209  17.551  0.00  0.00    +0.000 A 
ENDBRANCH   7   8
ENDBRANCH   2   7
ENDBRANCH   1   3
BRANCH   1  14
ATOM     14  N   UNL     1       1.872   8.080  19.262  0.00  0.00    +0.000 N 
ATOM     15  C   UNL     1       2.116   6.840  19.805  0.00  0.00    +0.000 C 
ATOM     16  O   UNL     1       1.468   6.403  20.751  0.00  0.00    +0.000 OA
ATOM     17  H   UNL     1       2.476   8.356  18.489  0.00  0.00    +0.000 HD
BRANCH  15  18
ATOM     18  C   UNL     1       3.241   6.048  19.120  0.00  0.00    +0.000 C 
ATOM     19  C   UNL     1       3.718   6.806  17.864  0.00  0.00    +0.000 C 
ATOM     20  C   UNL     1       4.752   5.970  17.156  0.00  0.00    +0.000 A 
ATOM     21  C   UNL     1       5.911   6.510  16.591  0.00  0.00    +0.000 A 
ATOM     22  C   UNL     1       6.832   5.668  15.967  0.00  0.00    +0.000 A 
ATOM     23  C   UNL     1       6.595   4.294  15.898  0.00  0.00    +0.000 A 
ATOM     24  C   UNL     1       5.427   3.755  16.441  0.00  0.00    +0.000 A 
ATOM     25  C   UNL     1       4.503   4.589  17.074  0.00  0.00    +0.000 A 
ATOM     26  C   UNL     1       3.188   4.081  17.605  0.00  0.00    +0.000 C 
ATOM     27  N   UNL     1       2.829   4.620  18.922  0.00  0.00    +0.000 NA
ATOM     28  H   UNL     1       3.315   4.073  19.634  0.00  0.00    +0.000 HD
ENDBRANCH  15  18
ENDBRANCH   1  14
BRANCH   1  29
ATOM     29  C   UNL     1       1.410   9.684  21.103  0.00  0.00    +0.000 C 
BRANCH  29  30
ATOM     30  C   UNL     1       0.295  10.202  21.969  0.00  0.00    +0.000 A 
ATOM     31  C   UNL     1      -0.467   9.455  22.848  0.00  0.00    +0.000 A 
ATOM     32  N   UNL     1      -1.371  10.284  23.452  0.00  0.00    +0.000 N 
ATOM     33  C   UNL     1      -1.232  11.565  22.974  0.00  0.00    +0.000 A 
ATOM     34  C   UNL     1      -1.956  12.721  23.287  0.00  0.00    +0.000 A 
ATOM     35  C   UNL     1      -1.595  13.906  22.642  0.00  0.00    +0.000 A 
ATOM     36  C   UNL     1      -0.544  13.930  21.727  0.00  0.00    +0.000 A 
ATOM     37  C   UNL     1       0.168  12.763  21.425  0.00  0.00    +0.000 A 
ATOM     38  C   UNL     1      -0.185  11.551  22.052  0.00  0.00    +0.000 A 
ATOM     39  H   UNL     1      -2.048  10.002  24.146  0.00  0.00    +0.000 HD
ENDBRANCH  29  30
ENDBRANCH   1  29
TORSDOF 7
ENDMDL
MODEL 8
REMARK VINA RESULT:      -8.2      5.722     10.283
REMARK  Name = 
REMARK  8 active torsions:
REMARK  status: ('A' for Active; 'I' for Inactive)
REMARK    1  A    between atoms: C_1  and  C_2
REMARK    2  A    between atoms: C_2  and  N_3
REMARK    3  A    between atoms: C_2  and  C_30
REMARK    4  A    between atoms: C_4  and  C_6
REMARK    5  A    between atoms: C_6  and  C_7
REMARK    6  A    between atoms: C_6  and  N_17
REMARK    7  A    between atoms: C_7  and  C_8
REMARK    8  A    between atoms: C_18  and  C_20
REMARK                            x       y       z     vdW  Elec       q    Type
REMARK                         _______ _______ _______ _____ _____    ______ ____
ROOT
ATOM      1  C   UNL     1       0.348  10.403  19.486  0.00  0.00    +0.000 C 
ENDROOT
BRANCH   1   3
ATOM      2  N   UNL     1       1.365  12.595  19.839  0.00  0.00    +0.000 N 
ATOM      3  C   UNL     1       1.173  11.342  20.388  0.00  0.00    +0.000 C 
ATOM      4  O   UNL     1       1.641  11.003  21.472  0.00  0.00    +0.000 OA
ATOM      5  H   UNL     1       1.202  12.692  18.837  0.00  0.00    +0.000 HD
BRANCH   2   7
ATOM      6  C   UNL     1       1.096  14.315  21.591  0.00  0.00    +0.000 C 
ATOM      7  C   UNL     1       2.028  13.678  20.549  0.00  0.00    +0.000 C 
BRANCH   7   8
ATOM      8  C   UNL     1       2.530  14.723  19.568  0.00  0.00    +0.000 A 
ATOM      9  C   UNL     1       3.089  14.333  18.343  0.00  0.00    +0.000 A 
ATOM     10  C   UNL     1       3.559  15.290  17.439  0.00  0.00    +0.000 A 
ATOM     11  C   UNL     1       3.470  16.647  17.746  0.00  0.00    +0.000 A 
ATOM     12  C   UNL     1       2.914  17.049  18.956  0.00  0.00    +0.000 A 
ATOM     13  C   UNL     1       2.447  16.095  19.861  0.00  0.00    +0.000 A 
ENDBRANCH   7   8
ENDBRANCH   2   7
ENDBRANCH   1   3
BRANCH   1  14
ATOM     14  N   UNL     1       1.032   9.125  19.337  0.00  0.00    +0.000 N 
ATOM     15  C   UNL     1       1.827   8.836  18.254  0.00  0.00    +0.000 C 
ATOM     16  O   UNL     1       2.074   9.666  17.384  0.00  0.00    +0.000 OA
ATOM     17  H   UNL     1       0.876   8.362  19.994  0.00  0.00    +0.000 HD
BRANCH  15  18
ATOM     18  C   UNL     1       2.393   7.406  18.234  0.00  0.00    +0.000 C 
ATOM     19  C   UNL     1       2.428   6.843  19.670  0.00  0.00    +0.000 C 
ATOM     20  C   UNL     1       3.072   5.481  19.642  0.00  0.00    +0.000 A 
ATOM     21  C   UNL     1       2.602   4.402  20.394  0.00  0.00    +0.000 A 
ATOM     22  C   UNL     1       3.241   3.164  20.301  0.00  0.00    +0.000 A 
ATOM     23  C   UNL     1       4.351   3.007  19.468  0.00  0.00    +0.000 A 
ATOM     24  C   UNL     1       4.836   4.090  18.733  0.00  0.00    +0.000 A 
ATOM     25  C   UNL     1       4.198   5.330  18.815  0.00  0.00    +0.000 A 
ATOM     26  C   UNL     1       4.723   6.556  18.112  0.00  0.00    +0.000 C 
ATOM     27  N   UNL     1       3.681   7.365  17.468  0.00  0.00    +0.000 NA
ATOM     28  H   UNL     1       3.470   6.948  16.560  0.00  0.00    +0.000 HD
ENDBRANCH  15  18
ENDBRANCH   1  14
BRANCH   1  29
ATOM     29  C   UNL     1      -1.079  10.239  20.030  0.00  0.00    +0.000 C 
BRANCH  29  30
ATOM     30  C   UNL     1      -2.104  10.943  19.183  0.00  0.00    +0.000 A 
ATOM     31  C   UNL     1      -2.876  12.022  19.570  0.00  0.00    +0.000 A 
ATOM     32  N   UNL     1      -3.679  12.378  18.523  0.00  0.00    +0.000 N 
ATOM     33  C   UNL     1      -3.465  11.540  17.455  0.00  0.00    +0.000 A 
ATOM     34  C   UNL     1      -4.079  11.516  16.197  0.00  0.00    +0.000 A 
ATOM     35  C   UNL     1      -3.660  10.540  15.290  0.00  0.00    +0.000 A 
ATOM     36  C   UNL     1      -2.660   9.631  15.629  0.00  0.00    +0.000 A 
ATOM     37  C   UNL     1      -2.058   9.670  16.892  0.00  0.00    +0.000 A 
ATOM     38  C   UNL     1      -2.471  10.635  17.832  0.00  0.00    +0.000 A 
ATOM     39  H   UNL     1      -4.339  13.142  18.527  0.00  0.00    +0.000 HD
ENDBRANCH  29  30
ENDBRANCH   1  29
TORSDOF 7
ENDMDL
MODEL 9
REMARK VINA RESULT:      -8.1      6.011     10.849
REMARK  Name = 
REMARK  8 active torsions:
REMARK  status: ('A' for Active; 'I' for Inactive)
REMARK    1  A    between atoms: C_1  and  C_2
REMARK    2  A    between atoms: C_2  and  N_3
REMARK    3  A    between atoms: C_2  and  C_30
REMARK    4  A    between atoms: C_4  and  C_6
REMARK    5  A    between atoms: C_6  and  C_7
REMARK    6  A    between atoms: C_6  and  N_17
REMARK    7  A    between atoms: C_7  and  C_8
REMARK    8  A    between atoms: C_18  and  C_20
REMARK                            x       y       z     vdW  Elec       q    Type
REMARK                         _______ _______ _______ _____ _____    ______ ____
ROOT
ATOM      1  C   UNL     1       0.657  10.218  19.451  0.00  0.00    +0.000 C 
ENDROOT
BRANCH   1   3
ATOM      2  N   UNL     1       1.600  12.459  19.677  0.00  0.00    +0.000 N 
ATOM      3  C   UNL     1       1.306  11.289  20.350  0.00  0.00    +0.000 C 
ATOM      4  O   UNL     1       1.566  11.112  21.538  0.00  0.00    +0.000 OA
ATOM      5  H   UNL     1       1.625  12.414  18.659  0.00  0.00    +0.000 HD
BRANCH   2   7
ATOM      6  C   UNL     1       1.135  14.186  21.379  0.00  0.00    +0.000 C 
ATOM      7  C   UNL     1       2.125  13.643  20.339  0.00  0.00    +0.000 C 
BRANCH   7   8
ATOM      8  C   UNL     1       2.468  14.712  19.316  0.00  0.00    +0.000 A 
ATOM      9  C   UNL     1       1.841  15.965  19.364  0.00  0.00    +0.000 A 
ATOM     10  C   UNL     1       2.148  16.951  18.422  0.00  0.00    +0.000 A 
ATOM     11  C   UNL     1       3.089  16.699  17.426  0.00  0.00    +0.000 A 
ATOM     12  C   UNL     1       3.724  15.462  17.368  0.00  0.00    +0.000 A 
ATOM     13  C   UNL     1       3.416  14.475  18.306  0.00  0.00    +0.000 A 
ENDBRANCH   7   8
ENDBRANCH   2   7
ENDBRANCH   1   3
BRANCH   1  14
ATOM     14  N   UNL     1       1.358   8.949  19.602  0.00  0.00    +0.000 N 
ATOM     15  C   UNL     1       2.037   8.353  18.566  0.00  0.00    +0.000 C 
ATOM     16  O   UNL     1       2.163   8.893  17.471  0.00  0.00    +0.000 OA
ATOM     17  H   UNL     1       1.297   8.410  20.465  0.00  0.00    +0.000 HD
BRANCH  15  18
ATOM     18  C   UNL     1       2.638   6.977  18.898  0.00  0.00    +0.000 C 
ATOM     19  C   UNL     1       2.121   5.929  17.890  0.00  0.00    +0.000 C 
ATOM     20  C   UNL     1       2.644   4.574  18.288  0.00  0.00    +0.000 A 
ATOM     21  C   UNL     1       3.112   3.637  17.362  0.00  0.00    +0.000 A 
ATOM     22  C   UNL     1       3.599   2.408  17.809  0.00  0.00    +0.000 A 
ATOM     23  C   UNL     1       3.611   2.110  19.173  0.00  0.00    +0.000 A 
ATOM     24  C   UNL     1       3.123   3.035  20.097  0.00  0.00    +0.000 A 
ATOM     25  C   UNL     1       2.640   4.270  19.660  0.00  0.00    +0.000 A 
ATOM     26  C   UNL     1       2.025   5.276  20.599  0.00  0.00    +0.000 C 
ATOM     27  N   UNL     1       2.446   6.659  20.350  0.00  0.00    +0.000 NA
ATOM     28  H   UNL     1       3.349   6.804  20.805  0.00  0.00    +0.000 HD
ENDBRANCH  15  18
ENDBRANCH   1  14
BRANCH   1  29
ATOM     29  C   UNL     1      -0.843  10.092  19.749  0.00  0.00    +0.000 C 
BRANCH  29  30
ATOM     30  C   UNL     1      -1.504  11.428  19.957  0.00  0.00    +0.000 A 
ATOM     31  C   UNL     1      -1.890  12.308  18.963  0.00  0.00    +0.000 A 
ATOM     32  N   UNL     1      -2.457  13.404  19.550  0.00  0.00    +0.000 N 
ATOM     33  C   UNL     1      -2.435  13.274  20.919  0.00  0.00    +0.000 A 
ATOM     34  C   UNL     1      -2.878  14.156  21.910  0.00  0.00    +0.000 A 
ATOM     35  C   UNL     1      -2.731  13.761  23.242  0.00  0.00    +0.000 A 
ATOM     36  C   UNL     1      -2.171  12.526  23.564  0.00  0.00    +0.000 A 
ATOM     37  C   UNL     1      -1.732  11.657  22.558  0.00  0.00    +0.000 A 
ATOM     38  C   UNL     1      -1.856  12.037  21.206  0.00  0.00    +0.000 A 
ATOM     39  H   UNL     1      -2.834  14.201  19.058  0.00  0.00    +0.000 HD
ENDBRANCH  29  30
ENDBRANCH   1  29
TORSDOF 7
ENDMDL
