MODEL 1
REMARK VINA RESULT:      -7.5      0.000      0.000
REMARK  Name = 
REMARK  10 active torsions:
REMARK  status: ('A' for Active; 'I' for Inactive)
REMARK    1  A    between atoms: C_1  and  O_2
REMARK    2  A    between atoms: O_2  and  C_3
REMARK    3  A    between atoms: C_5  and  N_6
REMARK    4  A    between atoms: C_7  and  C_9
REMARK    5  A    between atoms: C_9  and  C_10
REMARK    6  A    between atoms: C_13  and  N_14
REMARK    7  A    between atoms: C_19  and  C_20
REMARK    8  A    between atoms: C_20  and  O_22
REMARK    9  A    between atoms: C_24  and  O_25
REMARK   10  A    between atoms: O_25  and  C_26
REMARK                            x       y       z     vdW  Elec       q    Type
REMARK                         _______ _______ _______ _____ _____    ______ ____
ROOT
ATOM      1  C   UNL     1       5.508   6.465  16.946  0.00  0.00    +0.000 A 
ATOM      2  C   UNL     1       4.477   7.253  17.476  0.00  0.00    +0.000 A 
ATOM      3  C   UNL     1       3.289   6.709  17.972  0.00  0.00    +0.000 A 
ATOM      4  C   UNL     1       3.079   5.329  17.801  0.00  0.00    +0.000 A 
ATOM      5  C   UNL     1       4.090   4.535  17.233  0.00  0.00    +0.000 A 
ATOM      6  C   UNL     1       5.305   5.089  16.805  0.00  0.00    +0.000 A 
ENDROOT
BRANCH   3   7
ATOM      7  N   UNL     1       2.366   7.516  18.693  0.00  0.00    +0.000 N 
ATOM      8  C   UNL     1       1.935   8.793  18.359  0.00  0.00    +0.000 C 
ATOM      9  O   UNL     1       2.139   9.369  17.291  0.00  0.00    +0.000 OA
ATOM     10  H   UNL     1       2.006   7.102  19.558  0.00  0.00    +0.000 HD
BRANCH   8  11
ATOM     11  C   UNL     1       1.108   9.476  19.430  0.00  0.00    +0.000 C 
BRANCH  11  12
ATOM     12  C   UNL     1      -0.145  10.073  18.843  0.00  0.00    +0.000 A 
ATOM     13  C   UNL     1      -0.799  11.114  19.509  0.00  0.00    +0.000 A 
ATOM     14  C   UNL     1      -2.019  11.595  19.034  0.00  0.00    +0.000 A 
ATOM     15  C   UNL     1      -2.585  11.031  17.883  0.00  0.00    +0.000 A 
ATOM     16  C   UNL     1      -1.931  10.000  17.198  0.00  0.00    +0.000 A 
ATOM     17  C   UNL     1      -0.712   9.523  17.681  0.00  0.00    +0.000 A 
BRANCH  15  18
ATOM     18  N   UNL     1      -3.889  11.507  17.413  0.00  0.00    +0.000 N 
ATOM     19  O   UNL     1      -4.154  11.372  16.210  0.00  0.00    +0.000 OA
ATOM     20  O   UNL     1      -4.648  12.027  18.245  0.00  0.00    +0.000 OA
ENDBRANCH  15  18
ENDBRANCH  11  12
ENDBRANCH   8  11
ENDBRANCH   3   7
BRANCH   1  22
ATOM     21  C   UNL     1       7.661   7.198  17.624  0.00  0.00    +0.000 C 
ATOM     22  O   UNL     1       6.701   7.026  16.576  0.00  0.00    +0.000 OA
ENDBRANCH   1  22
BRANCH   4  23
ATOM     23  C   UNL     1       1.804   4.702  18.251  0.00  0.00    +0.000 C 
ATOM     24  O   UNL     1       1.450   4.703  19.419  0.00  0.00    +0.000 OA
BRANCH  23  25
ATOM     25  O   UNL     1       1.050   4.185  17.255  0.00  0.00    +0.000 OA
ATOM     26  H   UNL     1       0.114   3.997  17.462  0.00  0.00    +0.000 HD
ENDBRANCH  23  25
ENDBRANCH   4  23
BRANCH   6  27
ATOM     27  O   UNL     1       6.147   4.142  16.291  0.00  0.00    +0.000 OA
ATOM     28  C   UNL     1       6.257   4.016  14.880  0.00  0.00    +0.000 C 
ENDBRANCH   6  27
TORSDOF 8
ENDMDL
MODEL 2
REMARK VINA RESULT:      -7.4      2.983      8.242
REMARK  Name = 
REMARK  10 active torsions:
REMARK  status: ('A' for Active; 'I' for Inactive)
REMARK    1  A    between atoms: C_1  and  O_2
REMARK    2  A    between atoms: O_2  and  C_3
REMARK    3  A    between atoms: C_5  and  N_6
REMARK    4  A    between atoms: C_7  and  C_9
REMARK    5  A    between atoms: C_9  and  C_10
REMARK    6  A    between atoms: C_13  and  N_14
REMARK    7  A    between atoms: C_19  and  C_20
REMARK    8  A    between atoms: C_20  and  O_22
REMARK    9  A    between atoms: C_24  and  O_25
REMARK   10  A    between atoms: O_25  and  C_26
REMARK                            x       y       z     vdW  Elec       q    Type
REMARK                         _______ _______ _______ _____ _____    ______ ____
ROOT
ATOM      1  C   UNL     1       0.673   9.728  21.876  0.00  0.00    +0.000 A 
ATOM      2  C   UNL     1       1.226   8.457  21.669  0.00  0.00    +0.000 A 
ATOM      3  C   UNL     1       1.738   8.049  20.433  0.00  0.00    +0.000 A 
ATOM      4  C   UNL     1       1.559   8.908  19.334  0.00  0.00    +0.000 A 
ATOM      5  C   UNL     1       0.968  10.169  19.523  0.00  0.00    +0.000 A 
ATOM      6  C   UNL     1       0.524  10.589  20.786  0.00  0.00    +0.000 A 
ENDROOT
BRANCH   3   7
ATOM      7  N   UNL     1       2.481   6.842  20.317  0.00  0.00    +0.000 N 
ATOM      8  C   UNL     1       1.985   5.547  20.389  0.00  0.00    +0.000 C 
ATOM      9  O   UNL     1       0.797   5.225  20.384  0.00  0.00    +0.000 OA
ATOM     10  H   UNL     1       3.489   6.960  20.187  0.00  0.00    +0.000 HD
BRANCH   8  11
ATOM     11  C   UNL     1       3.050   4.469  20.436  0.00  0.00    +0.000 C 
BRANCH  11  12
ATOM     12  C   UNL     1       3.966   4.567  19.244  0.00  0.00    +0.000 A 
ATOM     13  C   UNL     1       5.255   5.088  19.397  0.00  0.00    +0.000 A 
ATOM     14  C   UNL     1       6.068   5.288  18.281  0.00  0.00    +0.000 A 
ATOM     15  C   UNL     1       5.588   4.961  17.006  0.00  0.00    +0.000 A 
ATOM     16  C   UNL     1       4.307   4.422  16.843  0.00  0.00    +0.000 A 
ATOM     17  C   UNL     1       3.498   4.227  17.963  0.00  0.00    +0.000 A 
BRANCH  15  18
ATOM     18  N   UNL     1       6.428   5.215  15.833  0.00  0.00    +0.000 N 
ATOM     19  O   UNL     1       7.360   6.023  15.953  0.00  0.00    +0.000 OA
ATOM     20  O   UNL     1       6.153   4.612  14.784  0.00  0.00    +0.000 OA
ENDBRANCH  15  18
ENDBRANCH  11  12
ENDBRANCH   8  11
ENDBRANCH   3   7
BRANCH   1  22
ATOM     21  C   UNL     1      -1.103  10.433  23.284  0.00  0.00    +0.000 C 
ATOM     22  O   UNL     1       0.287  10.130  23.127  0.00  0.00    +0.000 OA
ENDBRANCH   1  22
BRANCH   4  23
ATOM     23  C   UNL     1       2.025   8.500  17.979  0.00  0.00    +0.000 C 
ATOM     24  O   UNL     1       2.178   7.332  17.663  0.00  0.00    +0.000 OA
BRANCH  23  25
ATOM     25  O   UNL     1       2.209   9.524  17.116  0.00  0.00    +0.000 OA
ATOM     26  H   UNL     1       1.576  10.266  17.169  0.00  0.00    +0.000 HD
ENDBRANCH  23  25
ENDBRANCH   4  23
BRANCH   6  27
ATOM     27  O   UNL     1      -0.012  11.847  20.747  0.00  0.00    +0.000 OA
ATOM     28  C   UNL     1       0.064  12.588  19.537  0.00  0.00    +0.000 C 
ENDBRANCH   6  27
TORSDOF 8
ENDMDL
MODEL 3
REMARK VINA RESULT:      -7.3      3.059      4.508
REMARK  Name = 
REMARK  10 active torsions:
REMARK  status: ('A' for Active; 'I' for Inactive)
REMARK    1  A    between atoms: C_1  and  O_2
REMARK    2  A    between atoms: O_2  and  C_3
REMARK    3  A    between atoms: C_5  and  N_6
REMARK    4  A    between atoms: C_7  and  C_9
REMARK    5  A    between atoms: C_9  and  C_10
REMARK    6  A    between atoms: C_13  and  N_14
REMARK    7  A    between atoms: C_19  and  C_20
REMARK    8  A    between atoms: C_20  and  O_22
REMARK    9  A    between atoms: C_24  and  O_25
REMARK   10  A    between atoms: O_25  and  C_26
REMARK                            x       y       z     vdW  Elec       q    Type
REMARK                         _______ _______ _______ _____ _____    ______ ____
ROOT
ATOM      1  C   UNL     1       1.351   4.146  20.131  0.00  0.00    +0.000 A 
ATOM      2  C   UNL     1       1.591   5.351  20.807  0.00  0.00    +0.000 A 
ATOM      3  C   UNL     1       1.957   6.527  20.146  0.00  0.00    +0.000 A 
ATOM      4  C   UNL     1       2.223   6.448  18.767  0.00  0.00    +0.000 A 
ATOM      5  C   UNL     1       2.026   5.235  18.087  0.00  0.00    +0.000 A 
ATOM      6  C   UNL     1       1.590   4.081  18.756  0.00  0.00    +0.000 A 
ENDROOT
BRANCH   3   7
ATOM      7  N   UNL     1       1.980   7.771  20.835  0.00  0.00    +0.000 N 
ATOM      8  C   UNL     1       0.887   8.477  21.319  0.00  0.00    +0.000 C 
ATOM      9  O   UNL     1      -0.269   8.062  21.392  0.00  0.00    +0.000 OA
ATOM     10  H   UNL     1       2.909   8.183  20.963  0.00  0.00    +0.000 HD
BRANCH   8  11
ATOM     11  C   UNL     1       1.213   9.868  21.826  0.00  0.00    +0.000 C 
BRANCH  11  12
ATOM     12  C   UNL     1      -0.019  10.735  21.849  0.00  0.00    +0.000 A 
ATOM     13  C   UNL     1      -0.764  10.856  23.026  0.00  0.00    +0.000 A 
ATOM     14  C   UNL     1      -1.967  11.564  23.027  0.00  0.00    +0.000 A 
ATOM     15  C   UNL     1      -2.424  12.154  21.842  0.00  0.00    +0.000 A 
ATOM     16  C   UNL     1      -1.678  12.054  20.661  0.00  0.00    +0.000 A 
ATOM     17  C   UNL     1      -0.477  11.343  20.668  0.00  0.00    +0.000 A 
BRANCH  15  18
ATOM     18  N   UNL     1      -3.709  12.857  21.835  0.00  0.00    +0.000 N 
ATOM     19  O   UNL     1      -4.726  12.200  21.569  0.00  0.00    +0.000 OA
ATOM     20  O   UNL     1      -3.704  14.071  22.088  0.00  0.00    +0.000 OA
ENDBRANCH  15  18
ENDBRANCH  11  12
ENDBRANCH   8  11
ENDBRANCH   3   7
BRANCH   1  22
ATOM     21  C   UNL     1       1.821   2.401  21.669  0.00  0.00    +0.000 C 
ATOM     22  O   UNL     1       0.884   3.047  20.801  0.00  0.00    +0.000 OA
ENDBRANCH   1  22
BRANCH   4  23
ATOM     23  C   UNL     1       2.680   7.655  18.020  0.00  0.00    +0.000 C 
ATOM     24  O   UNL     1       3.788   7.731  17.515  0.00  0.00    +0.000 OA
BRANCH  23  25
ATOM     25  O   UNL     1       1.750   8.628  17.903  0.00  0.00    +0.000 OA
ATOM     26  H   UNL     1       0.815   8.346  17.878  0.00  0.00    +0.000 HD
ENDBRANCH  23  25
ENDBRANCH   4  23
BRANCH   6  27
ATOM     27  O   UNL     1       1.458   3.017  17.907  0.00  0.00    +0.000 OA
ATOM     28  C   UNL     1       2.594   2.205  17.644  0.00  0.00    +0.000 C 
ENDBRANCH   6  27
TORSDOF 8
ENDMDL
MODEL 4
REMARK VINA RESULT:      -7.2      3.098      4.561
REMARK  Name = 
REMARK  10 active torsions:
REMARK  status: ('A' for Active; 'I' for Inactive)
REMARK    1  A    between atoms: C_1  and  O_2
REMARK    2  A    between atoms: O_2  and  C_3
REMARK    3  A    between atoms: C_5  and  N_6
REMARK    4  A    between atoms: C_7  and  C_9
REMARK    5  A    between atoms: C_9  and  C_10
REMARK    6  A    between atoms: C_13  and  N_14
REMARK    7  A    between atoms: C_19  and  C_20
REMARK    8  A    between atoms: C_20  and  O_22
REMARK    9  A    between atoms: C_24  and  O_25
REMARK   10  A    between atoms: O_25  and  C_26
REMARK                            x       y       z     vdW  Elec       q    Type
REMARK                         _______ _______ _______ _____ _____    ______ ____
ROOT
ATOM      1  C   UNL     1       1.687   3.973  19.858  0.00  0.00    +0.000 A 
ATOM      2  C   UNL     1       1.861   5.117  20.649  0.00  0.00    +0.000 A 
ATOM      3  C   UNL     1       2.071   6.387  20.104  0.00  0.00    +0.000 A 
ATOM      4  C   UNL     1       2.247   6.482  18.712  0.00  0.00    +0.000 A 
ATOM      5  C   UNL     1       2.114   5.334  17.913  0.00  0.00    +0.000 A 
ATOM      6  C   UNL     1       1.834   4.078  18.473  0.00  0.00    +0.000 A 
ENDROOT
BRANCH   3   7
ATOM      7  N   UNL     1       2.028   7.547  20.927  0.00  0.00    +0.000 N 
ATOM      8  C   UNL     1       0.894   8.195  21.397  0.00  0.00    +0.000 C 
ATOM      9  O   UNL     1      -0.260   7.773  21.331  0.00  0.00    +0.000 OA
ATOM     10  H   UNL     1       2.940   7.942  21.173  0.00  0.00    +0.000 HD
BRANCH   8  11
ATOM     11  C   UNL     1       1.166   9.521  22.079  0.00  0.00    +0.000 C 
BRANCH  11  12
ATOM     12  C   UNL     1      -0.023  10.439  21.964  0.00  0.00    +0.000 A 
ATOM     13  C   UNL     1      -0.252  11.136  20.773  0.00  0.00    +0.000 A 
ATOM     14  C   UNL     1      -1.283  12.073  20.695  0.00  0.00    +0.000 A 
ATOM     15  C   UNL     1      -2.089  12.311  21.815  0.00  0.00    +0.000 A 
ATOM     16  C   UNL     1      -1.881  11.606  23.007  0.00  0.00    +0.000 A 
ATOM     17  C   UNL     1      -0.846  10.672  23.078  0.00  0.00    +0.000 A 
BRANCH  15  18
ATOM     18  N   UNL     1      -3.141  13.328  21.744  0.00  0.00    +0.000 N 
ATOM     19  O   UNL     1      -3.883  13.464  22.728  0.00  0.00    +0.000 OA
ATOM     20  O   UNL     1      -3.235  13.990  20.698  0.00  0.00    +0.000 OA
ENDBRANCH  15  18
ENDBRANCH  11  12
ENDBRANCH   8  11
ENDBRANCH   3   7
BRANCH   1  22
ATOM     21  C   UNL     1       1.471   2.706  21.854  0.00  0.00    +0.000 C 
ATOM     22  O   UNL     1       1.370   2.768  20.427  0.00  0.00    +0.000 OA
ENDBRANCH   1  22
BRANCH   4  23
ATOM     23  C   UNL     1       2.538   7.800  18.080  0.00  0.00    +0.000 C 
ATOM     24  O   UNL     1       1.758   8.737  18.130  0.00  0.00    +0.000 OA
BRANCH  23  25
ATOM     25  O   UNL     1       3.755   7.887  17.499  0.00  0.00    +0.000 OA
ATOM     26  H   UNL     1       3.909   8.650  16.908  0.00  0.00    +0.000 HD
ENDBRANCH  23  25
ENDBRANCH   4  23
BRANCH   6  27
ATOM     27  O   UNL     1       1.741   3.102  17.519  0.00  0.00    +0.000 OA
ATOM     28  C   UNL     1       2.727   2.079  17.487  0.00  0.00    +0.000 C 
ENDBRANCH   6  27
TORSDOF 8
ENDMDL
MODEL 5
REMARK VINA RESULT:      -7.1      2.472      3.016
REMARK  Name = 
REMARK  10 active torsions:
REMARK  status: ('A' for Active; 'I' for Inactive)
REMARK    1  A    between atoms: C_1  and  O_2
REMARK    2  A    between atoms: O_2  and  C_3
REMARK    3  A    between atoms: C_5  and  N_6
REMARK    4  A    between atoms: C_7  and  C_9
REMARK    5  A    between atoms: C_9  and  C_10
REMARK    6  A    between atoms: C_13  and  N_14
REMARK    7  A    between atoms: C_19  and  C_20
REMARK    8  A    between atoms: C_20  and  O_22
REMARK    9  A    between atoms: C_24  and  O_25
REMARK   10  A    between atoms: O_25  and  C_26
REMARK                            x       y       z     vdW  Elec       q    Type
REMARK                         _______ _______ _______ _____ _____    ______ ____
ROOT
ATOM      1  C   UNL     1       6.716   6.116  16.865  0.00  0.00    +0.000 A 
ATOM      2  C   UNL     1       5.706   6.373  17.802  0.00  0.00    +0.000 A 
ATOM      3  C   UNL     1       4.731   5.430  18.139  0.00  0.00    +0.000 A 
ATOM      4  C   UNL     1       4.694   4.233  17.402  0.00  0.00    +0.000 A 
ATOM      5  C   UNL     1       5.678   3.982  16.431  0.00  0.00    +0.000 A 
ATOM      6  C   UNL     1       6.692   4.912  16.156  0.00  0.00    +0.000 A 
ENDROOT
BRANCH   3   7
ATOM      7  N   UNL     1       3.860   5.648  19.242  0.00  0.00    +0.000 N 
ATOM      8  C   UNL     1       2.505   5.950  19.190  0.00  0.00    +0.000 C 
ATOM      9  O   UNL     1       1.792   5.904  18.188  0.00  0.00    +0.000 OA
ATOM     10  H   UNL     1       4.300   5.589  20.165  0.00  0.00    +0.000 HD
BRANCH   8  11
ATOM     11  C   UNL     1       1.894   6.328  20.524  0.00  0.00    +0.000 C 
BRANCH  11  12
ATOM     12  C   UNL     1       1.404   7.753  20.507  0.00  0.00    +0.000 A 
ATOM     13  C   UNL     1       0.600   8.225  21.549  0.00  0.00    +0.000 A 
ATOM     14  C   UNL     1       0.048   9.505  21.486  0.00  0.00    +0.000 A 
ATOM     15  C   UNL     1       0.305  10.316  20.372  0.00  0.00    +0.000 A 
ATOM     16  C   UNL     1       1.123   9.860  19.332  0.00  0.00    +0.000 A 
ATOM     17  C   UNL     1       1.670   8.578  19.402  0.00  0.00    +0.000 A 
BRANCH  15  18
ATOM     18  N   UNL     1      -0.314  11.641  20.288  0.00  0.00    +0.000 N 
ATOM     19  O   UNL     1       0.402  12.592  19.941  0.00  0.00    +0.000 OA
ATOM     20  O   UNL     1      -1.516  11.737  20.578  0.00  0.00    +0.000 OA
ENDBRANCH  15  18
ENDBRANCH  11  12
ENDBRANCH   8  11
ENDBRANCH   3   7
BRANCH   1  22
ATOM     21  C   UNL     1       7.829   8.074  17.612  0.00  0.00    +0.000 C 
ATOM     22  O   UNL     1       7.719   7.023  16.647  0.00  0.00    +0.000 OA
ENDBRANCH   1  22
BRANCH   4  23
ATOM     23  C   UNL     1       3.638   3.217  17.671  0.00  0.00    +0.000 C 
ATOM     24  O   UNL     1       3.708   2.430  18.601  0.00  0.00    +0.000 OA
BRANCH  23  25
ATOM     25  O   UNL     1       2.575   3.277  16.838  0.00  0.00    +0.000 OA
ATOM     26  H   UNL     1       2.479   2.552  16.191  0.00  0.00    +0.000 HD
ENDBRANCH  23  25
ENDBRANCH   4  23
BRANCH   6  27
ATOM     27  O   UNL     1       7.545   4.467  15.184  0.00  0.00    +0.000 OA
ATOM     28  C   UNL     1       7.370   4.931  13.853  0.00  0.00    +0.000 C 
ENDBRANCH   6  27
TORSDOF 8
ENDMDL
MODEL 6
REMARK VINA RESULT:      -7.1      2.680      3.320
REMARK  Name = 
REMARK  10 active torsions:
REMARK  status: ('A' for Active; 'I' for Inactive)
REMARK    1  A    between atoms: C_1  and  O_2
REMARK    2  A    between atoms: O_2  and  C_3
REMARK    3  A    between atoms: C_5  and  N_6
REMARK    4  A    between atoms: C_7  and  C_9
REMARK    5  A    between atoms: C_9  and  C_10
REMARK    6  A    between atoms: C_13  and  N_14
REMARK    7  A    between atoms: C_19  and  C_20
REMARK    8  A    between atoms: C_20  and  O_22
REMARK    9  A    between atoms: C_24  and  O_25
REMARK   10  A    between atoms: O_25  and  C_26
REMARK                            x       y       z     vdW  Elec       q    Type
REMARK                         _______ _______ _______ _____ _____    ______ ____
ROOT
ATOM      1  C   UNL     1       6.523   6.322  16.935  0.00  0.00    +0.000 A 
ATOM      2  C   UNL     1       5.500   6.507  17.876  0.00  0.00    +0.000 A 
ATOM      3  C   UNL     1       4.660   5.470  18.291  0.00  0.00    +0.000 A 
ATOM      4  C   UNL     1       4.769   4.233  17.630  0.00  0.00    +0.000 A 
ATOM      5  C   UNL     1       5.765   4.049  16.655  0.00  0.00    +0.000 A 
ATOM      6  C   UNL     1       6.646   5.083  16.302  0.00  0.00    +0.000 A 
ENDROOT
BRANCH   3   7
ATOM      7  N   UNL     1       3.783   5.644  19.397  0.00  0.00    +0.000 N 
ATOM      8  C   UNL     1       2.402   5.784  19.353  0.00  0.00    +0.000 C 
ATOM      9  O   UNL     1       1.687   5.600  18.369  0.00  0.00    +0.000 OA
ATOM     10  H   UNL     1       4.238   5.687  20.313  0.00  0.00    +0.000 HD
BRANCH   8  11
ATOM     11  C   UNL     1       1.767   6.160  20.677  0.00  0.00    +0.000 C 
BRANCH  11  12
ATOM     12  C   UNL     1       1.262   7.579  20.647  0.00  0.00    +0.000 A 
ATOM     13  C   UNL     1       1.648   8.434  19.610  0.00  0.00    +0.000 A 
ATOM     14  C   UNL     1       1.279   9.779  19.635  0.00  0.00    +0.000 A 
ATOM     15  C   UNL     1       0.518  10.269  20.704  0.00  0.00    +0.000 A 
ATOM     16  C   UNL     1       0.110   9.419  21.738  0.00  0.00    +0.000 A 
ATOM     17  C   UNL     1       0.485   8.075  21.707  0.00  0.00    +0.000 A 
BRANCH  15  18
ATOM     18  N   UNL     1       0.171  11.692  20.749  0.00  0.00    +0.000 N 
ATOM     19  O   UNL     1      -0.254  12.217  19.709  0.00  0.00    +0.000 OA
ATOM     20  O   UNL     1       0.331  12.291  21.823  0.00  0.00    +0.000 OA
ENDBRANCH  15  18
ENDBRANCH  11  12
ENDBRANCH   8  11
ENDBRANCH   3   7
BRANCH   1  22
ATOM     21  C   UNL     1       7.870   8.095  17.757  0.00  0.00    +0.000 C 
ATOM     22  O   UNL     1       7.396   7.335  16.640  0.00  0.00    +0.000 OA
ENDBRANCH   1  22
BRANCH   4  23
ATOM     23  C   UNL     1       3.857   3.109  17.984  0.00  0.00    +0.000 C 
ATOM     24  O   UNL     1       4.034   2.406  18.965  0.00  0.00    +0.000 OA
BRANCH  23  25
ATOM     25  O   UNL     1       2.792   2.971  17.163  0.00  0.00    +0.000 OA
ATOM     26  H   UNL     1       1.938   2.746  17.581  0.00  0.00    +0.000 HD
ENDBRANCH  23  25
ENDBRANCH   4  23
BRANCH   6  27
ATOM     27  O   UNL     1       7.536   4.689  15.341  0.00  0.00    +0.000 OA
ATOM     28  C   UNL     1       7.147   4.757  13.976  0.00  0.00    +0.000 C 
ENDBRANCH   6  27
TORSDOF 8
ENDMDL
MODEL 7
REMARK VINA RESULT:      -7.0      2.936      8.295
REMARK  Name = 
REMARK  10 active torsions:
REMARK  status: ('A' for Active; 'I' for Inactive)
REMARK    1  A    between atoms: C_1  and  O_2
REMARK    2  A    between atoms: O_2  and  C_3
REMARK    3  A    between atoms: C_5  and  N_6
REMARK    4  A    between atoms: C_7  and  C_9
REMARK    5  A    between atoms: C_9  and  C_10
REMARK    6  A    between atoms: C_13  and  N_14
REMARK    7  A    between atoms: C_19  and  C_20
REMARK    8  A    between atoms: C_20  and  O_22
REMARK    9  A    between atoms: C_24  and  O_25
REMARK   10  A    between atoms: O_25  and  C_26
REMARK                            x       y       z     vdW  Elec       q    Type
REMARK                         _______ _______ _______ _____ _____    ______ ____
ROOT
ATOM      1  C   UNL     1      -2.616  11.011  17.292  0.00  0.00    +0.000 A 
ATOM      2  C   UNL     1      -1.427  10.284  17.144  0.00  0.00    +0.000 A 
ATOM      3  C   UNL     1      -0.573  10.007  18.216  0.00  0.00    +0.000 A 
ATOM      4  C   UNL     1      -0.862  10.606  19.455  0.00  0.00    +0.000 A 
ATOM      5  C   UNL     1      -2.030  11.372  19.604  0.00  0.00    +0.000 A 
ATOM      6  C   UNL     1      -2.913  11.580  18.533  0.00  0.00    +0.000 A 
ENDROOT
BRANCH   3   7
ATOM      7  N   UNL     1       0.504   9.090  18.069  0.00  0.00    +0.000 N 
ATOM      8  C   UNL     1       1.848   9.400  17.905  0.00  0.00    +0.000 C 
ATOM      9  O   UNL     1       2.356  10.512  18.039  0.00  0.00    +0.000 OA
ATOM     10  H   UNL     1       0.239   8.101  18.067  0.00  0.00    +0.000 HD
BRANCH   8  11
ATOM     11  C   UNL     1       2.729   8.213  17.568  0.00  0.00    +0.000 C 
BRANCH  11  12
ATOM     12  C   UNL     1       2.358   7.015  18.403  0.00  0.00    +0.000 A 
ATOM     13  C   UNL     1       2.363   7.110  19.799  0.00  0.00    +0.000 A 
ATOM     14  C   UNL     1       2.133   5.977  20.581  0.00  0.00    +0.000 A 
ATOM     15  C   UNL     1       1.895   4.744  19.960  0.00  0.00    +0.000 A 
ATOM     16  C   UNL     1       1.869   4.641  18.564  0.00  0.00    +0.000 A 
ATOM     17  C   UNL     1       2.102   5.778  17.789  0.00  0.00    +0.000 A 
BRANCH  15  18
ATOM     18  N   UNL     1       1.698   3.549  20.785  0.00  0.00    +0.000 N 
ATOM     19  O   UNL     1       2.122   3.574  21.950  0.00  0.00    +0.000 OA
ATOM     20  O   UNL     1       1.127   2.577  20.266  0.00  0.00    +0.000 OA
ENDBRANCH  15  18
ENDBRANCH  11  12
ENDBRANCH   8  11
ENDBRANCH   3   7
BRANCH   1  22
ATOM     21  C   UNL     1      -3.072  10.567  15.005  0.00  0.00    +0.000 C 
ATOM     22  O   UNL     1      -3.481  11.162  16.241  0.00  0.00    +0.000 OA
ENDBRANCH   1  22
BRANCH   4  23
ATOM     23  C   UNL     1       0.048  10.401  20.618  0.00  0.00    +0.000 C 
ATOM     24  O   UNL     1       0.006   9.400  21.313  0.00  0.00    +0.000 OA
BRANCH  23  25
ATOM     25  O   UNL     1       0.954  11.387  20.802  0.00  0.00    +0.000 OA
ATOM     26  H   UNL     1       1.856  11.227  20.463  0.00  0.00    +0.000 HD
ENDBRANCH  23  25
ENDBRANCH   4  23
BRANCH   6  27
ATOM     27  O   UNL     1      -3.986  12.346  18.896  0.00  0.00    +0.000 OA
ATOM     28  C   UNL     1      -4.040  12.869  20.216  0.00  0.00    +0.000 C 
ENDBRANCH   6  27
TORSDOF 8
ENDMDL
MODEL 8
REMARK VINA RESULT:      -7.0      0.530      1.161
REMARK  Name = 
REMARK  10 active torsions:
REMARK  status: ('A' for Active; 'I' for Inactive)
REMARK    1  A    between atoms: C_1  and  O_2
REMARK    2  A    between atoms: O_2  and  C_3
REMARK    3  A    between atoms: C_5  and  N_6
REMARK    4  A    between atoms: C_7  and  C_9
REMARK    5  A    between atoms: C_9  and  C_10
REMARK    6  A    between atoms: C_13  and  N_14
REMARK    7  A    between atoms: C_19  and  C_20
REMARK    8  A    between atoms: C_20  and  O_22
REMARK    9  A    between atoms: C_24  and  O_25
REMARK   10  A    between atoms: O_25  and  C_26
REMARK                            x       y       z     vdW  Elec       q    Type
REMARK                         _______ _______ _______ _____ _____    ______ ____
ROOT
ATOM      1  C   UNL     1       5.477   6.478  16.887  0.00  0.00    +0.000 A 
ATOM      2  C   UNL     1       4.438   7.277  17.384  0.00  0.00    +0.000 A 
ATOM      3  C   UNL     1       3.262   6.740  17.918  0.00  0.00    +0.000 A 
ATOM      4  C   UNL     1       3.073   5.350  17.819  0.00  0.00    +0.000 A 
ATOM      5  C   UNL     1       4.092   4.544  17.285  0.00  0.00    +0.000 A 
ATOM      6  C   UNL     1       5.296   5.094  16.819  0.00  0.00    +0.000 A 
ENDROOT
BRANCH   3   7
ATOM      7  N   UNL     1       2.332   7.568  18.604  0.00  0.00    +0.000 N 
ATOM      8  C   UNL     1       1.958   8.862  18.265  0.00  0.00    +0.000 C 
ATOM      9  O   UNL     1       2.231   9.443  17.215  0.00  0.00    +0.000 OA
ATOM     10  H   UNL     1       1.917   7.157  19.445  0.00  0.00    +0.000 HD
BRANCH   8  11
ATOM     11  C   UNL     1       1.102   9.560  19.303  0.00  0.00    +0.000 C 
BRANCH  11  12
ATOM     12  C   UNL     1      -0.166  10.091  18.687  0.00  0.00    +0.000 A 
ATOM     13  C   UNL     1      -1.091   9.205  18.126  0.00  0.00    +0.000 A 
ATOM     14  C   UNL     1      -2.212   9.693  17.452  0.00  0.00    +0.000 A 
ATOM     15  C   UNL     1      -2.406  11.076  17.343  0.00  0.00    +0.000 A 
ATOM     16  C   UNL     1      -1.496  11.972  17.917  0.00  0.00    +0.000 A 
ATOM     17  C   UNL     1      -0.377  11.476  18.587  0.00  0.00    +0.000 A 
BRANCH  15  18
ATOM     18  N   UNL     1      -3.560  11.585  16.597  0.00  0.00    +0.000 N 
ATOM     19  O   UNL     1      -3.482  11.611  15.360  0.00  0.00    +0.000 OA
ATOM     20  O   UNL     1      -4.544  11.969  17.246  0.00  0.00    +0.000 OA
ENDBRANCH  15  18
ENDBRANCH  11  12
ENDBRANCH   8  11
ENDBRANCH   3   7
BRANCH   1  22
ATOM     21  C   UNL     1       7.533   7.479  17.523  0.00  0.00    +0.000 C 
ATOM     22  O   UNL     1       6.658   7.038  16.479  0.00  0.00    +0.000 OA
ENDBRANCH   1  22
BRANCH   4  23
ATOM     23  C   UNL     1       1.812   4.727  18.312  0.00  0.00    +0.000 C 
ATOM     24  O   UNL     1       1.062   4.101  17.581  0.00  0.00    +0.000 OA
BRANCH  23  25
ATOM     25  O   UNL     1       1.597   4.867  19.639  0.00  0.00    +0.000 OA
ATOM     26  H   UNL     1       2.284   5.336  20.151  0.00  0.00    +0.000 HD
ENDBRANCH  23  25
ENDBRANCH   4  23
BRANCH   6  27
ATOM     27  O   UNL     1       6.148   4.135  16.347  0.00  0.00    +0.000 OA
ATOM     28  C   UNL     1       6.310   3.992  14.943  0.00  0.00    +0.000 C 
ENDBRANCH   6  27
TORSDOF 8
ENDMDL
MODEL 9
REMARK VINA RESULT:      -7.0      2.853      8.840
REMARK  Name = 
REMARK  10 active torsions:
REMARK  status: ('A' for Active; 'I' for Inactive)
REMARK    1  A    between atoms: C_1  and  O_2
REMARK    2  A    between atoms: O_2  and  C_3
REMARK    3  A    between atoms: C_5  and  N_6
REMARK    4  A    between atoms: C_7  and  C_9
REMARK    5  A    between atoms: C_9  and  C_10
REMARK    6  A    between atoms: C_13  and  N_14
REMARK    7  A    between atoms: C_19  and  C_20
REMARK    8  A    between atoms: C_20  and  O_22
REMARK    9  A    between atoms: C_24  and  O_25
REMARK   10  A    between atoms: O_25  and  C_26
REMARK                            x       y       z     vdW  Elec       q    Type
REMARK                         _______ _______ _______ _____ _____    ______ ____
ROOT
ATOM      1  C   UNL     1      -2.711  11.026  18.324  0.00  0.00    +0.000 A 
ATOM      2  C   UNL     1      -1.500  10.347  18.523  0.00  0.00    +0.000 A 
ATOM      3  C   UNL     1      -0.703  10.542  19.654  0.00  0.00    +0.000 A 
ATOM      4  C   UNL     1      -1.074  11.560  20.550  0.00  0.00    +0.000 A 
ATOM      5  C   UNL     1      -2.265  12.275  20.338  0.00  0.00    +0.000 A 
ATOM      6  C   UNL     1      -3.090  12.017  19.233  0.00  0.00    +0.000 A 
ENDROOT
BRANCH   3   7
ATOM      7  N   UNL     1       0.399   9.684  19.922  0.00  0.00    +0.000 N 
ATOM      8  C   UNL     1       0.465   8.685  20.885  0.00  0.00    +0.000 C 
ATOM      9  O   UNL     1      -0.479   8.254  21.546  0.00  0.00    +0.000 OA
ATOM     10  H   UNL     1       1.231   9.848  19.347  0.00  0.00    +0.000 HD
BRANCH   8  11
ATOM     11  C   UNL     1       1.843   8.080  21.068  0.00  0.00    +0.000 C 
BRANCH  11  12
ATOM     12  C   UNL     1       2.024   6.877  20.180  0.00  0.00    +0.000 A 
ATOM     13  C   UNL     1       1.750   5.598  20.675  0.00  0.00    +0.000 A 
ATOM     14  C   UNL     1       2.024   4.471  19.898  0.00  0.00    +0.000 A 
ATOM     15  C   UNL     1       2.572   4.628  18.619  0.00  0.00    +0.000 A 
ATOM     16  C   UNL     1       2.833   5.904  18.106  0.00  0.00    +0.000 A 
ATOM     17  C   UNL     1       2.559   7.026  18.889  0.00  0.00    +0.000 A 
BRANCH  15  18
ATOM     18  N   UNL     1       2.899   3.441  17.824  0.00  0.00    +0.000 N 
ATOM     19  O   UNL     1       2.142   3.145  16.888  0.00  0.00    +0.000 OA
ATOM     20  O   UNL     1       3.910   2.796  18.140  0.00  0.00    +0.000 OA
ENDBRANCH  15  18
ENDBRANCH  11  12
ENDBRANCH   8  11
ENDBRANCH   3   7
BRANCH   1  22
ATOM     21  C   UNL     1      -2.891  10.753  15.973  0.00  0.00    +0.000 C 
ATOM     22  O   UNL     1      -3.518  10.723  17.260  0.00  0.00    +0.000 OA
ENDBRANCH   1  22
BRANCH   4  23
ATOM     23  C   UNL     1      -0.228  11.858  21.740  0.00  0.00    +0.000 C 
ATOM     24  O   UNL     1      -0.645  11.758  22.882  0.00  0.00    +0.000 OA
BRANCH  23  25
ATOM     25  O   UNL     1       1.049  12.193  21.451  0.00  0.00    +0.000 OA
ATOM     26  H   UNL     1       1.597  12.524  22.189  0.00  0.00    +0.000 HD
ENDBRANCH  23  25
ENDBRANCH   4  23
BRANCH   6  27
ATOM     27  O   UNL     1      -4.197  12.819  19.222  0.00  0.00    +0.000 OA
ATOM     28  C   UNL     1      -5.107  12.747  20.310  0.00  0.00    +0.000 C 
ENDBRANCH   6  27
TORSDOF 8
ENDMDL
