MODEL 1
REMARK VINA RESULT:      -6.1      0.000      0.000
REMARK  Name = 
REMARK  13 active torsions:
REMARK  status: ('A' for Active; 'I' for Inactive)
REMARK    1  A    between atoms: N_1  and  C_2
REMARK    2  A    between atoms: C_2  and  C_3
REMARK    3  A    between atoms: C_3  and  C_4
REMARK    4  A    between atoms: C_4  and  C_5
REMARK    5  A    between atoms: C_5  and  C_6
REMARK    6  A    between atoms: C_6  and  N_7
REMARK    7  A    between atoms: C_6  and  C_18
REMARK    8  A    between atoms: C_8  and  C_10
REMARK    9  A    between atoms: C_10  and  C_11
REMARK   10  A    between atoms: C_10  and  N_13
REMARK   11  A    between atoms: C_11  and  S_12
REMARK   12  A    between atoms: C_14  and  C_16
REMARK   13  A    between atoms: C_16  and  S_17
REMARK                            x       y       z     vdW  Elec       q    Type
REMARK                         _______ _______ _______ _____ _____    ______ ____
ROOT
ATOM      1  N   UNL     1       4.981   4.844  16.346  0.00  0.00    +0.000 N 
ATOM      2  C   UNL     1       4.499   4.690  17.629  0.00  0.00    +0.000 C 
ATOM      3  O   UNL     1       5.094   4.003  18.462  0.00  0.00    +0.000 OA
ATOM      4  H   UNL     1       4.494   5.468  15.714  0.00  0.00    +0.000 HD
ENDROOT
BRANCH   1   5
ATOM      5  C   UNL     1       6.298   4.339  15.953  0.00  0.00    +0.000 C 
BRANCH   5   6
ATOM      6  C   UNL     1       7.398   5.053  16.761  0.00  0.00    +0.000 C 
ATOM      7  N   UNL     1       8.079   4.256  17.639  0.00  0.00    +0.000 N 
ATOM      8  O   UNL     1       7.644   6.254  16.681  0.00  0.00    +0.000 OA
ATOM      9  H   UNL     1       7.772   3.313  17.853  0.00  0.00    +0.000 HD
ATOM     10  H   UNL     1       8.783   4.681  18.228  0.00  0.00    +0.000 HD
ENDBRANCH   5   6
BRANCH   5  11
ATOM     11  C   UNL     1       6.526   4.547  14.450  0.00  0.00    +0.000 C 
BRANCH  11  12
ATOM     12  C   UNL     1       5.589   3.664  13.620  0.00  0.00    +0.000 C 
BRANCH  12  13
ATOM     13  C   UNL     1       6.101   3.480  12.193  0.00  0.00    +0.000 C 
BRANCH  13  14
ATOM     14  C   UNL     1       5.378   2.323  11.508  0.00  0.00    +0.000 C 
BRANCH  14  15
ATOM     15  N   UNL     1       6.259   1.165  11.421  0.00  0.00    +0.000 NA
ATOM     16  H   UNL     1       5.837   0.382  11.916  0.00  0.00    +0.000 HD
ATOM     17  H   UNL     1       7.134   1.368  11.903  0.00  0.00    +0.000 HD
ENDBRANCH  14  15
ENDBRANCH  13  14
ENDBRANCH  12  13
ENDBRANCH  11  12
ENDBRANCH   5  11
ENDBRANCH   1   5
BRANCH   2  18
ATOM     18  C   UNL     1       3.066   5.216  17.874  0.00  0.00    +0.000 C 
BRANCH  18  19
ATOM     19  N   UNL     1       2.424   4.576  19.023  0.00  0.00    +0.000 N 
ATOM     20  C   UNL     1       1.456   3.613  18.845  0.00  0.00    +0.000 C 
ATOM     21  O   UNL     1       1.027   3.268  17.745  0.00  0.00    +0.000 OA
ATOM     22  H   UNL     1       2.756   4.784  19.960  0.00  0.00    +0.000 HD
BRANCH  20  23
ATOM     23  C   UNL     1       0.919   3.009  20.142  0.00  0.00    +0.000 C 
BRANCH  23  24
ATOM     24  S   UNL     1       2.087   3.328  21.498  0.00  0.00    +0.000 S 
ATOM     25  H   UNL     1       1.866   4.652  21.579  0.00  0.00    +0.000 HD
ENDBRANCH  23  24
ENDBRANCH  20  23
ENDBRANCH  18  19
BRANCH  18  26
ATOM     26  C   UNL     1       3.078   6.746  18.020  0.00  0.00    +0.000 C 
BRANCH  26  27
ATOM     27  S   UNL     1       2.220   7.357  19.516  0.00  0.00    +0.000 S 
ATOM     28  H   UNL     1       2.386   8.667  19.253  0.00  0.00    +0.000 HD
ENDBRANCH  26  27
ENDBRANCH  18  26
ENDBRANCH   2  18
TORSDOF 13
ENDMDL
MODEL 2
REMARK VINA RESULT:      -5.9      3.230      6.539
REMARK  Name = 
REMARK  13 active torsions:
REMARK  status: ('A' for Active; 'I' for Inactive)
REMARK    1  A    between atoms: N_1  and  C_2
REMARK    2  A    between atoms: C_2  and  C_3
REMARK    3  A    between atoms: C_3  and  C_4
REMARK    4  A    between atoms: C_4  and  C_5
REMARK    5  A    between atoms: C_5  and  C_6
REMARK    6  A    between atoms: C_6  and  N_7
REMARK    7  A    between atoms: C_6  and  C_18
REMARK    8  A    between atoms: C_8  and  C_10
REMARK    9  A    between atoms: C_10  and  C_11
REMARK   10  A    between atoms: C_10  and  N_13
REMARK   11  A    between atoms: C_11  and  S_12
REMARK   12  A    between atoms: C_14  and  C_16
REMARK   13  A    between atoms: C_16  and  S_17
REMARK                            x       y       z     vdW  Elec       q    Type
REMARK                         _______ _______ _______ _____ _____    ______ ____
ROOT
ATOM      1  N   UNL     1       4.615   3.726  18.242  0.00  0.00    +0.000 N 
ATOM      2  C   UNL     1       5.708   4.536  18.470  0.00  0.00    +0.000 C 
ATOM      3  O   UNL     1       6.038   4.867  19.611  0.00  0.00    +0.000 OA
ATOM      4  H   UNL     1       4.418   3.428  17.295  0.00  0.00    +0.000 HD
ENDROOT
BRANCH   1   5
ATOM      5  C   UNL     1       3.891   3.086  19.341  0.00  0.00    +0.000 C 
BRANCH   5   6
ATOM      6  C   UNL     1       4.571   1.754  19.715  0.00  0.00    +0.000 C 
ATOM      7  N   UNL     1       4.367   0.733  18.828  0.00  0.00    +0.000 N 
ATOM      8  O   UNL     1       5.218   1.574  20.743  0.00  0.00    +0.000 OA
ATOM      9  H   UNL     1       3.690   0.807  18.076  0.00  0.00    +0.000 HD
ATOM     10  H   UNL     1       4.753  -0.176  19.045  0.00  0.00    +0.000 HD
ENDBRANCH   5   6
BRANCH   5  11
ATOM     11  C   UNL     1       2.428   2.842  18.951  0.00  0.00    +0.000 C 
BRANCH  11  12
ATOM     12  C   UNL     1       1.604   4.129  19.056  0.00  0.00    +0.000 C 
BRANCH  12  13
ATOM     13  C   UNL     1       1.829   4.838  20.389  0.00  0.00    +0.000 C 
BRANCH  13  14
ATOM     14  C   UNL     1       2.111   6.322  20.167  0.00  0.00    +0.000 C 
BRANCH  14  15
ATOM     15  N   UNL     1       2.902   6.506  18.957  0.00  0.00    +0.000 NA
ATOM     16  H   UNL     1       3.758   5.959  19.029  0.00  0.00    +0.000 HD
ATOM     17  H   UNL     1       3.192   7.480  18.886  0.00  0.00    +0.000 HD
ENDBRANCH  14  15
ENDBRANCH  13  14
ENDBRANCH  12  13
ENDBRANCH  11  12
ENDBRANCH   5  11
ENDBRANCH   1   5
BRANCH   2  18
ATOM     18  C   UNL     1       6.327   5.196  17.214  0.00  0.00    +0.000 C 
BRANCH  18  19
ATOM     19  N   UNL     1       5.832   4.605  15.970  0.00  0.00    +0.000 N 
ATOM     20  C   UNL     1       6.596   4.624  14.826  0.00  0.00    +0.000 C 
ATOM     21  O   UNL     1       7.694   5.173  14.745  0.00  0.00    +0.000 OA
ATOM     22  H   UNL     1       4.950   4.101  15.974  0.00  0.00    +0.000 HD
BRANCH  20  23
ATOM     23  C   UNL     1       5.957   3.926  13.626  0.00  0.00    +0.000 C 
BRANCH  23  24
ATOM     24  S   UNL     1       7.077   4.014  12.197  0.00  0.00    +0.000 S 
ATOM     25  H   UNL     1       8.184   4.329  12.892  0.00  0.00    +0.000 HD
ENDBRANCH  23  24
ENDBRANCH  20  23
ENDBRANCH  18  19
BRANCH  18  26
ATOM     26  C   UNL     1       6.098   6.715  17.244  0.00  0.00    +0.000 C 
BRANCH  26  27
ATOM     27  S   UNL     1       7.602   7.686  17.623  0.00  0.00    +0.000 S 
ATOM     28  H   UNL     1       7.278   8.754  16.872  0.00  0.00    +0.000 HD
ENDBRANCH  26  27
ENDBRANCH  18  26
ENDBRANCH   2  18
TORSDOF 13
ENDMDL
MODEL 3
REMARK VINA RESULT:      -5.9      3.226      6.119
REMARK  Name = 
REMARK  13 active torsions:
REMARK  status: ('A' for Active; 'I' for Inactive)
REMARK    1  A    between atoms: N_1  and  C_2
REMARK    2  A    between atoms: C_2  and  C_3
REMARK    3  A    between atoms: C_3  and  C_4
REMARK    4  A    between atoms: C_4  and  C_5
REMARK    5  A    between atoms: C_5  and  C_6
REMARK    6  A    between atoms: C_6  and  N_7
REMARK    7  A    between atoms: C_6  and  C_18
REMARK    8  A    between atoms: C_8  and  C_10
REMARK    9  A    between atoms: C_10  and  C_11
REMARK   10  A    between atoms: C_10  and  N_13
REMARK   11  A    between atoms: C_11  and  S_12
REMARK   12  A    between atoms: C_14  and  C_16
REMARK   13  A    between atoms: C_16  and  S_17
REMARK                            x       y       z     vdW  Elec       q    Type
REMARK                         _______ _______ _______ _____ _____    ______ ____
ROOT
ATOM      1  N   UNL     1       4.990   4.307  18.561  0.00  0.00    +0.000 N 
ATOM      2  C   UNL     1       6.256   4.854  18.536  0.00  0.00    +0.000 C 
ATOM      3  O   UNL     1       6.907   5.018  19.570  0.00  0.00    +0.000 OA
ATOM      4  H   UNL     1       4.517   4.132  17.683  0.00  0.00    +0.000 HD
ENDROOT
BRANCH   1   5
ATOM      5  C   UNL     1       4.420   3.745  19.786  0.00  0.00    +0.000 C 
BRANCH   5   6
ATOM      6  C   UNL     1       4.382   2.207  19.692  0.00  0.00    +0.000 C 
ATOM      7  N   UNL     1       5.224   1.555  20.549  0.00  0.00    +0.000 N 
ATOM      8  O   UNL     1       3.692   1.582  18.892  0.00  0.00    +0.000 OA
ATOM      9  H   UNL     1       5.930   2.051  21.084  0.00  0.00    +0.000 HD
ATOM     10  H   UNL     1       5.274   0.546  20.501  0.00  0.00    +0.000 HD
ENDBRANCH   5   6
BRANCH   5  11
ATOM     11  C   UNL     1       3.008   4.296  20.023  0.00  0.00    +0.000 C 
BRANCH  11  12
ATOM     12  C   UNL     1       2.802   5.627  19.294  0.00  0.00    +0.000 C 
BRANCH  12  13
ATOM     13  C   UNL     1       1.902   5.470  18.071  0.00  0.00    +0.000 C 
BRANCH  13  14
ATOM     14  C   UNL     1       1.421   4.027  17.940  0.00  0.00    +0.000 C 
BRANCH  14  15
ATOM     15  N   UNL     1       2.216   3.324  16.942  0.00  0.00    +0.000 NA
ATOM     16  H   UNL     1       2.937   3.948  16.585  0.00  0.00    +0.000 HD
ATOM     17  H   UNL     1       1.626   3.085  16.145  0.00  0.00    +0.000 HD
ENDBRANCH  14  15
ENDBRANCH  13  14
ENDBRANCH  12  13
ENDBRANCH  11  12
ENDBRANCH   5  11
ENDBRANCH   1   5
BRANCH   2  18
ATOM     18  C   UNL     1       6.694   5.469  17.186  0.00  0.00    +0.000 C 
BRANCH  18  19
ATOM     19  N   UNL     1       6.132   4.756  16.038  0.00  0.00    +0.000 N 
ATOM     20  C   UNL     1       6.787   4.738  14.827  0.00  0.00    +0.000 C 
ATOM     21  O   UNL     1       7.833   5.347  14.606  0.00  0.00    +0.000 OA
ATOM     22  H   UNL     1       5.292   4.199  16.159  0.00  0.00    +0.000 HD
BRANCH  20  23
ATOM     23  C   UNL     1       6.094   3.913  13.744  0.00  0.00    +0.000 C 
BRANCH  23  24
ATOM     24  S   UNL     1       7.039   4.015  12.195  0.00  0.00    +0.000 S 
ATOM     25  H   UNL     1       7.462   5.281  12.360  0.00  0.00    +0.000 HD
ENDBRANCH  23  24
ENDBRANCH  20  23
ENDBRANCH  18  19
BRANCH  18  26
ATOM     26  C   UNL     1       6.345   6.964  17.144  0.00  0.00    +0.000 C 
BRANCH  26  27
ATOM     27  S   UNL     1       7.724   8.064  17.633  0.00  0.00    +0.000 S 
ATOM     28  H   UNL     1       8.552   7.085  18.041  0.00  0.00    +0.000 HD
ENDBRANCH  26  27
ENDBRANCH  18  26
ENDBRANCH   2  18
TORSDOF 13
ENDMDL
MODEL 4
REMARK VINA RESULT:      -5.8      3.527      6.450
REMARK  Name = 
REMARK  13 active torsions:
REMARK  status: ('A' for Active; 'I' for Inactive)
REMARK    1  A    between atoms: N_1  and  C_2
REMARK    2  A    between atoms: C_2  and  C_3
REMARK    3  A    between atoms: C_3  and  C_4
REMARK    4  A    between atoms: C_4  and  C_5
REMARK    5  A    between atoms: C_5  and  C_6
REMARK    6  A    between atoms: C_6  and  N_7
REMARK    7  A    between atoms: C_6  and  C_18
REMARK    8  A    between atoms: C_8  and  C_10
REMARK    9  A    between atoms: C_10  and  C_11
REMARK   10  A    between atoms: C_10  and  N_13
REMARK   11  A    between atoms: C_11  and  S_12
REMARK   12  A    between atoms: C_14  and  C_16
REMARK   13  A    between atoms: C_16  and  S_17
REMARK                            x       y       z     vdW  Elec       q    Type
REMARK                         _______ _______ _______ _____ _____    ______ ____
ROOT
ATOM      1  N   UNL     1       5.736   3.844  18.663  0.00  0.00    +0.000 N 
ATOM      2  C   UNL     1       5.987   5.177  18.413  0.00  0.00    +0.000 C 
ATOM      3  O   UNL     1       5.092   6.023  18.471  0.00  0.00    +0.000 OA
ATOM      4  H   UNL     1       6.513   3.194  18.667  0.00  0.00    +0.000 HD
ENDROOT
BRANCH   1   5
ATOM      5  C   UNL     1       4.439   3.387  19.166  0.00  0.00    +0.000 C 
BRANCH   5   6
ATOM      6  C   UNL     1       4.582   1.987  19.794  0.00  0.00    +0.000 C 
ATOM      7  N   UNL     1       4.300   0.945  18.955  0.00  0.00    +0.000 N 
ATOM      8  O   UNL     1       4.883   1.785  20.968  0.00  0.00    +0.000 OA
ATOM      9  H   UNL     1       3.875   1.094  18.045  0.00  0.00    +0.000 HD
ATOM     10  H   UNL     1       4.334   0.005  19.326  0.00  0.00    +0.000 HD
ENDBRANCH   5   6
BRANCH   5  11
ATOM     11  C   UNL     1       3.405   3.356  18.034  0.00  0.00    +0.000 C 
BRANCH  11  12
ATOM     12  C   UNL     1       2.271   4.354  18.292  0.00  0.00    +0.000 C 
BRANCH  12  13
ATOM     13  C   UNL     1       1.497   4.015  19.563  0.00  0.00    +0.000 C 
BRANCH  13  14
ATOM     14  C   UNL     1       1.664   5.120  20.604  0.00  0.00    +0.000 C 
BRANCH  14  15
ATOM     15  N   UNL     1       2.477   6.200  20.060  0.00  0.00    +0.000 NA
ATOM     16  H   UNL     1       1.942   6.703  19.355  0.00  0.00    +0.000 HD
ATOM     17  H   UNL     1       3.284   5.806  19.576  0.00  0.00    +0.000 HD
ENDBRANCH  14  15
ENDBRANCH  13  14
ENDBRANCH  12  13
ENDBRANCH  11  12
ENDBRANCH   5  11
ENDBRANCH   1   5
BRANCH   2  18
ATOM     18  C   UNL     1       7.380   5.497  17.821  0.00  0.00    +0.000 C 
BRANCH  18  19
ATOM     19  N   UNL     1       7.338   5.704  16.374  0.00  0.00    +0.000 N 
ATOM     20  C   UNL     1       6.897   4.710  15.530  0.00  0.00    +0.000 C 
ATOM     21  O   UNL     1       6.569   3.587  15.908  0.00  0.00    +0.000 OA
ATOM     22  H   UNL     1       7.558   6.620  15.995  0.00  0.00    +0.000 HD
BRANCH  20  23
ATOM     23  C   UNL     1       6.871   5.099  14.052  0.00  0.00    +0.000 C 
BRANCH  23  24
ATOM     24  S   UNL     1       6.173   3.738  13.071  0.00  0.00    +0.000 S 
ATOM     25  H   UNL     1       5.102   3.520  13.855  0.00  0.00    +0.000 HD
ENDBRANCH  23  24
ENDBRANCH  20  23
ENDBRANCH  18  19
BRANCH  18  26
ATOM     26  C   UNL     1       7.999   6.704  18.543  0.00  0.00    +0.000 C 
BRANCH  26  27
ATOM     27  S   UNL     1       7.803   8.287  17.646  0.00  0.00    +0.000 S 
ATOM     28  H   UNL     1       8.270   9.072  18.635  0.00  0.00    +0.000 HD
ENDBRANCH  26  27
ENDBRANCH  18  26
ENDBRANCH   2  18
TORSDOF 13
ENDMDL
MODEL 5
REMARK VINA RESULT:      -5.8      1.468      1.650
REMARK  Name = 
REMARK  13 active torsions:
REMARK  status: ('A' for Active; 'I' for Inactive)
REMARK    1  A    between atoms: N_1  and  C_2
REMARK    2  A    between atoms: C_2  and  C_3
REMARK    3  A    between atoms: C_3  and  C_4
REMARK    4  A    between atoms: C_4  and  C_5
REMARK    5  A    between atoms: C_5  and  C_6
REMARK    6  A    between atoms: C_6  and  N_7
REMARK    7  A    between atoms: C_6  and  C_18
REMARK    8  A    between atoms: C_8  and  C_10
REMARK    9  A    between atoms: C_10  and  C_11
REMARK   10  A    between atoms: C_10  and  N_13
REMARK   11  A    between atoms: C_11  and  S_12
REMARK   12  A    between atoms: C_14  and  C_16
REMARK   13  A    between atoms: C_16  and  S_17
REMARK                            x       y       z     vdW  Elec       q    Type
REMARK                         _______ _______ _______ _____ _____    ______ ____
ROOT
ATOM      1  N   UNL     1       5.176   5.327  17.444  0.00  0.00    +0.000 N 
ATOM      2  C   UNL     1       4.452   5.587  18.588  0.00  0.00    +0.000 C 
ATOM      3  O   UNL     1       4.933   5.408  19.710  0.00  0.00    +0.000 OA
ATOM      4  H   UNL     1       4.764   5.549  16.546  0.00  0.00    +0.000 HD
ENDROOT
BRANCH   1   5
ATOM      5  C   UNL     1       6.598   4.982  17.495  0.00  0.00    +0.000 C 
BRANCH   5   6
ATOM      6  C   UNL     1       7.437   6.246  17.767  0.00  0.00    +0.000 C 
ATOM      7  N   UNL     1       7.570   7.092  16.701  0.00  0.00    +0.000 N 
ATOM      8  O   UNL     1       7.993   6.488  18.835  0.00  0.00    +0.000 OA
ATOM      9  H   UNL     1       7.277   6.823  15.768  0.00  0.00    +0.000 HD
ATOM     10  H   UNL     1       8.147   7.916  16.810  0.00  0.00    +0.000 HD
ENDBRANCH   5   6
BRANCH   5  11
ATOM     11  C   UNL     1       7.040   4.327  16.181  0.00  0.00    +0.000 C 
BRANCH  11  12
ATOM     12  C   UNL     1       5.946   4.433  15.113  0.00  0.00    +0.000 C 
BRANCH  12  13
ATOM     13  C   UNL     1       6.500   4.201  13.710  0.00  0.00    +0.000 C 
BRANCH  13  14
ATOM     14  C   UNL     1       5.461   3.510  12.830  0.00  0.00    +0.000 C 
BRANCH  14  15
ATOM     15  N   UNL     1       6.102   2.501  11.996  0.00  0.00    +0.000 NA
ATOM     16  H   UNL     1       7.110   2.646  12.008  0.00  0.00    +0.000 HD
ATOM     17  H   UNL     1       5.809   2.624  11.028  0.00  0.00    +0.000 HD
ENDBRANCH  14  15
ENDBRANCH  13  14
ENDBRANCH  12  13
ENDBRANCH  11  12
ENDBRANCH   5  11
ENDBRANCH   1   5
BRANCH   2  18
ATOM     18  C   UNL     1       2.946   5.871  18.379  0.00  0.00    +0.000 C 
BRANCH  18  19
ATOM     19  N   UNL     1       2.099   4.783  18.868  0.00  0.00    +0.000 N 
ATOM     20  C   UNL     1       1.897   3.650  18.113  0.00  0.00    +0.000 C 
ATOM     21  O   UNL     1       2.349   3.493  16.980  0.00  0.00    +0.000 OA
ATOM     22  H   UNL     1       1.724   4.828  19.811  0.00  0.00    +0.000 HD
BRANCH  20  23
ATOM     23  C   UNL     1       1.025   2.589  18.784  0.00  0.00    +0.000 C 
BRANCH  23  24
ATOM     24  S   UNL     1       1.199   2.704  20.590  0.00  0.00    +0.000 S 
ATOM     25  H   UNL     1       0.768   3.973  20.702  0.00  0.00    +0.000 HD
ENDBRANCH  23  24
ENDBRANCH  20  23
ENDBRANCH  18  19
BRANCH  18  26
ATOM     26  C   UNL     1       2.563   7.212  19.022  0.00  0.00    +0.000 C 
BRANCH  26  27
ATOM     27  S   UNL     1       2.286   8.562  17.818  0.00  0.00    +0.000 S 
ATOM     28  H   UNL     1       1.499   7.855  16.986  0.00  0.00    +0.000 HD
ENDBRANCH  26  27
ENDBRANCH  18  26
ENDBRANCH   2  18
TORSDOF 13
ENDMDL
MODEL 6
REMARK VINA RESULT:      -5.8      3.127      6.736
REMARK  Name = 
REMARK  13 active torsions:
REMARK  status: ('A' for Active; 'I' for Inactive)
REMARK    1  A    between atoms: N_1  and  C_2
REMARK    2  A    between atoms: C_2  and  C_3
REMARK    3  A    between atoms: C_3  and  C_4
REMARK    4  A    between atoms: C_4  and  C_5
REMARK    5  A    between atoms: C_5  and  C_6
REMARK    6  A    between atoms: C_6  and  N_7
REMARK    7  A    between atoms: C_6  and  C_18
REMARK    8  A    between atoms: C_8  and  C_10
REMARK    9  A    between atoms: C_10  and  C_11
REMARK   10  A    between atoms: C_10  and  N_13
REMARK   11  A    between atoms: C_11  and  S_12
REMARK   12  A    between atoms: C_14  and  C_16
REMARK   13  A    between atoms: C_16  and  S_17
REMARK                            x       y       z     vdW  Elec       q    Type
REMARK                         _______ _______ _______ _____ _____    ______ ____
ROOT
ATOM      1  N   UNL     1       4.541   3.509  17.930  0.00  0.00    +0.000 N 
ATOM      2  C   UNL     1       5.638   4.290  18.225  0.00  0.00    +0.000 C 
ATOM      3  O   UNL     1       5.901   4.622  19.383  0.00  0.00    +0.000 OA
ATOM      4  H   UNL     1       4.400   3.208  16.974  0.00  0.00    +0.000 HD
ENDROOT
BRANCH   1   5
ATOM      5  C   UNL     1       3.727   2.899  18.983  0.00  0.00    +0.000 C 
BRANCH   5   6
ATOM      6  C   UNL     1       4.467   1.689  19.587  0.00  0.00    +0.000 C 
ATOM      7  N   UNL     1       4.409   0.545  18.840  0.00  0.00    +0.000 N 
ATOM      8  O   UNL     1       5.039   1.703  20.673  0.00  0.00    +0.000 OA
ATOM      9  H   UNL     1       3.793   0.462  18.039  0.00  0.00    +0.000 HD
ATOM     10  H   UNL     1       4.840  -0.292  19.209  0.00  0.00    +0.000 HD
ENDBRANCH   5   6
BRANCH   5  11
ATOM     11  C   UNL     1       2.367   2.462  18.424  0.00  0.00    +0.000 C 
BRANCH  11  12
ATOM     12  C   UNL     1       1.272   2.562  19.491  0.00  0.00    +0.000 C 
BRANCH  12  13
ATOM     13  C   UNL     1       1.313   3.903  20.221  0.00  0.00    +0.000 C 
BRANCH  13  14
ATOM     14  C   UNL     1       2.001   3.756  21.576  0.00  0.00    +0.000 C 
BRANCH  14  15
ATOM     15  N   UNL     1       1.805   2.407  22.092  0.00  0.00    +0.000 NA
ATOM     16  H   UNL     1       2.540   1.799  21.734  0.00  0.00    +0.000 HD
ATOM     17  H   UNL     1       0.926   2.031  21.736  0.00  0.00    +0.000 HD
ENDBRANCH  14  15
ENDBRANCH  13  14
ENDBRANCH  12  13
ENDBRANCH  11  12
ENDBRANCH   5  11
ENDBRANCH   1   5
BRANCH   2  18
ATOM     18  C   UNL     1       6.359   4.921  17.009  0.00  0.00    +0.000 C 
BRANCH  18  19
ATOM     19  N   UNL     1       5.920   4.344  15.738  0.00  0.00    +0.000 N 
ATOM     20  C   UNL     1       6.651   4.533  14.587  0.00  0.00    +0.000 C 
ATOM     21  O   UNL     1       7.664   5.227  14.526  0.00  0.00    +0.000 OA
ATOM     22  H   UNL     1       5.113   3.728  15.722  0.00  0.00    +0.000 HD
BRANCH  20  23
ATOM     23  C   UNL     1       6.084   3.828  13.355  0.00  0.00    +0.000 C 
BRANCH  23  24
ATOM     24  S   UNL     1       7.209   4.056  11.945  0.00  0.00    +0.000 S 
ATOM     25  H   UNL     1       7.779   5.190  12.390  0.00  0.00    +0.000 HD
ENDBRANCH  23  24
ENDBRANCH  20  23
ENDBRANCH  18  19
BRANCH  18  26
ATOM     26  C   UNL     1       6.186   6.447  17.022  0.00  0.00    +0.000 C 
BRANCH  26  27
ATOM     27  S   UNL     1       4.444   6.998  17.122  0.00  0.00    +0.000 S 
ATOM     28  H   UNL     1       4.589   7.737  18.237  0.00  0.00    +0.000 HD
ENDBRANCH  26  27
ENDBRANCH  18  26
ENDBRANCH   2  18
TORSDOF 13
ENDMDL
MODEL 7
REMARK VINA RESULT:      -5.8      1.224      1.316
REMARK  Name = 
REMARK  13 active torsions:
REMARK  status: ('A' for Active; 'I' for Inactive)
REMARK    1  A    between atoms: N_1  and  C_2
REMARK    2  A    between atoms: C_2  and  C_3
REMARK    3  A    between atoms: C_3  and  C_4
REMARK    4  A    between atoms: C_4  and  C_5
REMARK    5  A    between atoms: C_5  and  C_6
REMARK    6  A    between atoms: C_6  and  N_7
REMARK    7  A    between atoms: C_6  and  C_18
REMARK    8  A    between atoms: C_8  and  C_10
REMARK    9  A    between atoms: C_10  and  C_11
REMARK   10  A    between atoms: C_10  and  N_13
REMARK   11  A    between atoms: C_11  and  S_12
REMARK   12  A    between atoms: C_14  and  C_16
REMARK   13  A    between atoms: C_16  and  S_17
REMARK                            x       y       z     vdW  Elec       q    Type
REMARK                         _______ _______ _______ _____ _____    ______ ____
ROOT
ATOM      1  N   UNL     1       4.818   5.033  15.857  0.00  0.00    +0.000 N 
ATOM      2  C   UNL     1       4.585   4.831  17.201  0.00  0.00    +0.000 C 
ATOM      3  O   UNL     1       5.088   3.882  17.807  0.00  0.00    +0.000 OA
ATOM      4  H   UNL     1       4.437   5.861  15.415  0.00  0.00    +0.000 HD
ENDROOT
BRANCH   1   5
ATOM      5  C   UNL     1       5.797   4.234  15.118  0.00  0.00    +0.000 C 
BRANCH   5   6
ATOM      6  C   UNL     1       7.208   4.828  15.301  0.00  0.00    +0.000 C 
ATOM      7  N   UNL     1       7.852   4.444  16.444  0.00  0.00    +0.000 N 
ATOM      8  O   UNL     1       7.728   5.622  14.522  0.00  0.00    +0.000 OA
ATOM      9  H   UNL     1       7.373   3.941  17.184  0.00  0.00    +0.000 HD
ATOM     10  H   UNL     1       8.764   4.838  16.638  0.00  0.00    +0.000 HD
ENDBRANCH   5   6
BRANCH   5  11
ATOM     11  C   UNL     1       5.434   4.183  13.629  0.00  0.00    +0.000 C 
BRANCH  11  12
ATOM     12  C   UNL     1       6.384   3.260  12.858  0.00  0.00    +0.000 C 
BRANCH  12  13
ATOM     13  C   UNL     1       5.656   2.491  11.757  0.00  0.00    +0.000 C 
BRANCH  13  14
ATOM     14  C   UNL     1       6.596   1.486  11.094  0.00  0.00    +0.000 C 
BRANCH  14  15
ATOM     15  N   UNL     1       6.175   0.127  11.407  0.00  0.00    +0.000 NA
ATOM     16  H   UNL     1       6.461  -0.496  10.653  0.00  0.00    +0.000 HD
ATOM     17  H   UNL     1       5.157   0.085  11.439  0.00  0.00    +0.000 HD
ENDBRANCH  14  15
ENDBRANCH  13  14
ENDBRANCH  12  13
ENDBRANCH  11  12
ENDBRANCH   5  11
ENDBRANCH   1   5
BRANCH   2  18
ATOM     18  C   UNL     1       3.474   5.706  17.828  0.00  0.00    +0.000 C 
BRANCH  18  19
ATOM     19  N   UNL     1       3.269   5.418  19.248  0.00  0.00    +0.000 N 
ATOM     20  C   UNL     1       2.217   4.633  19.665  0.00  0.00    +0.000 C 
ATOM     21  O   UNL     1       1.362   4.177  18.908  0.00  0.00    +0.000 OA
ATOM     22  H   UNL     1       3.959   5.730  19.925  0.00  0.00    +0.000 HD
BRANCH  20  23
ATOM     23  C   UNL     1       2.169   4.389  21.173  0.00  0.00    +0.000 C 
BRANCH  23  24
ATOM     24  S   UNL     1       1.629   2.685  21.501  0.00  0.00    +0.000 S 
ATOM     25  H   UNL     1       0.923   2.529  20.367  0.00  0.00    +0.000 HD
ENDBRANCH  23  24
ENDBRANCH  20  23
ENDBRANCH  18  19
BRANCH  18  26
ATOM     26  C   UNL     1       3.775   7.194  17.596  0.00  0.00    +0.000 C 
BRANCH  26  27
ATOM     27  S   UNL     1       2.376   8.306  17.989  0.00  0.00    +0.000 S 
ATOM     28  H   UNL     1       1.403   7.436  17.663  0.00  0.00    +0.000 HD
ENDBRANCH  26  27
ENDBRANCH  18  26
ENDBRANCH   2  18
TORSDOF 13
ENDMDL
MODEL 8
REMARK VINA RESULT:      -5.8      3.023      5.058
REMARK  Name = 
REMARK  13 active torsions:
REMARK  status: ('A' for Active; 'I' for Inactive)
REMARK    1  A    between atoms: N_1  and  C_2
REMARK    2  A    between atoms: C_2  and  C_3
REMARK    3  A    between atoms: C_3  and  C_4
REMARK    4  A    between atoms: C_4  and  C_5
REMARK    5  A    between atoms: C_5  and  C_6
REMARK    6  A    between atoms: C_6  and  N_7
REMARK    7  A    between atoms: C_6  and  C_18
REMARK    8  A    between atoms: C_8  and  C_10
REMARK    9  A    between atoms: C_10  and  C_11
REMARK   10  A    between atoms: C_10  and  N_13
REMARK   11  A    between atoms: C_11  and  S_12
REMARK   12  A    between atoms: C_14  and  C_16
REMARK   13  A    between atoms: C_16  and  S_17
REMARK                            x       y       z     vdW  Elec       q    Type
REMARK                         _______ _______ _______ _____ _____    ______ ____
ROOT
ATOM      1  N   UNL     1       5.587   6.330  17.924  0.00  0.00    +0.000 N 
ATOM      2  C   UNL     1       4.590   5.673  17.236  0.00  0.00    +0.000 C 
ATOM      3  O   UNL     1       4.773   5.233  16.098  0.00  0.00    +0.000 OA
ATOM      4  H   UNL     1       5.413   6.618  18.879  0.00  0.00    +0.000 HD
ENDROOT
BRANCH   1   5
ATOM      5  C   UNL     1       6.958   6.398  17.413  0.00  0.00    +0.000 C 
BRANCH   5   6
ATOM      6  C   UNL     1       7.547   4.979  17.296  0.00  0.00    +0.000 C 
ATOM      7  N   UNL     1       7.726   4.531  16.017  0.00  0.00    +0.000 N 
ATOM      8  O   UNL     1       7.809   4.260  18.257  0.00  0.00    +0.000 OA
ATOM      9  H   UNL     1       7.349   5.031  15.219  0.00  0.00    +0.000 HD
ATOM     10  H   UNL     1       8.069   3.589  15.880  0.00  0.00    +0.000 HD
ENDBRANCH   5   6
BRANCH   5  11
ATOM     11  C   UNL     1       7.832   7.260  18.332  0.00  0.00    +0.000 C 
BRANCH  11  12
ATOM     12  C   UNL     1       8.012   8.671  17.762  0.00  0.00    +0.000 C 
BRANCH  12  13
ATOM     13  C   UNL     1       8.855   9.550  18.683  0.00  0.00    +0.000 C 
BRANCH  13  14
ATOM     14  C   UNL     1       8.993  10.957  18.105  0.00  0.00    +0.000 C 
BRANCH  14  15
ATOM     15  N   UNL     1       9.793  11.787  18.995  0.00  0.00    +0.000 NA
ATOM     16  H   UNL     1       9.362  12.706  19.077  0.00  0.00    +0.000 HD
ATOM     17  H   UNL     1      10.713  11.940  18.581  0.00  0.00    +0.000 HD
ENDBRANCH  14  15
ENDBRANCH  13  14
ENDBRANCH  12  13
ENDBRANCH  11  12
ENDBRANCH   5  11
ENDBRANCH   1   5
BRANCH   2  18
ATOM     18  C   UNL     1       3.180   5.745  17.868  0.00  0.00    +0.000 C 
BRANCH  18  19
ATOM     19  N   UNL     1       2.831   4.525  18.599  0.00  0.00    +0.000 N 
ATOM     20  C   UNL     1       1.790   3.726  18.184  0.00  0.00    +0.000 C 
ATOM     21  O   UNL     1       1.058   3.995  17.234  0.00  0.00    +0.000 OA
ATOM     22  H   UNL     1       3.418   4.222  19.370  0.00  0.00    +0.000 HD
BRANCH  20  23
ATOM     23  C   UNL     1       1.585   2.467  19.026  0.00  0.00    +0.000 C 
BRANCH  23  24
ATOM     24  S   UNL     1       1.485   2.914  20.785  0.00  0.00    +0.000 S 
ATOM     25  H   UNL     1       0.144   2.864  20.877  0.00  0.00    +0.000 HD
ENDBRANCH  23  24
ENDBRANCH  20  23
ENDBRANCH  18  19
BRANCH  18  26
ATOM     26  C   UNL     1       3.061   6.988  18.763  0.00  0.00    +0.000 C 
BRANCH  26  27
ATOM     27  S   UNL     1       2.286   8.426  17.938  0.00  0.00    +0.000 S 
ATOM     28  H   UNL     1       2.066   9.135  19.060  0.00  0.00    +0.000 HD
ENDBRANCH  26  27
ENDBRANCH  18  26
ENDBRANCH   2  18
TORSDOF 13
ENDMDL
MODEL 9
REMARK VINA RESULT:      -5.8      1.653      1.988
REMARK  Name = 
REMARK  13 active torsions:
REMARK  status: ('A' for Active; 'I' for Inactive)
REMARK    1  A    between atoms: N_1  and  C_2
REMARK    2  A    between atoms: C_2  and  C_3
REMARK    3  A    between atoms: C_3  and  C_4
REMARK    4  A    between atoms: C_4  and  C_5
REMARK    5  A    between atoms: C_5  and  C_6
REMARK    6  A    between atoms: C_6  and  N_7
REMARK    7  A    between atoms: C_6  and  C_18
REMARK    8  A    between atoms: C_8  and  C_10
REMARK    9  A    between atoms: C_10  and  C_11
REMARK   10  A    between atoms: C_10  and  N_13
REMARK   11  A    between atoms: C_11  and  S_12
REMARK   12  A    between atoms: C_14  and  C_16
REMARK   13  A    between atoms: C_16  and  S_17
REMARK                            x       y       z     vdW  Elec       q    Type
REMARK                         _______ _______ _______ _____ _____    ______ ____
ROOT
ATOM      1  N   UNL     1       4.989   4.781  18.262  0.00  0.00    +0.000 N 
ATOM      2  C   UNL     1       4.329   5.911  17.826  0.00  0.00    +0.000 C 
ATOM      3  O   UNL     1       4.941   6.875  17.359  0.00  0.00    +0.000 OA
ATOM      4  H   UNL     1       4.443   3.990  18.579  0.00  0.00    +0.000 HD
ENDROOT
BRANCH   1   5
ATOM      5  C   UNL     1       6.425   4.598  18.046  0.00  0.00    +0.000 C 
BRANCH   5   6
ATOM      6  C   UNL     1       7.219   5.596  18.911  0.00  0.00    +0.000 C 
ATOM      7  N   UNL     1       7.730   6.669  18.234  0.00  0.00    +0.000 N 
ATOM      8  O   UNL     1       7.434   5.450  20.112  0.00  0.00    +0.000 OA
ATOM      9  H   UNL     1       7.722   6.713  17.221  0.00  0.00    +0.000 HD
ATOM     10  H   UNL     1       8.298   7.333  18.744  0.00  0.00    +0.000 HD
ENDBRANCH   5   6
BRANCH   5  11
ATOM     11  C   UNL     1       6.774   4.789  16.564  0.00  0.00    +0.000 C 
BRANCH  11  12
ATOM     12  C   UNL     1       6.066   3.749  15.690  0.00  0.00    +0.000 C 
BRANCH  12  13
ATOM     13  C   UNL     1       5.609   4.343  14.360  0.00  0.00    +0.000 C 
BRANCH  13  14
ATOM     14  C   UNL     1       6.620   4.033  13.258  0.00  0.00    +0.000 C 
BRANCH  14  15
ATOM     15  N   UNL     1       6.154   2.911  12.454  0.00  0.00    +0.000 NA
ATOM     16  H   UNL     1       5.597   2.287  13.036  0.00  0.00    +0.000 HD
ATOM     17  H   UNL     1       6.955   2.364  12.138  0.00  0.00    +0.000 HD
ENDBRANCH  14  15
ENDBRANCH  13  14
ENDBRANCH  12  13
ENDBRANCH  11  12
ENDBRANCH   5  11
ENDBRANCH   1   5
BRANCH   2  18
ATOM     18  C   UNL     1       2.827   5.991  18.187  0.00  0.00    +0.000 C 
BRANCH  18  19
ATOM     19  N   UNL     1       2.360   4.806  18.906  0.00  0.00    +0.000 N 
ATOM     20  C   UNL     1       1.486   3.920  18.317  0.00  0.00    +0.000 C 
ATOM     21  O   UNL     1       1.000   4.081  17.199  0.00  0.00    +0.000 OA
ATOM     22  H   UNL     1       2.750   4.590  19.819  0.00  0.00    +0.000 HD
BRANCH  20  23
ATOM     23  C   UNL     1       1.132   2.710  19.181  0.00  0.00    +0.000 C 
BRANCH  23  24
ATOM     24  S   UNL     1       1.501   3.072  20.924  0.00  0.00    +0.000 S 
ATOM     25  H   UNL     1       1.219   1.844  21.395  0.00  0.00    +0.000 HD
ENDBRANCH  23  24
ENDBRANCH  20  23
ENDBRANCH  18  19
BRANCH  18  26
ATOM     26  C   UNL     1       2.538   7.276  18.978  0.00  0.00    +0.000 C 
BRANCH  26  27
ATOM     27  S   UNL     1       1.941   8.666  17.946  0.00  0.00    +0.000 S 
ATOM     28  H   UNL     1       3.125   8.932  17.363  0.00  0.00    +0.000 HD
ENDBRANCH  26  27
ENDBRANCH  18  26
ENDBRANCH   2  18
TORSDOF 13
ENDMDL
