MODEL 1
REMARK VINA RESULT:      -7.2      0.000      0.000
REMARK  Name = 
REMARK  8 active torsions:
REMARK  status: ('A' for Active; 'I' for Inactive)
REMARK    1  A    between atoms: C_2  and  C_3
REMARK    2  A    between atoms: C_2  and  C_13
REMARK    3  A    between atoms: C_4  and  C_5
REMARK    4  A    between atoms: C_8  and  O_9
REMARK    5  A    between atoms: C_11  and  O_12
REMARK    6  A    between atoms: C_14  and  O_15
REMARK    7  A    between atoms: C_17  and  O_18
REMARK    8  A    between atoms: C_20  and  O_21
REMARK                            x       y       z     vdW  Elec       q    Type
REMARK                         _______ _______ _______ _____ _____    ______ ____
ROOT
ATOM      1  O   UNL     1       4.021   3.107  19.785  0.00  0.00    +0.000 OA
ATOM      2  C   UNL     1       4.177   4.263  19.396  0.00  0.00    +0.000 C 
ENDROOT
BRANCH   2   3
ATOM      3  C   UNL     1       5.144   4.530  18.301  0.00  0.00    +0.000 A 
ATOM      4  C   UNL     1       4.767   4.197  16.987  0.00  0.00    +0.000 A 
ATOM      5  C   UNL     1       5.619   4.442  15.910  0.00  0.00    +0.000 A 
ATOM      6  C   UNL     1       6.866   5.001  16.148  0.00  0.00    +0.000 A 
ATOM      7  C   UNL     1       7.276   5.320  17.440  0.00  0.00    +0.000 A 
ATOM      8  C   UNL     1       6.417   5.080  18.514  0.00  0.00    +0.000 A 
BRANCH   4   9
ATOM      9  O   UNL     1       3.557   3.629  16.678  0.00  0.00    +0.000 OA
ATOM     10  H   UNL     1       3.239   4.035  15.838  0.00  0.00    +0.000 HD
ENDBRANCH   4   9
BRANCH   6  11
ATOM     11  O   UNL     1       7.741   5.250  15.132  0.00  0.00    +0.000 OA
ATOM     12  H   UNL     1       8.466   5.800  15.474  0.00  0.00    +0.000 HD
ENDBRANCH   6  11
BRANCH   8  13
ATOM     13  O   UNL     1       6.853   5.372  19.778  0.00  0.00    +0.000 OA
ATOM     14  H   UNL     1       7.175   4.561  20.209  0.00  0.00    +0.000 HD
ENDBRANCH   8  13
ENDBRANCH   2   3
BRANCH   2  15
ATOM     15  C   UNL     1       3.325   5.379  19.875  0.00  0.00    +0.000 C 
ATOM     16  C   UNL     1       2.964   6.373  19.050  0.00  0.00    +0.000 C 
BRANCH  16  17
ATOM     17  C   UNL     1       2.135   7.519  19.469  0.00  0.00    +0.000 A 
ATOM     18  C   UNL     1       1.595   7.585  20.766  0.00  0.00    +0.000 A 
ATOM     19  C   UNL     1       0.823   8.676  21.171  0.00  0.00    +0.000 A 
ATOM     20  C   UNL     1       0.604   9.721  20.283  0.00  0.00    +0.000 A 
ATOM     21  C   UNL     1       1.140   9.695  19.003  0.00  0.00    +0.000 A 
ATOM     22  C   UNL     1       1.906   8.600  18.602  0.00  0.00    +0.000 A 
BRANCH  20  23
ATOM     23  O   UNL     1      -0.139  10.808  20.642  0.00  0.00    +0.000 OA
ATOM     24  H   UNL     1      -1.070  10.635  20.421  0.00  0.00    +0.000 HD
ENDBRANCH  20  23
BRANCH  22  25
ATOM     25  O   UNL     1       2.438   8.574  17.339  0.00  0.00    +0.000 OA
ATOM     26  H   UNL     1       1.958   9.211  16.784  0.00  0.00    +0.000 HD
ENDBRANCH  22  25
ENDBRANCH  16  17
ENDBRANCH   2  15
TORSDOF 8
ENDMDL
MODEL 2
REMARK VINA RESULT:      -7.0      0.161      1.838
REMARK  Name = 
REMARK  8 active torsions:
REMARK  status: ('A' for Active; 'I' for Inactive)
REMARK    1  A    between atoms: C_2  and  C_3
REMARK    2  A    between atoms: C_2  and  C_13
REMARK    3  A    between atoms: C_4  and  C_5
REMARK    4  A    between atoms: C_8  and  O_9
REMARK    5  A    between atoms: C_11  and  O_12
REMARK    6  A    between atoms: C_14  and  O_15
REMARK    7  A    between atoms: C_17  and  O_18
REMARK    8  A    between atoms: C_20  and  O_21
REMARK                            x       y       z     vdW  Elec       q    Type
REMARK                         _______ _______ _______ _____ _____    ______ ____
ROOT
ATOM      1  O   UNL     1       4.014   3.054  19.921  0.00  0.00    +0.000 OA
ATOM      2  C   UNL     1       4.155   4.181  19.451  0.00  0.00    +0.000 C 
ENDROOT
BRANCH   2   3
ATOM      3  C   UNL     1       5.066   4.370  18.292  0.00  0.00    +0.000 A 
ATOM      4  C   UNL     1       6.342   4.910  18.533  0.00  0.00    +0.000 A 
ATOM      5  C   UNL     1       7.254   5.093  17.494  0.00  0.00    +0.000 A 
ATOM      6  C   UNL     1       6.881   4.757  16.200  0.00  0.00    +0.000 A 
ATOM      7  C   UNL     1       5.617   4.241  15.928  0.00  0.00    +0.000 A 
ATOM      8  C   UNL     1       4.710   4.053  16.972  0.00  0.00    +0.000 A 
BRANCH   4   9
ATOM      9  O   UNL     1       6.773   5.279  19.782  0.00  0.00    +0.000 OA
ATOM     10  H   UNL     1       6.409   6.175  19.975  0.00  0.00    +0.000 HD
ENDBRANCH   4   9
BRANCH   6  11
ATOM     11  O   UNL     1       7.731   4.927  15.148  0.00  0.00    +0.000 OA
ATOM     12  H   UNL     1       8.502   4.349  15.275  0.00  0.00    +0.000 HD
ENDBRANCH   6  11
BRANCH   8  13
ATOM     13  O   UNL     1       3.463   3.574  16.677  0.00  0.00    +0.000 OA
ATOM     14  H   UNL     1       3.473   2.601  16.690  0.00  0.00    +0.000 HD
ENDBRANCH   8  13
ENDBRANCH   2   3
BRANCH   2  15
ATOM     15  C   UNL     1       3.334   5.333  19.899  0.00  0.00    +0.000 C 
ATOM     16  C   UNL     1       2.962   6.290  19.037  0.00  0.00    +0.000 C 
BRANCH  16  17
ATOM     17  C   UNL     1       2.162   7.468  19.423  0.00  0.00    +0.000 A 
ATOM     18  C   UNL     1       1.614   7.578  20.713  0.00  0.00    +0.000 A 
ATOM     19  C   UNL     1       0.870   8.699  21.088  0.00  0.00    +0.000 A 
ATOM     20  C   UNL     1       0.688   9.730  20.174  0.00  0.00    +0.000 A 
ATOM     21  C   UNL     1       1.232   9.660  18.900  0.00  0.00    +0.000 A 
ATOM     22  C   UNL     1       1.971   8.535  18.530  0.00  0.00    +0.000 A 
BRANCH  20  23
ATOM     23  O   UNL     1      -0.028  10.845  20.503  0.00  0.00    +0.000 OA
ATOM     24  H   UNL     1      -0.716  10.596  21.143  0.00  0.00    +0.000 HD
ENDBRANCH  20  23
BRANCH  22  25
ATOM     25  O   UNL     1       2.512   8.466  17.272  0.00  0.00    +0.000 OA
ATOM     26  H   UNL     1       1.794   8.348  16.629  0.00  0.00    +0.000 HD
ENDBRANCH  22  25
ENDBRANCH  16  17
ENDBRANCH   2  15
TORSDOF 8
ENDMDL
MODEL 3
REMARK VINA RESULT:      -6.9      2.831      6.974
REMARK  Name = 
REMARK  8 active torsions:
REMARK  status: ('A' for Active; 'I' for Inactive)
REMARK    1  A    between atoms: C_2  and  C_3
REMARK    2  A    between atoms: C_2  and  C_13
REMARK    3  A    between atoms: C_4  and  C_5
REMARK    4  A    between atoms: C_8  and  O_9
REMARK    5  A    between atoms: C_11  and  O_12
REMARK    6  A    between atoms: C_14  and  O_15
REMARK    7  A    between atoms: C_17  and  O_18
REMARK    8  A    between atoms: C_20  and  O_21
REMARK                            x       y       z     vdW  Elec       q    Type
REMARK                         _______ _______ _______ _____ _____    ______ ____
ROOT
ATOM      1  O   UNL     1       6.161   5.455  19.809  0.00  0.00    +0.000 OA
ATOM      2  C   UNL     1       5.563   4.712  19.033  0.00  0.00    +0.000 C 
ENDROOT
BRANCH   2   3
ATOM      3  C   UNL     1       4.208   4.226  19.401  0.00  0.00    +0.000 A 
ATOM      4  C   UNL     1       3.143   5.144  19.370  0.00  0.00    +0.000 A 
ATOM      5  C   UNL     1       1.842   4.749  19.682  0.00  0.00    +0.000 A 
ATOM      6  C   UNL     1       1.607   3.433  20.053  0.00  0.00    +0.000 A 
ATOM      7  C   UNL     1       2.644   2.507  20.115  0.00  0.00    +0.000 A 
ATOM      8  C   UNL     1       3.944   2.905  19.794  0.00  0.00    +0.000 A 
BRANCH   4   9
ATOM      9  O   UNL     1       3.303   6.463  19.027  0.00  0.00    +0.000 OA
ATOM     10  H   UNL     1       2.878   6.600  18.148  0.00  0.00    +0.000 HD
ENDBRANCH   4   9
BRANCH   6  11
ATOM     11  O   UNL     1       0.356   2.998  20.380  0.00  0.00    +0.000 OA
ATOM     12  H   UNL     1       0.065   2.358  19.708  0.00  0.00    +0.000 HD
ENDBRANCH   6  11
BRANCH   8  13
ATOM     13  O   UNL     1       4.953   1.987  19.893  0.00  0.00    +0.000 OA
ATOM     14  H   UNL     1       4.940   1.401  19.116  0.00  0.00    +0.000 HD
ENDBRANCH   8  13
ENDBRANCH   2   3
BRANCH   2  15
ATOM     15  C   UNL     1       6.079   4.404  17.677  0.00  0.00    +0.000 C 
ATOM     16  C   UNL     1       5.446   4.849  16.581  0.00  0.00    +0.000 C 
BRANCH  16  17
ATOM     17  C   UNL     1       5.898   4.562  15.207  0.00  0.00    +0.000 A 
ATOM     18  C   UNL     1       5.147   3.732  14.356  0.00  0.00    +0.000 A 
ATOM     19  C   UNL     1       5.564   3.473  13.048  0.00  0.00    +0.000 A 
ATOM     20  C   UNL     1       6.731   4.062  12.577  0.00  0.00    +0.000 A 
ATOM     21  C   UNL     1       7.484   4.901  13.386  0.00  0.00    +0.000 A 
ATOM     22  C   UNL     1       7.064   5.153  14.693  0.00  0.00    +0.000 A 
BRANCH  20  23
ATOM     23  O   UNL     1       7.169   3.838  11.304  0.00  0.00    +0.000 OA
ATOM     24  H   UNL     1       6.403   3.840  10.706  0.00  0.00    +0.000 HD
ENDBRANCH  20  23
BRANCH  22  25
ATOM     25  O   UNL     1       7.807   5.984  15.492  0.00  0.00    +0.000 OA
ATOM     26  H   UNL     1       7.492   5.903  16.407  0.00  0.00    +0.000 HD
ENDBRANCH  22  25
ENDBRANCH  16  17
ENDBRANCH   2  15
TORSDOF 8
ENDMDL
MODEL 4
REMARK VINA RESULT:      -6.8      2.184      3.628
REMARK  Name = 
REMARK  8 active torsions:
REMARK  status: ('A' for Active; 'I' for Inactive)
REMARK    1  A    between atoms: C_2  and  C_3
REMARK    2  A    between atoms: C_2  and  C_13
REMARK    3  A    between atoms: C_4  and  C_5
REMARK    4  A    between atoms: C_8  and  O_9
REMARK    5  A    between atoms: C_11  and  O_12
REMARK    6  A    between atoms: C_14  and  O_15
REMARK    7  A    between atoms: C_17  and  O_18
REMARK    8  A    between atoms: C_20  and  O_21
REMARK                            x       y       z     vdW  Elec       q    Type
REMARK                         _______ _______ _______ _____ _____    ______ ____
ROOT
ATOM      1  O   UNL     1       3.665   6.996  17.456  0.00  0.00    +0.000 OA
ATOM      2  C   UNL     1       3.069   6.343  18.309  0.00  0.00    +0.000 C 
ENDROOT
BRANCH   2   3
ATOM      3  C   UNL     1       3.239   4.867  18.337  0.00  0.00    +0.000 A 
ATOM      4  C   UNL     1       4.430   4.347  18.874  0.00  0.00    +0.000 A 
ATOM      5  C   UNL     1       4.644   2.970  18.950  0.00  0.00    +0.000 A 
ATOM      6  C   UNL     1       3.673   2.108  18.463  0.00  0.00    +0.000 A 
ATOM      7  C   UNL     1       2.494   2.594  17.906  0.00  0.00    +0.000 A 
ATOM      8  C   UNL     1       2.280   3.972  17.838  0.00  0.00    +0.000 A 
BRANCH   4   9
ATOM      9  O   UNL     1       5.439   5.138  19.360  0.00  0.00    +0.000 OA
ATOM     10  H   UNL     1       5.086   5.637  20.134  0.00  0.00    +0.000 HD
ENDBRANCH   4   9
BRANCH   6  11
ATOM     11  O   UNL     1       3.838   0.754  18.503  0.00  0.00    +0.000 OA
ATOM     12  H   UNL     1       3.021   0.351  18.842  0.00  0.00    +0.000 HD
ENDBRANCH   6  11
BRANCH   8  13
ATOM     13  O   UNL     1       1.129   4.428  17.257  0.00  0.00    +0.000 OA
ATOM     14  H   UNL     1       0.359   4.094  17.749  0.00  0.00    +0.000 HD
ENDBRANCH   8  13
ENDBRANCH   2   3
BRANCH   2  15
ATOM     15  C   UNL     1       2.305   6.986  19.406  0.00  0.00    +0.000 C 
ATOM     16  C   UNL     1       1.852   8.243  19.285  0.00  0.00    +0.000 C 
BRANCH  16  17
ATOM     17  C   UNL     1       1.102   8.944  20.345  0.00  0.00    +0.000 A 
ATOM     18  C   UNL     1       1.300   8.628  21.701  0.00  0.00    +0.000 A 
ATOM     19  C   UNL     1       0.605   9.301  22.708  0.00  0.00    +0.000 A 
ATOM     20  C   UNL     1      -0.283  10.313  22.361  0.00  0.00    +0.000 A 
ATOM     21  C   UNL     1      -0.486  10.661  21.034  0.00  0.00    +0.000 A 
ATOM     22  C   UNL     1       0.209   9.982  20.031  0.00  0.00    +0.000 A 
BRANCH  20  23
ATOM     23  O   UNL     1      -0.978  10.998  23.315  0.00  0.00    +0.000 OA
ATOM     24  H   UNL     1      -0.368  11.239  24.032  0.00  0.00    +0.000 HD
ENDBRANCH  20  23
BRANCH  22  25
ATOM     25  O   UNL     1       0.010  10.326  18.720  0.00  0.00    +0.000 OA
ATOM     26  H   UNL     1      -0.833  10.801  18.645  0.00  0.00    +0.000 HD
ENDBRANCH  22  25
ENDBRANCH  16  17
ENDBRANCH   2  15
TORSDOF 8
ENDMDL
MODEL 5
REMARK VINA RESULT:      -6.8      2.813      6.958
REMARK  Name = 
REMARK  8 active torsions:
REMARK  status: ('A' for Active; 'I' for Inactive)
REMARK    1  A    between atoms: C_2  and  C_3
REMARK    2  A    between atoms: C_2  and  C_13
REMARK    3  A    between atoms: C_4  and  C_5
REMARK    4  A    between atoms: C_8  and  O_9
REMARK    5  A    between atoms: C_11  and  O_12
REMARK    6  A    between atoms: C_14  and  O_15
REMARK    7  A    between atoms: C_17  and  O_18
REMARK    8  A    between atoms: C_20  and  O_21
REMARK                            x       y       z     vdW  Elec       q    Type
REMARK                         _______ _______ _______ _____ _____    ______ ____
ROOT
ATOM      1  O   UNL     1       6.268   5.344  19.891  0.00  0.00    +0.000 OA
ATOM      2  C   UNL     1       5.625   4.687  19.075  0.00  0.00    +0.000 C 
ENDROOT
BRANCH   2   3
ATOM      3  C   UNL     1       4.230   4.297  19.404  0.00  0.00    +0.000 A 
ATOM      4  C   UNL     1       3.977   2.954  19.737  0.00  0.00    +0.000 A 
ATOM      5  C   UNL     1       2.694   2.525  20.077  0.00  0.00    +0.000 A 
ATOM      6  C   UNL     1       1.650   3.439  20.060  0.00  0.00    +0.000 A 
ATOM      7  C   UNL     1       1.865   4.770  19.713  0.00  0.00    +0.000 A 
ATOM      8  C   UNL     1       3.153   5.196  19.381  0.00  0.00    +0.000 A 
BRANCH   4   9
ATOM      9  O   UNL     1       4.956   1.993  19.760  0.00  0.00    +0.000 OA
ATOM     10  H   UNL     1       5.703   2.336  20.304  0.00  0.00    +0.000 HD
ENDBRANCH   4   9
BRANCH   6  11
ATOM     11  O   UNL     1       0.375   3.070  20.374  0.00  0.00    +0.000 OA
ATOM     12  H   UNL     1      -0.239   3.718  19.989  0.00  0.00    +0.000 HD
ENDBRANCH   6  11
BRANCH   8  13
ATOM     13  O   UNL     1       3.335   6.501  19.012  0.00  0.00    +0.000 OA
ATOM     14  H   UNL     1       3.783   6.984  19.728  0.00  0.00    +0.000 HD
ENDBRANCH   8  13
ENDBRANCH   2   3
BRANCH   2  15
ATOM     15  C   UNL     1       6.138   4.396  17.713  0.00  0.00    +0.000 C 
ATOM     16  C   UNL     1       5.473   4.812  16.625  0.00  0.00    +0.000 C 
BRANCH  16  17
ATOM     17  C   UNL     1       5.921   4.541  15.245  0.00  0.00    +0.000 A 
ATOM     18  C   UNL     1       5.177   3.703  14.396  0.00  0.00    +0.000 A 
ATOM     19  C   UNL     1       5.589   3.457  13.084  0.00  0.00    +0.000 A 
ATOM     20  C   UNL     1       6.742   4.069  12.607  0.00  0.00    +0.000 A 
ATOM     21  C   UNL     1       7.486   4.917  13.414  0.00  0.00    +0.000 A 
ATOM     22  C   UNL     1       7.072   5.155  14.726  0.00  0.00    +0.000 A 
BRANCH  20  23
ATOM     23  O   UNL     1       7.175   3.860  11.330  0.00  0.00    +0.000 OA
ATOM     24  H   UNL     1       7.470   2.937  11.248  0.00  0.00    +0.000 HD
ENDBRANCH  20  23
BRANCH  22  25
ATOM     25  O   UNL     1       7.806   5.995  15.524  0.00  0.00    +0.000 OA
ATOM     26  H   UNL     1       8.663   6.162  15.098  0.00  0.00    +0.000 HD
ENDBRANCH  22  25
ENDBRANCH  16  17
ENDBRANCH   2  15
TORSDOF 8
ENDMDL
MODEL 6
REMARK VINA RESULT:      -6.8      1.117      1.548
REMARK  Name = 
REMARK  8 active torsions:
REMARK  status: ('A' for Active; 'I' for Inactive)
REMARK    1  A    between atoms: C_2  and  C_3
REMARK    2  A    between atoms: C_2  and  C_13
REMARK    3  A    between atoms: C_4  and  C_5
REMARK    4  A    between atoms: C_8  and  O_9
REMARK    5  A    between atoms: C_11  and  O_12
REMARK    6  A    between atoms: C_14  and  O_15
REMARK    7  A    between atoms: C_17  and  O_18
REMARK    8  A    between atoms: C_20  and  O_21
REMARK                            x       y       z     vdW  Elec       q    Type
REMARK                         _______ _______ _______ _____ _____    ______ ____
ROOT
ATOM      1  O   UNL     1       3.654   3.358  19.951  0.00  0.00    +0.000 OA
ATOM      2  C   UNL     1       3.777   4.383  19.283  0.00  0.00    +0.000 C 
ENDROOT
BRANCH   2   3
ATOM      3  C   UNL     1       4.871   4.463  18.280  0.00  0.00    +0.000 A 
ATOM      4  C   UNL     1       4.600   4.036  16.968  0.00  0.00    +0.000 A 
ATOM      5  C   UNL     1       5.575   4.105  15.973  0.00  0.00    +0.000 A 
ATOM      6  C   UNL     1       6.838   4.579  16.296  0.00  0.00    +0.000 A 
ATOM      7  C   UNL     1       7.143   4.987  17.592  0.00  0.00    +0.000 A 
ATOM      8  C   UNL     1       6.161   4.924  18.583  0.00  0.00    +0.000 A 
BRANCH   4   9
ATOM      9  O   UNL     1       3.380   3.543  16.579  0.00  0.00    +0.000 OA
ATOM     10  H   UNL     1       2.830   3.427  17.389  0.00  0.00    +0.000 HD
ENDBRANCH   4   9
BRANCH   6  11
ATOM     11  O   UNL     1       7.830   4.656  15.364  0.00  0.00    +0.000 OA
ATOM     12  H   UNL     1       7.452   4.994  14.535  0.00  0.00    +0.000 HD
ENDBRANCH   6  11
BRANCH   8  13
ATOM     13  O   UNL     1       6.492   5.299  19.856  0.00  0.00    +0.000 OA
ATOM     14  H   UNL     1       7.453   5.221  19.982  0.00  0.00    +0.000 HD
ENDBRANCH   8  13
ENDBRANCH   2   3
BRANCH   2  15
ATOM     15  C   UNL     1       2.784   5.484  19.334  0.00  0.00    +0.000 C 
ATOM     16  C   UNL     1       3.129   6.738  19.006  0.00  0.00    +0.000 C 
BRANCH  16  17
ATOM     17  C   UNL     1       2.194   7.878  19.052  0.00  0.00    +0.000 A 
ATOM     18  C   UNL     1       1.862   8.589  17.885  0.00  0.00    +0.000 A 
ATOM     19  C   UNL     1       0.964   9.658  17.922  0.00  0.00    +0.000 A 
ATOM     20  C   UNL     1       0.376  10.010  19.131  0.00  0.00    +0.000 A 
ATOM     21  C   UNL     1       0.668   9.317  20.296  0.00  0.00    +0.000 A 
ATOM     22  C   UNL     1       1.570   8.252  20.253  0.00  0.00    +0.000 A 
BRANCH  20  23
ATOM     23  O   UNL     1      -0.510  11.045  19.209  0.00  0.00    +0.000 OA
ATOM     24  H   UNL     1      -0.115  11.754  19.744  0.00  0.00    +0.000 HD
ENDBRANCH  20  23
BRANCH  22  25
ATOM     25  O   UNL     1       1.857   7.564  21.404  0.00  0.00    +0.000 OA
ATOM     26  H   UNL     1       2.602   6.964  21.233  0.00  0.00    +0.000 HD
ENDBRANCH  22  25
ENDBRANCH  16  17
ENDBRANCH   2  15
TORSDOF 8
ENDMDL
MODEL 7
REMARK VINA RESULT:      -6.8      3.834      6.177
REMARK  Name = 
REMARK  8 active torsions:
REMARK  status: ('A' for Active; 'I' for Inactive)
REMARK    1  A    between atoms: C_2  and  C_3
REMARK    2  A    between atoms: C_2  and  C_13
REMARK    3  A    between atoms: C_4  and  C_5
REMARK    4  A    between atoms: C_8  and  O_9
REMARK    5  A    between atoms: C_11  and  O_12
REMARK    6  A    between atoms: C_14  and  O_15
REMARK    7  A    between atoms: C_17  and  O_18
REMARK    8  A    between atoms: C_20  and  O_21
REMARK                            x       y       z     vdW  Elec       q    Type
REMARK                         _______ _______ _______ _____ _____    ______ ____
ROOT
ATOM      1  O   UNL     1       4.243   2.367  16.980  0.00  0.00    +0.000 OA
ATOM      2  C   UNL     1       4.038   3.308  17.744  0.00  0.00    +0.000 C 
ENDROOT
BRANCH   2   3
ATOM      3  C   UNL     1       3.169   3.098  18.930  0.00  0.00    +0.000 A 
ATOM      4  C   UNL     1       3.744   2.534  20.083  0.00  0.00    +0.000 A 
ATOM      5  C   UNL     1       2.990   2.330  21.239  0.00  0.00    +0.000 A 
ATOM      6  C   UNL     1       1.644   2.668  21.235  0.00  0.00    +0.000 A 
ATOM      7  C   UNL     1       1.042   3.208  20.102  0.00  0.00    +0.000 A 
ATOM      8  C   UNL     1       1.803   3.417  18.950  0.00  0.00    +0.000 A 
BRANCH   4   9
ATOM      9  O   UNL     1       5.063   2.161  20.154  0.00  0.00    +0.000 OA
ATOM     10  H   UNL     1       5.500   2.437  19.315  0.00  0.00    +0.000 HD
ENDBRANCH   4   9
BRANCH   6  11
ATOM     11  O   UNL     1       0.860   2.479  22.334  0.00  0.00    +0.000 OA
ATOM     12  H   UNL     1       1.431   2.254  23.088  0.00  0.00    +0.000 HD
ENDBRANCH   6  11
BRANCH   8  13
ATOM     13  O   UNL     1       1.182   3.919  17.839  0.00  0.00    +0.000 OA
ATOM     14  H   UNL     1       0.244   3.660  17.842  0.00  0.00    +0.000 HD
ENDBRANCH   8  13
ENDBRANCH   2   3
BRANCH   2  15
ATOM     15  C   UNL     1       4.748   4.604  17.609  0.00  0.00    +0.000 C 
ATOM     16  C   UNL     1       5.954   4.790  18.167  0.00  0.00    +0.000 C 
BRANCH  16  17
ATOM     17  C   UNL     1       6.702   6.059  18.083  0.00  0.00    +0.000 A 
ATOM     18  C   UNL     1       6.305   7.076  17.197  0.00  0.00    +0.000 A 
ATOM     19  C   UNL     1       7.001   8.284  17.127  0.00  0.00    +0.000 A 
ATOM     20  C   UNL     1       8.092   8.490  17.963  0.00  0.00    +0.000 A 
ATOM     21  C   UNL     1       8.496   7.514  18.863  0.00  0.00    +0.000 A 
ATOM     22  C   UNL     1       7.799   6.306  18.924  0.00  0.00    +0.000 A 
BRANCH  20  23
ATOM     23  O   UNL     1       8.795   9.659  17.930  0.00  0.00    +0.000 OA
ATOM     24  H   UNL     1       9.739   9.452  17.826  0.00  0.00    +0.000 HD
ENDBRANCH  20  23
BRANCH  22  25
ATOM     25  O   UNL     1       8.197   5.342  19.814  0.00  0.00    +0.000 OA
ATOM     26  H   UNL     1       8.207   5.725  20.707  0.00  0.00    +0.000 HD
ENDBRANCH  22  25
ENDBRANCH  16  17
ENDBRANCH   2  15
TORSDOF 8
ENDMDL
MODEL 8
REMARK VINA RESULT:      -6.7      1.175      2.416
REMARK  Name = 
REMARK  8 active torsions:
REMARK  status: ('A' for Active; 'I' for Inactive)
REMARK    1  A    between atoms: C_2  and  C_3
REMARK    2  A    between atoms: C_2  and  C_13
REMARK    3  A    between atoms: C_4  and  C_5
REMARK    4  A    between atoms: C_8  and  O_9
REMARK    5  A    between atoms: C_11  and  O_12
REMARK    6  A    between atoms: C_14  and  O_15
REMARK    7  A    between atoms: C_17  and  O_18
REMARK    8  A    between atoms: C_20  and  O_21
REMARK                            x       y       z     vdW  Elec       q    Type
REMARK                         _______ _______ _______ _____ _____    ______ ____
ROOT
ATOM      1  O   UNL     1       3.651   3.565  19.998  0.00  0.00    +0.000 OA
ATOM      2  C   UNL     1       3.721   4.517  19.224  0.00  0.00    +0.000 C 
ENDROOT
BRANCH   2   3
ATOM      3  C   UNL     1       4.783   4.525  18.185  0.00  0.00    +0.000 A 
ATOM      4  C   UNL     1       6.079   4.915  18.564  0.00  0.00    +0.000 A 
ATOM      5  C   UNL     1       7.127   4.923  17.643  0.00  0.00    +0.000 A 
ATOM      6  C   UNL     1       6.873   4.564  16.328  0.00  0.00    +0.000 A 
ATOM      7  C   UNL     1       5.595   4.195  15.917  0.00  0.00    +0.000 A 
ATOM      8  C   UNL     1       4.551   4.180  16.844  0.00  0.00    +0.000 A 
BRANCH   4   9
ATOM      9  O   UNL     1       6.401   5.296  19.842  0.00  0.00    +0.000 OA
ATOM     10  H   UNL     1       6.429   4.485  20.401  0.00  0.00    +0.000 HD
ENDBRANCH   4   9
BRANCH   6  11
ATOM     11  O   UNL     1       7.859   4.566  15.386  0.00  0.00    +0.000 OA
ATOM     12  H   UNL     1       8.698   4.321  15.813  0.00  0.00    +0.000 HD
ENDBRANCH   6  11
BRANCH   8  13
ATOM     13  O   UNL     1       3.297   3.845  16.412  0.00  0.00    +0.000 OA
ATOM     14  H   UNL     1       2.717   4.626  16.452  0.00  0.00    +0.000 HD
ENDBRANCH   8  13
ENDBRANCH   2   3
BRANCH   2  15
ATOM     15  C   UNL     1       2.692   5.586  19.191  0.00  0.00    +0.000 C 
ATOM     16  C   UNL     1       3.043   6.880  19.222  0.00  0.00    +0.000 C 
BRANCH  16  17
ATOM     17  C   UNL     1       2.069   7.988  19.209  0.00  0.00    +0.000 A 
ATOM     18  C   UNL     1       1.681   8.596  18.001  0.00  0.00    +0.000 A 
ATOM     19  C   UNL     1       0.747   9.633  17.984  0.00  0.00    +0.000 A 
ATOM     20  C   UNL     1       0.179  10.058  19.179  0.00  0.00    +0.000 A 
ATOM     21  C   UNL     1       0.527   9.466  20.384  0.00  0.00    +0.000 A 
ATOM     22  C   UNL     1       1.464   8.431  20.396  0.00  0.00    +0.000 A 
BRANCH  20  23
ATOM     23  O   UNL     1      -0.742  11.065  19.204  0.00  0.00    +0.000 OA
ATOM     24  H   UNL     1      -0.278  11.907  19.347  0.00  0.00    +0.000 HD
ENDBRANCH  20  23
BRANCH  22  25
ATOM     25  O   UNL     1       1.807   7.844  21.587  0.00  0.00    +0.000 OA
ATOM     26  H   UNL     1       1.340   8.300  22.306  0.00  0.00    +0.000 HD
ENDBRANCH  22  25
ENDBRANCH  16  17
ENDBRANCH   2  15
TORSDOF 8
ENDMDL
MODEL 9
REMARK VINA RESULT:      -6.7      3.232      4.757
REMARK  Name = 
REMARK  8 active torsions:
REMARK  status: ('A' for Active; 'I' for Inactive)
REMARK    1  A    between atoms: C_2  and  C_3
REMARK    2  A    between atoms: C_2  and  C_13
REMARK    3  A    between atoms: C_4  and  C_5
REMARK    4  A    between atoms: C_8  and  O_9
REMARK    5  A    between atoms: C_11  and  O_12
REMARK    6  A    between atoms: C_14  and  O_15
REMARK    7  A    between atoms: C_17  and  O_18
REMARK    8  A    between atoms: C_20  and  O_21
REMARK                            x       y       z     vdW  Elec       q    Type
REMARK                         _______ _______ _______ _____ _____    ______ ____
ROOT
ATOM      1  O   UNL     1       7.421   6.679  18.548  0.00  0.00    +0.000 OA
ATOM      2  C   UNL     1       6.456   5.987  18.229  0.00  0.00    +0.000 C 
ENDROOT
BRANCH   2   3
ATOM      3  C   UNL     1       6.343   5.510  16.826  0.00  0.00    +0.000 A 
ATOM      4  C   UNL     1       7.240   4.519  16.388  0.00  0.00    +0.000 A 
ATOM      5  C   UNL     1       7.175   4.012  15.091  0.00  0.00    +0.000 A 
ATOM      6  C   UNL     1       6.224   4.516  14.215  0.00  0.00    +0.000 A 
ATOM      7  C   UNL     1       5.338   5.512  14.613  0.00  0.00    +0.000 A 
ATOM      8  C   UNL     1       5.401   6.012  15.915  0.00  0.00    +0.000 A 
BRANCH   4   9
ATOM      9  O   UNL     1       8.215   3.986  17.193  0.00  0.00    +0.000 OA
ATOM     10  H   UNL     1       7.990   4.208  18.127  0.00  0.00    +0.000 HD
ENDBRANCH   4   9
BRANCH   6  11
ATOM     11  O   UNL     1       6.125   4.062  12.933  0.00  0.00    +0.000 OA
ATOM     12  H   UNL     1       6.530   4.717  12.340  0.00  0.00    +0.000 HD
ENDBRANCH   6  11
BRANCH   8  13
ATOM     13  O   UNL     1       4.542   7.014  16.274  0.00  0.00    +0.000 OA
ATOM     14  H   UNL     1       4.781   7.352  17.155  0.00  0.00    +0.000 HD
ENDBRANCH   8  13
ENDBRANCH   2   3
BRANCH   2  15
ATOM     15  C   UNL     1       5.479   5.485  19.226  0.00  0.00    +0.000 C 
ATOM     16  C   UNL     1       4.655   4.468  18.931  0.00  0.00    +0.000 C 
BRANCH  16  17
ATOM     17  C   UNL     1       3.652   3.934  19.872  0.00  0.00    +0.000 A 
ATOM     18  C   UNL     1       2.454   4.628  20.121  0.00  0.00    +0.000 A 
ATOM     19  C   UNL     1       1.494   4.118  20.997  0.00  0.00    +0.000 A 
ATOM     20  C   UNL     1       1.721   2.895  21.617  0.00  0.00    +0.000 A 
ATOM     21  C   UNL     1       2.883   2.177  21.377  0.00  0.00    +0.000 A 
ATOM     22  C   UNL     1       3.841   2.694  20.503  0.00  0.00    +0.000 A 
BRANCH  20  23
ATOM     23  O   UNL     1       0.805   2.359  22.476  0.00  0.00    +0.000 OA
ATOM     24  H   UNL     1       1.069   1.446  22.682  0.00  0.00    +0.000 HD
ENDBRANCH  20  23
BRANCH  22  25
ATOM     25  O   UNL     1       4.990   1.985  20.264  0.00  0.00    +0.000 OA
ATOM     26  H   UNL     1       5.140   1.373  21.003  0.00  0.00    +0.000 HD
ENDBRANCH  22  25
ENDBRANCH  16  17
ENDBRANCH   2  15
TORSDOF 8
ENDMDL
