MODEL 1
REMARK VINA RESULT:      -7.6      0.000      0.000
REMARK  Name = 
REMARK  9 active torsions:
REMARK  status: ('A' for Active; 'I' for Inactive)
REMARK    1  A    between atoms: C_1  and  O_2
REMARK    2  A    between atoms: O_2  and  C_3
REMARK    3  A    between atoms: C_6  and  C_7
REMARK    4  A    between atoms: C_7  and  C_8
REMARK    5  A    between atoms: C_11  and  C_12
REMARK    6  A    between atoms: C_12  and  C_13
REMARK    7  A    between atoms: C_13  and  C_14
REMARK    8  A    between atoms: C_14  and  C_15
REMARK    9  A    between atoms: C_14  and  N_16
REMARK                            x       y       z     vdW  Elec       q    Type
REMARK                         _______ _______ _______ _____ _____    ______ ____
ROOT
ATOM      1  C   UNL     1       6.906   6.351  17.313  0.00  0.00    +0.000 A 
ATOM      2  N   UNL     1       7.448   5.687  18.344  0.00  0.00    +0.000 NA
ATOM      3  N   UNL     1       8.173   6.647  18.938  0.00  0.00    +0.000 N 
ATOM      4  C   UNL     1       8.089   7.833  18.262  0.00  0.00    +0.000 A 
ATOM      5  N   UNL     1       7.284   7.677  17.231  0.00  0.00    +0.000 NA
ATOM      6  H   UNL     1       8.692   6.446  19.785  0.00  0.00    +0.000 HD
ENDROOT
BRANCH   1   7
ATOM      7  C   UNL     1       6.119   5.675  16.242  0.00  0.00    +0.000 C 
BRANCH   7  11
ATOM      8  C   UNL     1       2.356   4.453  17.979  0.00  0.00    +0.000 A 
ATOM      9  C   UNL     1       3.134   3.546  17.264  0.00  0.00    +0.000 A 
ATOM     10  C   UNL     1       4.347   3.950  16.700  0.00  0.00    +0.000 A 
ATOM     11  C   UNL     1       4.791   5.268  16.821  0.00  0.00    +0.000 A 
ATOM     12  C   UNL     1       3.992   6.184  17.525  0.00  0.00    +0.000 A 
ATOM     13  C   UNL     1       2.777   5.775  18.102  0.00  0.00    +0.000 A 
BRANCH   8  15
ATOM     14  C   UNL     1       1.115   3.844  19.898  0.00  0.00    +0.000 C 
ATOM     15  O   UNL     1       1.183   3.945  18.481  0.00  0.00    +0.000 OA
ENDBRANCH   8  15
ENDBRANCH   7  11
ENDBRANCH   1   7
BRANCH   4  16
ATOM     16  C   UNL     1       8.855   9.042  18.675  0.00  0.00    +0.000 C 
BRANCH  16  17
ATOM     17  C   UNL     1       8.405  10.322  17.963  0.00  0.00    +0.000 C 
BRANCH  17  18
ATOM     18  C   UNL     1       9.081  11.618  18.482  0.00  0.00    +0.000 C 
ATOM     19  C   UNL     1       8.734  12.785  17.552  0.00  0.00    +0.000 C 
BRANCH  18  20
ATOM     20  N   UNL     1      10.497  11.411  18.857  0.00  0.00    +0.000 NA
ATOM     21  C   UNL     1      10.870  11.962  20.179  0.00  0.00    +0.000 C 
ATOM     22  C   UNL     1      11.306  13.440  20.180  0.00  0.00    +0.000 C 
ATOM     23  O   UNL     1      12.333  13.697  19.217  0.00  0.00    +0.000 OA
ATOM     24  C   UNL     1      11.918  13.296  17.906  0.00  0.00    +0.000 C 
ATOM     25  C   UNL     1      11.534  11.809  17.881  0.00  0.00    +0.000 C 
ENDBRANCH  18  20
ENDBRANCH  17  18
ENDBRANCH  16  17
ENDBRANCH   4  16
TORSDOF 7
ENDMDL
MODEL 2
REMARK VINA RESULT:      -7.5      1.064      1.654
REMARK  Name = 
REMARK  9 active torsions:
REMARK  status: ('A' for Active; 'I' for Inactive)
REMARK    1  A    between atoms: C_1  and  O_2
REMARK    2  A    between atoms: O_2  and  C_3
REMARK    3  A    between atoms: C_6  and  C_7
REMARK    4  A    between atoms: C_7  and  C_8
REMARK    5  A    between atoms: C_11  and  C_12
REMARK    6  A    between atoms: C_12  and  C_13
REMARK    7  A    between atoms: C_13  and  C_14
REMARK    8  A    between atoms: C_14  and  C_15
REMARK    9  A    between atoms: C_14  and  N_16
REMARK                            x       y       z     vdW  Elec       q    Type
REMARK                         _______ _______ _______ _____ _____    ______ ____
ROOT
ATOM      1  C   UNL     1       7.146   6.487  17.566  0.00  0.00    +0.000 A 
ATOM      2  N   UNL     1       7.849   6.206  18.672  0.00  0.00    +0.000 NA
ATOM      3  N   UNL     1       8.439   7.383  18.928  0.00  0.00    +0.000 N 
ATOM      4  C   UNL     1       8.122   8.322  17.987  0.00  0.00    +0.000 A 
ATOM      5  N   UNL     1       7.295   7.784  17.114  0.00  0.00    +0.000 NA
ATOM      6  H   UNL     1       9.032   7.490  19.744  0.00  0.00    +0.000 HD
ENDROOT
BRANCH   1   7
ATOM      7  C   UNL     1       6.420   5.445  16.783  0.00  0.00    +0.000 C 
BRANCH   7  11
ATOM      8  C   UNL     1       2.629   4.788  18.749  0.00  0.00    +0.000 A 
ATOM      9  C   UNL     1       3.574   3.768  18.672  0.00  0.00    +0.000 A 
ATOM     10  C   UNL     1       4.795   3.986  18.030  0.00  0.00    +0.000 A 
ATOM     11  C   UNL     1       5.084   5.215  17.435  0.00  0.00    +0.000 A 
ATOM     12  C   UNL     1       4.119   6.234  17.497  0.00  0.00    +0.000 A 
ATOM     13  C   UNL     1       2.894   6.018  18.152  0.00  0.00    +0.000 A 
BRANCH   8  15
ATOM     14  C   UNL     1       1.420   3.143  19.942  0.00  0.00    +0.000 C 
ATOM     15  O   UNL     1       1.465   4.455  19.397  0.00  0.00    +0.000 OA
ENDBRANCH   8  15
ENDBRANCH   7  11
ENDBRANCH   1   7
BRANCH   4  16
ATOM     16  C   UNL     1       8.701   9.695  18.002  0.00  0.00    +0.000 C 
BRANCH  16  17
ATOM     17  C   UNL     1       9.165  10.146  19.390  0.00  0.00    +0.000 C 
BRANCH  17  18
ATOM     18  C   UNL     1      10.136  11.356  19.382  0.00  0.00    +0.000 C 
ATOM     19  C   UNL     1      10.405  11.807  20.821  0.00  0.00    +0.000 C 
BRANCH  18  20
ATOM     20  N   UNL     1       9.764  12.379  18.380  0.00  0.00    +0.000 NA
ATOM     21  C   UNL     1      10.815  12.669  17.380  0.00  0.00    +0.000 C 
ATOM     22  C   UNL     1      11.837  13.748  17.789  0.00  0.00    +0.000 C 
ATOM     23  O   UNL     1      11.199  14.956  18.219  0.00  0.00    +0.000 OA
ATOM     24  C   UNL     1      10.284  14.697  19.290  0.00  0.00    +0.000 C 
ATOM     25  C   UNL     1       9.226  13.664  18.873  0.00  0.00    +0.000 C 
ENDBRANCH  18  20
ENDBRANCH  17  18
ENDBRANCH  16  17
ENDBRANCH   4  16
TORSDOF 7
ENDMDL
MODEL 3
REMARK VINA RESULT:      -7.4      1.522      1.845
REMARK  Name = 
REMARK  9 active torsions:
REMARK  status: ('A' for Active; 'I' for Inactive)
REMARK    1  A    between atoms: C_1  and  O_2
REMARK    2  A    between atoms: O_2  and  C_3
REMARK    3  A    between atoms: C_6  and  C_7
REMARK    4  A    between atoms: C_7  and  C_8
REMARK    5  A    between atoms: C_11  and  C_12
REMARK    6  A    between atoms: C_12  and  C_13
REMARK    7  A    between atoms: C_13  and  C_14
REMARK    8  A    between atoms: C_14  and  C_15
REMARK    9  A    between atoms: C_14  and  N_16
REMARK                            x       y       z     vdW  Elec       q    Type
REMARK                         _______ _______ _______ _____ _____    ______ ____
ROOT
ATOM      1  C   UNL     1       7.155   6.082  17.709  0.00  0.00    +0.000 A 
ATOM      2  N   UNL     1       7.891   5.953  18.822  0.00  0.00    +0.000 NA
ATOM      3  N   UNL     1       8.354   7.201  18.991  0.00  0.00    +0.000 N 
ATOM      4  C   UNL     1       7.932   8.034  17.994  0.00  0.00    +0.000 A 
ATOM      5  N   UNL     1       7.162   7.354  17.170  0.00  0.00    +0.000 NA
ATOM      6  H   UNL     1       8.937   7.425  19.789  0.00  0.00    +0.000 HD
ENDROOT
BRANCH   1   7
ATOM      7  C   UNL     1       6.540   4.919  17.008  0.00  0.00    +0.000 C 
BRANCH   7  11
ATOM      8  C   UNL     1       2.754   3.951  18.854  0.00  0.00    +0.000 A 
ATOM      9  C   UNL     1       2.797   4.608  17.627  0.00  0.00    +0.000 A 
ATOM     10  C   UNL     1       4.025   4.923  17.039  0.00  0.00    +0.000 A 
ATOM     11  C   UNL     1       5.227   4.609  17.675  0.00  0.00    +0.000 A 
ATOM     12  C   UNL     1       5.178   3.964  18.922  0.00  0.00    +0.000 A 
ATOM     13  C   UNL     1       3.943   3.638  19.509  0.00  0.00    +0.000 A 
BRANCH   8  15
ATOM     14  C   UNL     1       0.875   2.516  18.849  0.00  0.00    +0.000 C 
ATOM     15  O   UNL     1       1.493   3.700  19.336  0.00  0.00    +0.000 OA
ENDBRANCH   8  15
ENDBRANCH   7  11
ENDBRANCH   1   7
BRANCH   4  16
ATOM     16  C   UNL     1       8.361   9.459  17.909  0.00  0.00    +0.000 C 
BRANCH  16  17
ATOM     17  C   UNL     1       9.251   9.898  19.076  0.00  0.00    +0.000 C 
BRANCH  17  18
ATOM     18  C   UNL     1       9.711  11.378  19.011  0.00  0.00    +0.000 C 
ATOM     19  C   UNL     1      10.529  11.605  17.735  0.00  0.00    +0.000 C 
BRANCH  18  20
ATOM     20  N   UNL     1      10.261  11.861  20.297  0.00  0.00    +0.000 NA
ATOM     21  C   UNL     1       9.253  12.043  21.365  0.00  0.00    +0.000 C 
ATOM     22  C   UNL     1       8.557  13.417  21.391  0.00  0.00    +0.000 C 
ATOM     23  O   UNL     1       9.498  14.496  21.393  0.00  0.00    +0.000 OA
ATOM     24  C   UNL     1      10.386  14.402  20.274  0.00  0.00    +0.000 C 
ATOM     25  C   UNL     1      11.128  13.057  20.271  0.00  0.00    +0.000 C 
ENDBRANCH  18  20
ENDBRANCH  17  18
ENDBRANCH  16  17
ENDBRANCH   4  16
TORSDOF 7
ENDMDL
MODEL 4
REMARK VINA RESULT:      -7.3      1.245      1.440
REMARK  Name = 
REMARK  9 active torsions:
REMARK  status: ('A' for Active; 'I' for Inactive)
REMARK    1  A    between atoms: C_1  and  O_2
REMARK    2  A    between atoms: O_2  and  C_3
REMARK    3  A    between atoms: C_6  and  C_7
REMARK    4  A    between atoms: C_7  and  C_8
REMARK    5  A    between atoms: C_11  and  C_12
REMARK    6  A    between atoms: C_12  and  C_13
REMARK    7  A    between atoms: C_13  and  C_14
REMARK    8  A    between atoms: C_14  and  C_15
REMARK    9  A    between atoms: C_14  and  N_16
REMARK                            x       y       z     vdW  Elec       q    Type
REMARK                         _______ _______ _______ _____ _____    ______ ____
ROOT
ATOM      1  C   UNL     1       7.124   6.257  17.515  0.00  0.00    +0.000 A 
ATOM      2  N   UNL     1       7.841   6.066  18.632  0.00  0.00    +0.000 NA
ATOM      3  N   UNL     1       8.335   7.293  18.853  0.00  0.00    +0.000 N 
ATOM      4  C   UNL     1       7.951   8.174  17.881  0.00  0.00    +0.000 A 
ATOM      5  N   UNL     1       7.174   7.546  17.023  0.00  0.00    +0.000 NA
ATOM      6  H   UNL     1       8.913   7.472  19.667  0.00  0.00    +0.000 HD
ENDROOT
BRANCH   1   7
ATOM      7  C   UNL     1       6.486   5.137  16.764  0.00  0.00    +0.000 C 
BRANCH   7  11
ATOM      8  C   UNL     1       2.730   4.282  18.722  0.00  0.00    +0.000 A 
ATOM      9  C   UNL     1       3.831   3.448  18.903  0.00  0.00    +0.000 A 
ATOM     10  C   UNL     1       5.040   3.727  18.263  0.00  0.00    +0.000 A 
ATOM     11  C   UNL     1       5.165   4.828  17.414  0.00  0.00    +0.000 A 
ATOM     12  C   UNL     1       4.046   5.655  17.218  0.00  0.00    +0.000 A 
ATOM     13  C   UNL     1       2.832   5.380  17.872  0.00  0.00    +0.000 A 
BRANCH   8  15
ATOM     14  C   UNL     1       1.349   4.593  20.616  0.00  0.00    +0.000 C 
ATOM     15  O   UNL     1       1.596   3.904  19.397  0.00  0.00    +0.000 OA
ENDBRANCH   8  15
ENDBRANCH   7  11
ENDBRANCH   1   7
BRANCH   4  16
ATOM     16  C   UNL     1       8.421   9.588  17.855  0.00  0.00    +0.000 C 
BRANCH  16  17
ATOM     17  C   UNL     1       9.155  10.011  19.131  0.00  0.00    +0.000 C 
BRANCH  17  18
ATOM     18  C   UNL     1       9.435  11.533  19.237  0.00  0.00    +0.000 C 
ATOM     19  C   UNL     1       9.678  12.108  17.837  0.00  0.00    +0.000 C 
BRANCH  18  20
ATOM     20  N   UNL     1      10.396  11.863  20.312  0.00  0.00    +0.000 NA
ATOM     21  C   UNL     1       9.772  12.279  21.587  0.00  0.00    +0.000 C 
ATOM     22  C   UNL     1       9.449  13.781  21.707  0.00  0.00    +0.000 C 
ATOM     23  O   UNL     1      10.585  14.599  21.408  0.00  0.00    +0.000 OA
ATOM     24  C   UNL     1      11.106  14.298  20.109  0.00  0.00    +0.000 C 
ATOM     25  C   UNL     1      11.484  12.813  19.998  0.00  0.00    +0.000 C 
ENDBRANCH  18  20
ENDBRANCH  17  18
ENDBRANCH  16  17
ENDBRANCH   4  16
TORSDOF 7
ENDMDL
MODEL 5
REMARK VINA RESULT:      -7.2      1.426      1.992
REMARK  Name = 
REMARK  9 active torsions:
REMARK  status: ('A' for Active; 'I' for Inactive)
REMARK    1  A    between atoms: C_1  and  O_2
REMARK    2  A    between atoms: O_2  and  C_3
REMARK    3  A    between atoms: C_6  and  C_7
REMARK    4  A    between atoms: C_7  and  C_8
REMARK    5  A    between atoms: C_11  and  C_12
REMARK    6  A    between atoms: C_12  and  C_13
REMARK    7  A    between atoms: C_13  and  C_14
REMARK    8  A    between atoms: C_14  and  C_15
REMARK    9  A    between atoms: C_14  and  N_16
REMARK                            x       y       z     vdW  Elec       q    Type
REMARK                         _______ _______ _______ _____ _____    ______ ____
ROOT
ATOM      1  C   UNL     1       7.353   6.666  17.653  0.00  0.00    +0.000 A 
ATOM      2  N   UNL     1       8.081   6.481  18.764  0.00  0.00    +0.000 NA
ATOM      3  N   UNL     1       8.560   7.715  18.986  0.00  0.00    +0.000 N 
ATOM      4  C   UNL     1       8.156   8.593  18.020  0.00  0.00    +0.000 A 
ATOM      5  N   UNL     1       7.381   7.958  17.165  0.00  0.00    +0.000 NA
ATOM      6  H   UNL     1       9.141   7.899  19.795  0.00  0.00    +0.000 HD
ENDROOT
BRANCH   1   7
ATOM      7  C   UNL     1       6.725   5.540  16.903  0.00  0.00    +0.000 C 
BRANCH   7  11
ATOM      8  C   UNL     1       2.938   4.713  18.813  0.00  0.00    +0.000 A 
ATOM      9  C   UNL     1       4.065   3.951  19.112  0.00  0.00    +0.000 A 
ATOM     10  C   UNL     1       5.285   4.220  18.487  0.00  0.00    +0.000 A 
ATOM     11  C   UNL     1       5.395   5.237  17.537  0.00  0.00    +0.000 A 
ATOM     12  C   UNL     1       4.251   5.990  17.223  0.00  0.00    +0.000 A 
ATOM     13  C   UNL     1       3.026   5.726  17.861  0.00  0.00    +0.000 A 
BRANCH   8  15
ATOM     14  C   UNL     1       1.621   4.952  20.762  0.00  0.00    +0.000 C 
ATOM     15  O   UNL     1       1.796   4.353  19.485  0.00  0.00    +0.000 OA
ENDBRANCH   8  15
ENDBRANCH   7  11
ENDBRANCH   1   7
BRANCH   4  16
ATOM     16  C   UNL     1       8.606  10.014  17.995  0.00  0.00    +0.000 C 
BRANCH  16  17
ATOM     17  C   UNL     1       9.521  10.385  19.166  0.00  0.00    +0.000 C 
BRANCH  17  18
ATOM     18  C   UNL     1      10.175  11.787  19.051  0.00  0.00    +0.000 C 
ATOM     19  C   UNL     1      11.610  11.727  19.586  0.00  0.00    +0.000 C 
BRANCH  18  20
ATOM     20  N   UNL     1       9.289  12.871  19.528  0.00  0.00    +0.000 NA
ATOM     21  C   UNL     1       8.774  13.757  18.461  0.00  0.00    +0.000 C 
ATOM     22  C   UNL     1       9.681  14.949  18.096  0.00  0.00    +0.000 C 
ATOM     23  O   UNL     1      10.057  15.709  19.249  0.00  0.00    +0.000 OA
ATOM     24  C   UNL     1      10.689  14.876  20.227  0.00  0.00    +0.000 C 
ATOM     25  C   UNL     1       9.770  13.717  20.640  0.00  0.00    +0.000 C 
ENDBRANCH  18  20
ENDBRANCH  17  18
ENDBRANCH  16  17
ENDBRANCH   4  16
TORSDOF 7
ENDMDL
MODEL 6
REMARK VINA RESULT:      -7.2      1.405      2.089
REMARK  Name = 
REMARK  9 active torsions:
REMARK  status: ('A' for Active; 'I' for Inactive)
REMARK    1  A    between atoms: C_1  and  O_2
REMARK    2  A    between atoms: O_2  and  C_3
REMARK    3  A    between atoms: C_6  and  C_7
REMARK    4  A    between atoms: C_7  and  C_8
REMARK    5  A    between atoms: C_11  and  C_12
REMARK    6  A    between atoms: C_12  and  C_13
REMARK    7  A    between atoms: C_13  and  C_14
REMARK    8  A    between atoms: C_14  and  C_15
REMARK    9  A    between atoms: C_14  and  N_16
REMARK                            x       y       z     vdW  Elec       q    Type
REMARK                         _______ _______ _______ _____ _____    ______ ____
ROOT
ATOM      1  C   UNL     1       7.543   6.647  17.967  0.00  0.00    +0.000 A 
ATOM      2  N   UNL     1       6.690   7.148  17.062  0.00  0.00    +0.000 NA
ATOM      3  N   UNL     1       7.048   8.441  17.034  0.00  0.00    +0.000 N 
ATOM      4  C   UNL     1       8.058   8.703  17.917  0.00  0.00    +0.000 A 
ATOM      5  N   UNL     1       8.399   7.581  18.517  0.00  0.00    +0.000 NA
ATOM      6  H   UNL     1       6.584   9.086  16.405  0.00  0.00    +0.000 HD
ENDROOT
BRANCH   1   7
ATOM      7  C   UNL     1       7.451   5.248  18.475  0.00  0.00    +0.000 C 
BRANCH   7  11
ATOM      8  C   UNL     1       3.498   3.687  17.690  0.00  0.00    +0.000 A 
ATOM      9  C   UNL     1       4.463   3.714  16.685  0.00  0.00    +0.000 A 
ATOM     10  C   UNL     1       5.736   4.226  16.944  0.00  0.00    +0.000 A 
ATOM     11  C   UNL     1       6.061   4.739  18.201  0.00  0.00    +0.000 A 
ATOM     12  C   UNL     1       5.079   4.728  19.206  0.00  0.00    +0.000 A 
ATOM     13  C   UNL     1       3.801   4.203  18.948  0.00  0.00    +0.000 A 
BRANCH   8  15
ATOM     14  C   UNL     1       1.261   3.229  18.303  0.00  0.00    +0.000 C 
ATOM     15  O   UNL     1       2.283   3.168  17.317  0.00  0.00    +0.000 OA
ENDBRANCH   8  15
ENDBRANCH   7  11
ENDBRANCH   1   7
BRANCH   4  16
ATOM     16  C   UNL     1       8.594  10.077  18.131  0.00  0.00    +0.000 C 
BRANCH  16  17
ATOM     17  C   UNL     1       9.430  10.214  19.407  0.00  0.00    +0.000 C 
BRANCH  17  18
ATOM     18  C   UNL     1      10.434  11.396  19.394  0.00  0.00    +0.000 C 
ATOM     19  C   UNL     1      10.584  11.957  20.812  0.00  0.00    +0.000 C 
BRANCH  18  20
ATOM     20  N   UNL     1      10.185  12.343  18.284  0.00  0.00    +0.000 NA
ATOM     21  C   UNL     1      11.340  12.548  17.382  0.00  0.00    +0.000 C 
ATOM     22  C   UNL     1      12.331  13.647  17.814  0.00  0.00    +0.000 C 
ATOM     23  O   UNL     1      11.670  14.889  18.083  0.00  0.00    +0.000 OA
ATOM     24  C   UNL     1      10.644  14.720  19.067  0.00  0.00    +0.000 C 
ATOM     25  C   UNL     1       9.620  13.667  18.619  0.00  0.00    +0.000 C 
ENDBRANCH  18  20
ENDBRANCH  17  18
ENDBRANCH  16  17
ENDBRANCH   4  16
TORSDOF 7
ENDMDL
MODEL 7
REMARK VINA RESULT:      -7.2      1.600      2.260
REMARK  Name = 
REMARK  9 active torsions:
REMARK  status: ('A' for Active; 'I' for Inactive)
REMARK    1  A    between atoms: C_1  and  O_2
REMARK    2  A    between atoms: O_2  and  C_3
REMARK    3  A    between atoms: C_6  and  C_7
REMARK    4  A    between atoms: C_7  and  C_8
REMARK    5  A    between atoms: C_11  and  C_12
REMARK    6  A    between atoms: C_12  and  C_13
REMARK    7  A    between atoms: C_13  and  C_14
REMARK    8  A    between atoms: C_14  and  C_15
REMARK    9  A    between atoms: C_14  and  N_16
REMARK                            x       y       z     vdW  Elec       q    Type
REMARK                         _______ _______ _______ _____ _____    ______ ____
ROOT
ATOM      1  C   UNL     1       5.882   6.035  16.803  0.00  0.00    +0.000 A 
ATOM      2  N   UNL     1       6.841   5.976  15.868  0.00  0.00    +0.000 NA
ATOM      3  N   UNL     1       7.812   6.717  16.424  0.00  0.00    +0.000 N 
ATOM      4  C   UNL     1       7.428   7.224  17.634  0.00  0.00    +0.000 A 
ATOM      5  N   UNL     1       6.210   6.801  17.904  0.00  0.00    +0.000 NA
ATOM      6  H   UNL     1       8.699   6.837  15.948  0.00  0.00    +0.000 HD
ENDROOT
BRANCH   1   7
ATOM      7  C   UNL     1       4.513   5.483  16.591  0.00  0.00    +0.000 C 
BRANCH   7  11
ATOM      8  C   UNL     1       3.255   3.339  20.125  0.00  0.00    +0.000 A 
ATOM      9  C   UNL     1       2.486   4.384  19.618  0.00  0.00    +0.000 A 
ATOM     10  C   UNL     1       2.901   5.076  18.478  0.00  0.00    +0.000 A 
ATOM     11  C   UNL     1       4.101   4.754  17.841  0.00  0.00    +0.000 A 
ATOM     12  C   UNL     1       4.883   3.714  18.368  0.00  0.00    +0.000 A 
ATOM     13  C   UNL     1       4.460   3.010  19.509  0.00  0.00    +0.000 A 
BRANCH   8  15
ATOM     14  C   UNL     1       1.344   2.851  21.428  0.00  0.00    +0.000 C 
ATOM     15  O   UNL     1       2.750   2.738  21.251  0.00  0.00    +0.000 OA
ENDBRANCH   8  15
ENDBRANCH   7  11
ENDBRANCH   1   7
BRANCH   4  16
ATOM     16  C   UNL     1       8.297   8.138  18.428  0.00  0.00    +0.000 C 
BRANCH  16  17
ATOM     17  C   UNL     1       8.338   9.569  17.883  0.00  0.00    +0.000 C 
BRANCH  17  18
ATOM     18  C   UNL     1       9.428  10.469  18.521  0.00  0.00    +0.000 C 
ATOM     19  C   UNL     1       9.236  10.509  20.040  0.00  0.00    +0.000 C 
BRANCH  18  20
ATOM     20  N   UNL     1       9.606  11.747  17.798  0.00  0.00    +0.000 NA
ATOM     21  C   UNL     1      11.017  12.140  17.584  0.00  0.00    +0.000 C 
ATOM     22  C   UNL     1      11.662  12.944  18.730  0.00  0.00    +0.000 C 
ATOM     23  O   UNL     1      10.870  14.078  19.101  0.00  0.00    +0.000 OA
ATOM     24  C   UNL     1       9.540  13.681  19.451  0.00  0.00    +0.000 C 
ATOM     25  C   UNL     1       8.868  12.928  18.292  0.00  0.00    +0.000 C 
ENDBRANCH  18  20
ENDBRANCH  17  18
ENDBRANCH  16  17
ENDBRANCH   4  16
TORSDOF 7
ENDMDL
MODEL 8
REMARK VINA RESULT:      -7.1      1.120      1.886
REMARK  Name = 
REMARK  9 active torsions:
REMARK  status: ('A' for Active; 'I' for Inactive)
REMARK    1  A    between atoms: C_1  and  O_2
REMARK    2  A    between atoms: O_2  and  C_3
REMARK    3  A    between atoms: C_6  and  C_7
REMARK    4  A    between atoms: C_7  and  C_8
REMARK    5  A    between atoms: C_11  and  C_12
REMARK    6  A    between atoms: C_12  and  C_13
REMARK    7  A    between atoms: C_13  and  C_14
REMARK    8  A    between atoms: C_14  and  C_15
REMARK    9  A    between atoms: C_14  and  N_16
REMARK                            x       y       z     vdW  Elec       q    Type
REMARK                         _______ _______ _______ _____ _____    ______ ____
ROOT
ATOM      1  C   UNL     1       6.899   6.788  17.297  0.00  0.00    +0.000 A 
ATOM      2  N   UNL     1       7.482   6.102  18.290  0.00  0.00    +0.000 NA
ATOM      3  N   UNL     1       8.255   7.042  18.854  0.00  0.00    +0.000 N 
ATOM      4  C   UNL     1       8.158   8.236  18.197  0.00  0.00    +0.000 A 
ATOM      5  N   UNL     1       7.297   8.107  17.209  0.00  0.00    +0.000 NA
ATOM      6  H   UNL     1       8.814   6.821  19.671  0.00  0.00    +0.000 HD
ENDROOT
BRANCH   1   7
ATOM      7  C   UNL     1       6.043   6.139  16.262  0.00  0.00    +0.000 C 
BRANCH   7  11
ATOM      8  C   UNL     1       2.510   4.514  18.147  0.00  0.00    +0.000 A 
ATOM      9  C   UNL     1       2.747   5.887  18.147  0.00  0.00    +0.000 A 
ATOM     10  C   UNL     1       3.894   6.405  17.541  0.00  0.00    +0.000 A 
ATOM     11  C   UNL     1       4.834   5.561  16.946  0.00  0.00    +0.000 A 
ATOM     12  C   UNL     1       4.601   4.176  16.966  0.00  0.00    +0.000 A 
ATOM     13  C   UNL     1       3.442   3.656  17.567  0.00  0.00    +0.000 A 
BRANCH   8  15
ATOM     14  C   UNL     1       1.039   2.740  18.673  0.00  0.00    +0.000 C 
ATOM     15  O   UNL     1       1.356   4.122  18.777  0.00  0.00    +0.000 OA
ENDBRANCH   8  15
ENDBRANCH   7  11
ENDBRANCH   1   7
BRANCH   4  16
ATOM     16  C   UNL     1       8.967   9.427  18.581  0.00  0.00    +0.000 C 
BRANCH  16  17
ATOM     17  C   UNL     1       8.362  10.754  18.113  0.00  0.00    +0.000 C 
BRANCH  17  18
ATOM     18  C   UNL     1       9.380  11.918  17.995  0.00  0.00    +0.000 C 
ATOM     19  C   UNL     1      10.787  11.404  18.314  0.00  0.00    +0.000 C 
BRANCH  18  20
ATOM     20  N   UNL     1       8.912  13.153  18.662  0.00  0.00    +0.000 NA
ATOM     21  C   UNL     1       9.432  14.406  18.069  0.00  0.00    +0.000 C 
ATOM     22  C   UNL     1      10.793  14.881  18.614  0.00  0.00    +0.000 C 
ATOM     23  O   UNL     1      10.802  14.955  20.043  0.00  0.00    +0.000 OA
ATOM     24  C   UNL     1      10.439  13.697  20.623  0.00  0.00    +0.000 C 
ATOM     25  C   UNL     1       9.057  13.242  20.130  0.00  0.00    +0.000 C 
ENDBRANCH  18  20
ENDBRANCH  17  18
ENDBRANCH  16  17
ENDBRANCH   4  16
TORSDOF 7
ENDMDL
MODEL 9
REMARK VINA RESULT:      -7.1      1.375      1.945
REMARK  Name = 
REMARK  9 active torsions:
REMARK  status: ('A' for Active; 'I' for Inactive)
REMARK    1  A    between atoms: C_1  and  O_2
REMARK    2  A    between atoms: O_2  and  C_3
REMARK    3  A    between atoms: C_6  and  C_7
REMARK    4  A    between atoms: C_7  and  C_8
REMARK    5  A    between atoms: C_11  and  C_12
REMARK    6  A    between atoms: C_12  and  C_13
REMARK    7  A    between atoms: C_13  and  C_14
REMARK    8  A    between atoms: C_14  and  C_15
REMARK    9  A    between atoms: C_14  and  N_16
REMARK                            x       y       z     vdW  Elec       q    Type
REMARK                         _______ _______ _______ _____ _____    ______ ____
ROOT
ATOM      1  C   UNL     1       7.219   5.620  17.359  0.00  0.00    +0.000 A 
ATOM      2  N   UNL     1       7.335   6.374  16.256  0.00  0.00    +0.000 NA
ATOM      3  N   UNL     1       7.867   7.502  16.750  0.00  0.00    +0.000 N 
ATOM      4  C   UNL     1       8.032   7.430  18.105  0.00  0.00    +0.000 A 
ATOM      5  N   UNL     1       7.637   6.244  18.518  0.00  0.00    +0.000 NA
ATOM      6  H   UNL     1       8.099   8.271  16.131  0.00  0.00    +0.000 HD
ENDROOT
BRANCH   1   7
ATOM      7  C   UNL     1       6.525   4.300  17.366  0.00  0.00    +0.000 C 
BRANCH   7  11
ATOM      8  C   UNL     1       2.707   4.865  19.307  0.00  0.00    +0.000 A 
ATOM      9  C   UNL     1       3.616   3.927  19.790  0.00  0.00    +0.000 A 
ATOM     10  C   UNL     1       4.846   3.746  19.154  0.00  0.00    +0.000 A 
ATOM     11  C   UNL     1       5.179   4.479  18.014  0.00  0.00    +0.000 A 
ATOM     12  C   UNL     1       4.251   5.409  17.518  0.00  0.00    +0.000 A 
ATOM     13  C   UNL     1       3.017   5.599  18.165  0.00  0.00    +0.000 A 
BRANCH   8  15
ATOM     14  C   UNL     1       1.014   3.718  20.495  0.00  0.00    +0.000 C 
ATOM     15  O   UNL     1       1.530   4.951  20.009  0.00  0.00    +0.000 OA
ENDBRANCH   8  15
ENDBRANCH   7  11
ENDBRANCH   1   7
BRANCH   4  16
ATOM     16  C   UNL     1       8.542   8.577  18.908  0.00  0.00    +0.000 C 
BRANCH  16  17
ATOM     17  C   UNL     1       8.693   9.869  18.099  0.00  0.00    +0.000 C 
BRANCH  17  18
ATOM     18  C   UNL     1       9.550  10.963  18.789  0.00  0.00    +0.000 C 
ATOM     19  C   UNL     1       9.475  10.789  20.310  0.00  0.00    +0.000 C 
BRANCH  18  20
ATOM     20  N   UNL     1       9.321  12.310  18.221  0.00  0.00    +0.000 NA
ATOM     21  C   UNL     1      10.395  12.787  17.321  0.00  0.00    +0.000 C 
ATOM     22  C   UNL     1      11.565  13.511  18.013  0.00  0.00    +0.000 C 
ATOM     23  O   UNL     1      11.113  14.568  18.867  0.00  0.00    +0.000 OA
ATOM     24  C   UNL     1      10.179  14.078  19.836  0.00  0.00    +0.000 C 
ATOM     25  C   UNL     1       8.980  13.404  19.154  0.00  0.00    +0.000 C 
ENDBRANCH  18  20
ENDBRANCH  17  18
ENDBRANCH  16  17
ENDBRANCH   4  16
TORSDOF 7
ENDMDL
