MODEL 1
REMARK VINA RESULT:      -8.4      0.000      0.000
REMARK  Name = 
REMARK  11 active torsions:
REMARK  status: ('A' for Active; 'I' for Inactive)
REMARK    1  A    between atoms: C_1  and  C_2
REMARK    2  A    between atoms: C_5  and  N_6
REMARK    3  A    between atoms: N_6  and  C_7
REMARK    4  A    between atoms: C_7  and  C_8
REMARK    5  A    between atoms: C_8  and  C_10
REMARK    6  A    between atoms: C_16  and  O_17
REMARK    7  A    between atoms: C_18  and  C_19
REMARK    8  A    between atoms: C_19  and  C_20
REMARK    9  A    between atoms: N_22  and  C_23
REMARK   10  A    between atoms: C_23  and  C_24
REMARK   11  A    between atoms: C_27  and  C_28
REMARK                            x       y       z     vdW  Elec       q    Type
REMARK                         _______ _______ _______ _____ _____    ______ ____
ROOT
ATOM      1  C   UNL     1       1.019   3.446  18.352  0.00  0.00    +0.000 C 
ATOM      2  C   UNL     1       2.493   3.755  18.393  0.00  0.00    +0.000 A 
ATOM      3  C   UNL     1       3.342   3.044  17.529  0.00  0.00    +0.000 A 
ATOM      4  C   UNL     1       4.719   3.282  17.514  0.00  0.00    +0.000 A 
ATOM      5  C   UNL     1       5.298   4.236  18.357  0.00  0.00    +0.000 A 
ATOM      6  C   UNL     1       4.426   5.005  19.147  0.00  0.00    +0.000 A 
ATOM      7  C   UNL     1       3.041   4.761  19.218  0.00  0.00    +0.000 A 
ENDROOT
BRANCH   5   8
ATOM      8  N   UNL     1       6.681   4.405  18.287  0.00  0.00    +0.000 N 
ATOM      9  H   UNL     1       7.163   4.000  19.089  0.00  0.00    +0.000 HD
BRANCH   8  10
ATOM     10  C   UNL     1       7.394   4.240  17.017  0.00  0.00    +0.000 C 
BRANCH  10  11
ATOM     11  C   UNL     1       6.879   5.224  15.982  0.00  0.00    +0.000 C 
ATOM     12  O   UNL     1       6.447   6.329  16.317  0.00  0.00    +0.000 OA
BRANCH  11  13
ATOM     13  C   UNL     1       6.873   4.841  14.544  0.00  0.00    +0.000 A 
ATOM     14  C   UNL     1       5.956   3.867  14.131  0.00  0.00    +0.000 A 
ATOM     15  C   UNL     1       5.907   3.468  12.796  0.00  0.00    +0.000 A 
ATOM     16  C   UNL     1       6.765   4.051  11.865  0.00  0.00    +0.000 A 
ATOM     17  C   UNL     1       7.673   5.031  12.268  0.00  0.00    +0.000 A 
ATOM     18  C   UNL     1       7.734   5.424  13.607  0.00  0.00    +0.000 A 
ENDBRANCH  11  13
ENDBRANCH  10  11
ENDBRANCH   8  10
ENDBRANCH   5   8
BRANCH   6  19
ATOM     19  O   UNL     1       4.897   6.096  19.838  0.00  0.00    +0.000 OA
ATOM     20  H   UNL     1       4.917   6.810  19.180  0.00  0.00    +0.000 HD
ENDBRANCH   6  19
BRANCH   7  21
ATOM     21  C   UNL     1       2.205   5.605  20.155  0.00  0.00    +0.000 C 
BRANCH  21  22
ATOM     22  C   UNL     1       2.060   7.049  19.713  0.00  0.00    +0.000 C 
ATOM     23  O   UNL     1       2.301   7.395  18.558  0.00  0.00    +0.000 OA
ATOM     24  N   UNL     1       1.604   7.938  20.671  0.00  0.00    +0.000 N 
ATOM     25  H   UNL     1       1.643   7.657  21.644  0.00  0.00    +0.000 HD
BRANCH  24  26
ATOM     26  C   UNL     1       1.419   9.322  20.308  0.00  0.00    +0.000 C 
BRANCH  26  27
ATOM     27  C   UNL     1       0.324  10.034  21.062  0.00  0.00    +0.000 A 
ATOM     28  C   UNL     1       0.065   9.722  22.406  0.00  0.00    +0.000 A 
ATOM     29  C   UNL     1      -0.860  10.469  23.149  0.00  0.00    +0.000 A 
ATOM     30  C   UNL     1      -1.544  11.533  22.556  0.00  0.00    +0.000 A 
ATOM     31  C   UNL     1      -1.324  11.826  21.206  0.00  0.00    +0.000 A 
ATOM     32  C   UNL     1      -0.399  11.078  20.465  0.00  0.00    +0.000 A 
BRANCH  30  33
ATOM     33  C   UNL     1      -2.489  12.355  23.370  0.00  0.00    +0.000 C 
ATOM     34  N   UNL     1      -3.570  11.876  23.895  0.00  0.00    +0.000 NA
ATOM     35  N   UNL     1      -2.238  13.674  23.596  0.00  0.00    +0.000 N 
ATOM     36  H   UNL     1      -3.713  10.897  23.634  0.00  0.00    +0.000 HD
ATOM     37  H   UNL     1      -1.272  13.936  23.728  0.00  0.00    +0.000 HD
ATOM     38  H   UNL     1      -2.848  14.038  24.326  0.00  0.00    +0.000 HD
ENDBRANCH  30  33
ENDBRANCH  26  27
ENDBRANCH  24  26
ENDBRANCH  21  22
ENDBRANCH   7  21
TORSDOF 10
ENDMDL
MODEL 2
REMARK VINA RESULT:      -8.3      2.442      3.677
REMARK  Name = 
REMARK  11 active torsions:
REMARK  status: ('A' for Active; 'I' for Inactive)
REMARK    1  A    between atoms: C_1  and  C_2
REMARK    2  A    between atoms: C_5  and  N_6
REMARK    3  A    between atoms: N_6  and  C_7
REMARK    4  A    between atoms: C_7  and  C_8
REMARK    5  A    between atoms: C_8  and  C_10
REMARK    6  A    between atoms: C_16  and  O_17
REMARK    7  A    between atoms: C_18  and  C_19
REMARK    8  A    between atoms: C_19  and  C_20
REMARK    9  A    between atoms: N_22  and  C_23
REMARK   10  A    between atoms: C_23  and  C_24
REMARK   11  A    between atoms: C_27  and  C_28
REMARK                            x       y       z     vdW  Elec       q    Type
REMARK                         _______ _______ _______ _____ _____    ______ ____
ROOT
ATOM      1  C   UNL     1       2.227   2.152  20.494  0.00  0.00    +0.000 C 
ATOM      2  C   UNL     1       2.861   2.793  19.286  0.00  0.00    +0.000 A 
ATOM      3  C   UNL     1       2.947   2.039  18.106  0.00  0.00    +0.000 A 
ATOM      4  C   UNL     1       3.521   2.573  16.949  0.00  0.00    +0.000 A 
ATOM      5  C   UNL     1       4.028   3.876  16.928  0.00  0.00    +0.000 A 
ATOM      6  C   UNL     1       3.850   4.650  18.087  0.00  0.00    +0.000 A 
ATOM      7  C   UNL     1       3.316   4.130  19.281  0.00  0.00    +0.000 A 
ENDROOT
BRANCH   5   8
ATOM      8  N   UNL     1       4.594   4.329  15.736  0.00  0.00    +0.000 N 
ATOM      9  H   UNL     1       4.504   5.338  15.623  0.00  0.00    +0.000 HD
BRANCH   8  10
ATOM     10  C   UNL     1       5.866   3.784  15.254  0.00  0.00    +0.000 C 
BRANCH  10  11
ATOM     11  C   UNL     1       6.959   4.835  15.323  0.00  0.00    +0.000 C 
ATOM     12  O   UNL     1       7.569   5.183  14.310  0.00  0.00    +0.000 OA
BRANCH  11  13
ATOM     13  C   UNL     1       7.314   5.439  16.636  0.00  0.00    +0.000 A 
ATOM     14  C   UNL     1       7.325   6.837  16.731  0.00  0.00    +0.000 A 
ATOM     15  C   UNL     1       7.653   7.457  17.935  0.00  0.00    +0.000 A 
ATOM     16  C   UNL     1       7.957   6.684  19.054  0.00  0.00    +0.000 A 
ATOM     17  C   UNL     1       7.936   5.292  18.970  0.00  0.00    +0.000 A 
ATOM     18  C   UNL     1       7.621   4.666  17.761  0.00  0.00    +0.000 A 
ENDBRANCH  11  13
ENDBRANCH  10  11
ENDBRANCH   8  10
ENDBRANCH   5   8
BRANCH   6  19
ATOM     19  O   UNL     1       4.129   5.997  18.071  0.00  0.00    +0.000 OA
ATOM     20  H   UNL     1       4.210   6.239  19.008  0.00  0.00    +0.000 HD
ENDBRANCH   6  19
BRANCH   7  21
ATOM     21  C   UNL     1       3.233   5.033  20.492  0.00  0.00    +0.000 C 
BRANCH  21  22
ATOM     22  C   UNL     1       1.890   5.719  20.653  0.00  0.00    +0.000 C 
ATOM     23  O   UNL     1       0.834   5.094  20.564  0.00  0.00    +0.000 OA
ATOM     24  N   UNL     1       1.925   7.071  20.943  0.00  0.00    +0.000 N 
ATOM     25  H   UNL     1       2.789   7.575  20.778  0.00  0.00    +0.000 HD
BRANCH  24  26
ATOM     26  C   UNL     1       0.682   7.778  21.135  0.00  0.00    +0.000 C 
BRANCH  26  27
ATOM     27  C   UNL     1       0.630   9.151  20.513  0.00  0.00    +0.000 A 
ATOM     28  C   UNL     1       1.278   9.407  19.295  0.00  0.00    +0.000 A 
ATOM     29  C   UNL     1       1.125  10.641  18.648  0.00  0.00    +0.000 A 
ATOM     30  C   UNL     1       0.328  11.639  19.215  0.00  0.00    +0.000 A 
ATOM     31  C   UNL     1      -0.288  11.409  20.449  0.00  0.00    +0.000 A 
ATOM     32  C   UNL     1      -0.134  10.175  21.094  0.00  0.00    +0.000 A 
BRANCH  30  33
ATOM     33  C   UNL     1       0.130  12.931  18.492  0.00  0.00    +0.000 C 
ATOM     34  N   UNL     1       0.952  13.927  18.586  0.00  0.00    +0.000 NA
ATOM     35  N   UNL     1      -0.951  13.111  17.685  0.00  0.00    +0.000 N 
ATOM     36  H   UNL     1       1.704  13.731  19.251  0.00  0.00    +0.000 HD
ATOM     37  H   UNL     1      -1.260  12.311  17.153  0.00  0.00    +0.000 HD
ATOM     38  H   UNL     1      -0.838  13.946  17.110  0.00  0.00    +0.000 HD
ENDBRANCH  30  33
ENDBRANCH  26  27
ENDBRANCH  24  26
ENDBRANCH  21  22
ENDBRANCH   7  21
TORSDOF 10
ENDMDL
MODEL 3
REMARK VINA RESULT:      -8.2      3.974      7.303
REMARK  Name = 
REMARK  11 active torsions:
REMARK  status: ('A' for Active; 'I' for Inactive)
REMARK    1  A    between atoms: C_1  and  C_2
REMARK    2  A    between atoms: C_5  and  N_6
REMARK    3  A    between atoms: N_6  and  C_7
REMARK    4  A    between atoms: C_7  and  C_8
REMARK    5  A    between atoms: C_8  and  C_10
REMARK    6  A    between atoms: C_16  and  O_17
REMARK    7  A    between atoms: C_18  and  C_19
REMARK    8  A    between atoms: C_19  and  C_20
REMARK    9  A    between atoms: N_22  and  C_23
REMARK   10  A    between atoms: C_23  and  C_24
REMARK   11  A    between atoms: C_27  and  C_28
REMARK                            x       y       z     vdW  Elec       q    Type
REMARK                         _______ _______ _______ _____ _____    ______ ____
ROOT
ATOM      1  C   UNL     1      -0.420  10.331  22.934  0.00  0.00    +0.000 C 
ATOM      2  C   UNL     1       0.315   9.907  21.689  0.00  0.00    +0.000 A 
ATOM      3  C   UNL     1       0.597   8.542  21.521  0.00  0.00    +0.000 A 
ATOM      4  C   UNL     1       1.274   8.080  20.388  0.00  0.00    +0.000 A 
ATOM      5  C   UNL     1       1.692   8.961  19.386  0.00  0.00    +0.000 A 
ATOM      6  C   UNL     1       1.320  10.309  19.523  0.00  0.00    +0.000 A 
ATOM      7  C   UNL     1       0.677  10.813  20.669  0.00  0.00    +0.000 A 
ENDROOT
BRANCH   5   8
ATOM      8  N   UNL     1       2.370   8.420  18.293  0.00  0.00    +0.000 N 
ATOM      9  H   UNL     1       3.367   8.632  18.311  0.00  0.00    +0.000 HD
BRANCH   8  10
ATOM     10  C   UNL     1       2.055   7.074  17.805  0.00  0.00    +0.000 C 
BRANCH  10  11
ATOM     11  C   UNL     1       2.947   6.041  18.468  0.00  0.00    +0.000 C 
ATOM     12  O   UNL     1       4.173   6.164  18.462  0.00  0.00    +0.000 OA
BRANCH  11  13
ATOM     13  C   UNL     1       2.334   4.849  19.116  0.00  0.00    +0.000 A 
ATOM     14  C   UNL     1       2.561   4.661  20.485  0.00  0.00    +0.000 A 
ATOM     15  C   UNL     1       2.013   3.562  21.144  0.00  0.00    +0.000 A 
ATOM     16  C   UNL     1       1.225   2.653  20.442  0.00  0.00    +0.000 A 
ATOM     17  C   UNL     1       0.985   2.841  19.080  0.00  0.00    +0.000 A 
ATOM     18  C   UNL     1       1.542   3.935  18.413  0.00  0.00    +0.000 A 
ENDBRANCH  11  13
ENDBRANCH  10  11
ENDBRANCH   8  10
ENDBRANCH   5   8
BRANCH   6  19
ATOM     19  O   UNL     1       1.508  11.190  18.483  0.00  0.00    +0.000 OA
ATOM     20  H   UNL     1       2.473  11.252  18.390  0.00  0.00    +0.000 HD
ENDBRANCH   6  19
BRANCH   7  21
ATOM     21  C   UNL     1       0.384  12.296  20.742  0.00  0.00    +0.000 C 
BRANCH  21  22
ATOM     22  C   UNL     1      -0.869  12.710  19.994  0.00  0.00    +0.000 C 
ATOM     23  O   UNL     1      -0.916  13.755  19.348  0.00  0.00    +0.000 OA
ATOM     24  N   UNL     1      -1.932  11.827  20.049  0.00  0.00    +0.000 N 
ATOM     25  H   UNL     1      -1.926  11.111  20.767  0.00  0.00    +0.000 HD
BRANCH  24  26
ATOM     26  C   UNL     1      -3.145  12.148  19.336  0.00  0.00    +0.000 C 
BRANCH  26  27
ATOM     27  C   UNL     1      -3.284  11.481  17.990  0.00  0.00    +0.000 A 
ATOM     28  C   UNL     1      -4.464  11.624  17.243  0.00  0.00    +0.000 A 
ATOM     29  C   UNL     1      -4.551  11.118  15.938  0.00  0.00    +0.000 A 
ATOM     30  C   UNL     1      -3.460  10.457  15.366  0.00  0.00    +0.000 A 
ATOM     31  C   UNL     1      -2.295  10.273  16.117  0.00  0.00    +0.000 A 
ATOM     32  C   UNL     1      -2.211  10.780  17.420  0.00  0.00    +0.000 A 
BRANCH  30  33
ATOM     33  C   UNL     1      -3.545   9.968  13.957  0.00  0.00    +0.000 C 
ATOM     34  N   UNL     1      -2.503   9.738  13.224  0.00  0.00    +0.000 NA
ATOM     35  N   UNL     1      -4.756   9.737  13.379  0.00  0.00    +0.000 N 
ATOM     36  H   UNL     1      -1.639   9.988  13.712  0.00  0.00    +0.000 HD
ATOM     37  H   UNL     1      -5.478   9.357  13.973  0.00  0.00    +0.000 HD
ATOM     38  H   UNL     1      -4.648   9.217  12.509  0.00  0.00    +0.000 HD
ENDBRANCH  30  33
ENDBRANCH  26  27
ENDBRANCH  24  26
ENDBRANCH  21  22
ENDBRANCH   7  21
TORSDOF 10
ENDMDL
MODEL 4
REMARK VINA RESULT:      -8.2      3.482      5.775
REMARK  Name = 
REMARK  11 active torsions:
REMARK  status: ('A' for Active; 'I' for Inactive)
REMARK    1  A    between atoms: C_1  and  C_2
REMARK    2  A    between atoms: C_5  and  N_6
REMARK    3  A    between atoms: N_6  and  C_7
REMARK    4  A    between atoms: C_7  and  C_8
REMARK    5  A    between atoms: C_8  and  C_10
REMARK    6  A    between atoms: C_16  and  O_17
REMARK    7  A    between atoms: C_18  and  C_19
REMARK    8  A    between atoms: C_19  and  C_20
REMARK    9  A    between atoms: N_22  and  C_23
REMARK   10  A    between atoms: C_23  and  C_24
REMARK   11  A    between atoms: C_27  and  C_28
REMARK                            x       y       z     vdW  Elec       q    Type
REMARK                         _______ _______ _______ _____ _____    ______ ____
ROOT
ATOM      1  C   UNL     1      -0.109  10.078  21.644  0.00  0.00    +0.000 C 
ATOM      2  C   UNL     1       0.725   9.208  20.741  0.00  0.00    +0.000 A 
ATOM      3  C   UNL     1       1.181   7.978  21.244  0.00  0.00    +0.000 A 
ATOM      4  C   UNL     1       1.958   7.122  20.459  0.00  0.00    +0.000 A 
ATOM      5  C   UNL     1       2.307   7.459  19.148  0.00  0.00    +0.000 A 
ATOM      6  C   UNL     1       1.766   8.647  18.627  0.00  0.00    +0.000 A 
ATOM      7  C   UNL     1       1.017   9.552  19.403  0.00  0.00    +0.000 A 
ENDROOT
BRANCH   5   8
ATOM      8  N   UNL     1       3.093   6.552  18.436  0.00  0.00    +0.000 N 
ATOM      9  H   UNL     1       2.960   6.630  17.428  0.00  0.00    +0.000 HD
BRANCH   8  10
ATOM     10  C   UNL     1       4.477   6.283  18.837  0.00  0.00    +0.000 C 
BRANCH  10  11
ATOM     11  C   UNL     1       4.672   4.806  19.126  0.00  0.00    +0.000 C 
ATOM     12  O   UNL     1       5.794   4.345  19.347  0.00  0.00    +0.000 OA
BRANCH  11  13
ATOM     13  C   UNL     1       3.495   3.895  19.122  0.00  0.00    +0.000 A 
ATOM     14  C   UNL     1       3.193   3.223  17.931  0.00  0.00    +0.000 A 
ATOM     15  C   UNL     1       2.101   2.359  17.868  0.00  0.00    +0.000 A 
ATOM     16  C   UNL     1       1.314   2.152  18.999  0.00  0.00    +0.000 A 
ATOM     17  C   UNL     1       1.616   2.809  20.193  0.00  0.00    +0.000 A 
ATOM     18  C   UNL     1       2.702   3.686  20.256  0.00  0.00    +0.000 A 
ENDBRANCH  11  13
ENDBRANCH  10  11
ENDBRANCH   8  10
ENDBRANCH   5   8
BRANCH   6  19
ATOM     19  O   UNL     1       1.889   8.937  17.289  0.00  0.00    +0.000 OA
ATOM     20  H   UNL     1       2.237   9.844  17.268  0.00  0.00    +0.000 HD
ENDBRANCH   6  19
BRANCH   7  21
ATOM     21  C   UNL     1       0.541  10.836  18.760  0.00  0.00    +0.000 C 
BRANCH  21  22
ATOM     22  C   UNL     1      -0.849  10.742  18.161  0.00  0.00    +0.000 C 
ATOM     23  O   UNL     1      -1.146   9.857  17.361  0.00  0.00    +0.000 OA
ATOM     24  N   UNL     1      -1.768  11.680  18.599  0.00  0.00    +0.000 N 
ATOM     25  H   UNL     1      -1.421  12.509  19.068  0.00  0.00    +0.000 HD
BRANCH  24  26
ATOM     26  C   UNL     1      -3.116  11.628  18.089  0.00  0.00    +0.000 C 
BRANCH  26  27
ATOM     27  C   UNL     1      -4.188  11.963  19.096  0.00  0.00    +0.000 A 
ATOM     28  C   UNL     1      -5.513  11.548  18.892  0.00  0.00    +0.000 A 
ATOM     29  C   UNL     1      -6.485  11.741  19.883  0.00  0.00    +0.000 A 
ATOM     30  C   UNL     1      -6.146  12.358  21.091  0.00  0.00    +0.000 A 
ATOM     31  C   UNL     1      -4.838  12.813  21.288  0.00  0.00    +0.000 A 
ATOM     32  C   UNL     1      -3.868  12.619  20.295  0.00  0.00    +0.000 A 
BRANCH  30  33
ATOM     33  C   UNL     1      -7.176  12.512  22.161  0.00  0.00    +0.000 C 
ATOM     34  N   UNL     1      -7.594  13.664  22.579  0.00  0.00    +0.000 NA
ATOM     35  N   UNL     1      -7.730  11.416  22.749  0.00  0.00    +0.000 N 
ATOM     36  H   UNL     1      -7.091  14.432  22.128  0.00  0.00    +0.000 HD
ATOM     37  H   UNL     1      -7.894  10.617  22.155  0.00  0.00    +0.000 HD
ATOM     38  H   UNL     1      -8.549  11.675  23.296  0.00  0.00    +0.000 HD
ENDBRANCH  30  33
ENDBRANCH  26  27
ENDBRANCH  24  26
ENDBRANCH  21  22
ENDBRANCH   7  21
TORSDOF 10
ENDMDL
MODEL 5
REMARK VINA RESULT:      -8.2      4.156      6.945
REMARK  Name = 
REMARK  11 active torsions:
REMARK  status: ('A' for Active; 'I' for Inactive)
REMARK    1  A    between atoms: C_1  and  C_2
REMARK    2  A    between atoms: C_5  and  N_6
REMARK    3  A    between atoms: N_6  and  C_7
REMARK    4  A    between atoms: C_7  and  C_8
REMARK    5  A    between atoms: C_8  and  C_10
REMARK    6  A    between atoms: C_16  and  O_17
REMARK    7  A    between atoms: C_18  and  C_19
REMARK    8  A    between atoms: C_19  and  C_20
REMARK    9  A    between atoms: N_22  and  C_23
REMARK   10  A    between atoms: C_23  and  C_24
REMARK   11  A    between atoms: C_27  and  C_28
REMARK                            x       y       z     vdW  Elec       q    Type
REMARK                         _______ _______ _______ _____ _____    ______ ____
ROOT
ATOM      1  C   UNL     1       0.680   9.953  22.237  0.00  0.00    +0.000 C 
ATOM      2  C   UNL     1       1.202   9.258  21.006  0.00  0.00    +0.000 A 
ATOM      3  C   UNL     1       1.409   7.871  21.068  0.00  0.00    +0.000 A 
ATOM      4  C   UNL     1       1.890   7.163  19.963  0.00  0.00    +0.000 A 
ATOM      5  C   UNL     1       2.180   7.813  18.759  0.00  0.00    +0.000 A 
ATOM      6  C   UNL     1       1.879   9.183  18.682  0.00  0.00    +0.000 A 
ATOM      7  C   UNL     1       1.436   9.933  19.788  0.00  0.00    +0.000 A 
ENDROOT
BRANCH   5   8
ATOM      8  N   UNL     1       2.666   7.034  17.707  0.00  0.00    +0.000 N 
ATOM      9  H   UNL     1       2.541   7.485  16.802  0.00  0.00    +0.000 HD
BRANCH   8  10
ATOM     10  C   UNL     1       3.924   6.294  17.840  0.00  0.00    +0.000 C 
BRANCH  10  11
ATOM     11  C   UNL     1       3.685   4.803  17.696  0.00  0.00    +0.000 C 
ATOM     12  O   UNL     1       4.200   4.163  16.776  0.00  0.00    +0.000 OA
BRANCH  11  13
ATOM     13  C   UNL     1       2.799   4.104  18.667  0.00  0.00    +0.000 A 
ATOM     14  C   UNL     1       3.310   3.837  19.943  0.00  0.00    +0.000 A 
ATOM     15  C   UNL     1       2.526   3.184  20.892  0.00  0.00    +0.000 A 
ATOM     16  C   UNL     1       1.222   2.808  20.576  0.00  0.00    +0.000 A 
ATOM     17  C   UNL     1       0.702   3.081  19.310  0.00  0.00    +0.000 A 
ATOM     18  C   UNL     1       1.490   3.724  18.351  0.00  0.00    +0.000 A 
ENDBRANCH  11  13
ENDBRANCH  10  11
ENDBRANCH   8  10
ENDBRANCH   5   8
BRANCH   6  19
ATOM     19  O   UNL     1       1.937   9.839  17.475  0.00  0.00    +0.000 OA
ATOM     20  H   UNL     1       2.664  10.475  17.579  0.00  0.00    +0.000 HD
ENDBRANCH   6  19
BRANCH   7  21
ATOM     21  C   UNL     1       1.208  11.418  19.612  0.00  0.00    +0.000 C 
BRANCH  21  22
ATOM     22  C   UNL     1      -0.227  11.782  19.281  0.00  0.00    +0.000 C 
ATOM     23  O   UNL     1      -0.545  12.929  18.972  0.00  0.00    +0.000 OA
ATOM     24  N   UNL     1      -1.142  10.745  19.307  0.00  0.00    +0.000 N 
ATOM     25  H   UNL     1      -0.883   9.888  19.783  0.00  0.00    +0.000 HD
BRANCH  24  26
ATOM     26  C   UNL     1      -2.519  11.018  18.976  0.00  0.00    +0.000 C 
BRANCH  26  27
ATOM     27  C   UNL     1      -2.917  10.652  17.567  0.00  0.00    +0.000 A 
ATOM     28  C   UNL     1      -3.706  11.522  16.800  0.00  0.00    +0.000 A 
ATOM     29  C   UNL     1      -3.969  11.249  15.450  0.00  0.00    +0.000 A 
ATOM     30  C   UNL     1      -3.452  10.097  14.852  0.00  0.00    +0.000 A 
ATOM     31  C   UNL     1      -2.700   9.201  15.619  0.00  0.00    +0.000 A 
ATOM     32  C   UNL     1      -2.438   9.477  16.968  0.00  0.00    +0.000 A 
BRANCH  30  33
ATOM     33  C   UNL     1      -3.695   9.841  13.401  0.00  0.00    +0.000 C 
ATOM     34  N   UNL     1      -2.744   9.774  12.526  0.00  0.00    +0.000 NA
ATOM     35  N   UNL     1      -4.961   9.661  12.935  0.00  0.00    +0.000 N 
ATOM     36  H   UNL     1      -1.832   9.974  12.946  0.00  0.00    +0.000 HD
ATOM     37  H   UNL     1      -5.600   9.162  13.536  0.00  0.00    +0.000 HD
ATOM     38  H   UNL     1      -4.948   9.295  11.984  0.00  0.00    +0.000 HD
ENDBRANCH  30  33
ENDBRANCH  26  27
ENDBRANCH  24  26
ENDBRANCH  21  22
ENDBRANCH   7  21
TORSDOF 10
ENDMDL
MODEL 6
REMARK VINA RESULT:      -8.1      2.510     11.210
REMARK  Name = 
REMARK  11 active torsions:
REMARK  status: ('A' for Active; 'I' for Inactive)
REMARK    1  A    between atoms: C_1  and  C_2
REMARK    2  A    between atoms: C_5  and  N_6
REMARK    3  A    between atoms: N_6  and  C_7
REMARK    4  A    between atoms: C_7  and  C_8
REMARK    5  A    between atoms: C_8  and  C_10
REMARK    6  A    between atoms: C_16  and  O_17
REMARK    7  A    between atoms: C_18  and  C_19
REMARK    8  A    between atoms: C_19  and  C_20
REMARK    9  A    between atoms: N_22  and  C_23
REMARK   10  A    between atoms: C_23  and  C_24
REMARK   11  A    between atoms: C_27  and  C_28
REMARK                            x       y       z     vdW  Elec       q    Type
REMARK                         _______ _______ _______ _____ _____    ______ ____
ROOT
ATOM      1  C   UNL     1       3.025   7.686  18.037  0.00  0.00    +0.000 C 
ATOM      2  C   UNL     1       1.924   8.512  18.650  0.00  0.00    +0.000 A 
ATOM      3  C   UNL     1       1.288   9.469  17.843  0.00  0.00    +0.000 A 
ATOM      4  C   UNL     1       0.257  10.267  18.348  0.00  0.00    +0.000 A 
ATOM      5  C   UNL     1      -0.174  10.140  19.672  0.00  0.00    +0.000 A 
ATOM      6  C   UNL     1       0.406   9.115  20.438  0.00  0.00    +0.000 A 
ATOM      7  C   UNL     1       1.474   8.324  19.975  0.00  0.00    +0.000 A 
ENDROOT
BRANCH   5   8
ATOM      8  N   UNL     1      -1.202  10.982  20.099  0.00  0.00    +0.000 N 
ATOM      9  H   UNL     1      -2.055  10.471  20.322  0.00  0.00    +0.000 HD
BRANCH   8  10
ATOM     10  C   UNL     1      -0.926  12.106  20.999  0.00  0.00    +0.000 C 
BRANCH  10  11
ATOM     11  C   UNL     1      -1.527  11.854  22.370  0.00  0.00    +0.000 C 
ATOM     12  O   UNL     1      -0.890  11.260  23.242  0.00  0.00    +0.000 OA
BRANCH  11  13
ATOM     13  C   UNL     1      -2.914  12.311  22.658  0.00  0.00    +0.000 A 
ATOM     14  C   UNL     1      -3.349  12.277  23.989  0.00  0.00    +0.000 A 
ATOM     15  C   UNL     1      -4.638  12.691  24.318  0.00  0.00    +0.000 A 
ATOM     16  C   UNL     1      -5.495  13.154  23.321  0.00  0.00    +0.000 A 
ATOM     17  C   UNL     1      -5.064  13.202  21.995  0.00  0.00    +0.000 A 
ATOM     18  C   UNL     1      -3.776  12.776  21.659  0.00  0.00    +0.000 A 
ENDBRANCH  11  13
ENDBRANCH  10  11
ENDBRANCH   8  10
ENDBRANCH   5   8
BRANCH   6  19
ATOM     19  O   UNL     1      -0.112   8.792  21.671  0.00  0.00    +0.000 OA
ATOM     20  H   UNL     1      -0.876   8.226  21.473  0.00  0.00    +0.000 HD
ENDBRANCH   6  19
BRANCH   7  21
ATOM     21  C   UNL     1       2.071   7.294  20.910  0.00  0.00    +0.000 C 
BRANCH  21  22
ATOM     22  C   UNL     1       2.182   5.908  20.303  0.00  0.00    +0.000 C 
ATOM     23  O   UNL     1       1.196   5.318  19.865  0.00  0.00    +0.000 OA
ATOM     24  N   UNL     1       3.454   5.371  20.235  0.00  0.00    +0.000 N 
ATOM     25  H   UNL     1       4.182   5.786  20.806  0.00  0.00    +0.000 HD
BRANCH  24  26
ATOM     26  C   UNL     1       3.632   4.067  19.644  0.00  0.00    +0.000 C 
BRANCH  26  27
ATOM     27  C   UNL     1       4.460   4.050  18.383  0.00  0.00    +0.000 A 
ATOM     28  C   UNL     1       3.880   3.699  17.154  0.00  0.00    +0.000 A 
ATOM     29  C   UNL     1       4.607   3.808  15.961  0.00  0.00    +0.000 A 
ATOM     30  C   UNL     1       5.929   4.263  15.982  0.00  0.00    +0.000 A 
ATOM     31  C   UNL     1       6.530   4.575  17.206  0.00  0.00    +0.000 A 
ATOM     32  C   UNL     1       5.800   4.465  18.397  0.00  0.00    +0.000 A 
BRANCH  30  33
ATOM     33  C   UNL     1       6.679   4.424  14.701  0.00  0.00    +0.000 C 
ATOM     34  N   UNL     1       6.477   3.676  13.664  0.00  0.00    +0.000 NA
ATOM     35  N   UNL     1       7.628   5.392  14.574  0.00  0.00    +0.000 N 
ATOM     36  H   UNL     1       5.791   2.942  13.858  0.00  0.00    +0.000 HD
ATOM     37  H   UNL     1       7.446   6.269  15.038  0.00  0.00    +0.000 HD
ATOM     38  H   UNL     1       7.895   5.510  13.598  0.00  0.00    +0.000 HD
ENDBRANCH  30  33
ENDBRANCH  26  27
ENDBRANCH  24  26
ENDBRANCH  21  22
ENDBRANCH   7  21
TORSDOF 10
ENDMDL
MODEL 7
REMARK VINA RESULT:      -8.0      3.169      5.536
REMARK  Name = 
REMARK  11 active torsions:
REMARK  status: ('A' for Active; 'I' for Inactive)
REMARK    1  A    between atoms: C_1  and  C_2
REMARK    2  A    between atoms: C_5  and  N_6
REMARK    3  A    between atoms: N_6  and  C_7
REMARK    4  A    between atoms: C_7  and  C_8
REMARK    5  A    between atoms: C_8  and  C_10
REMARK    6  A    between atoms: C_16  and  O_17
REMARK    7  A    between atoms: C_18  and  C_19
REMARK    8  A    between atoms: C_19  and  C_20
REMARK    9  A    between atoms: N_22  and  C_23
REMARK   10  A    between atoms: C_23  and  C_24
REMARK   11  A    between atoms: C_27  and  C_28
REMARK                            x       y       z     vdW  Elec       q    Type
REMARK                         _______ _______ _______ _____ _____    ______ ____
ROOT
ATOM      1  C   UNL     1       0.035  10.525  18.566  0.00  0.00    +0.000 C 
ATOM      2  C   UNL     1       0.976   9.360  18.732  0.00  0.00    +0.000 A 
ATOM      3  C   UNL     1       1.944   9.146  17.737  0.00  0.00    +0.000 A 
ATOM      4  C   UNL     1       2.850   8.085  17.829  0.00  0.00    +0.000 A 
ATOM      5  C   UNL     1       2.823   7.203  18.914  0.00  0.00    +0.000 A 
ATOM      6  C   UNL     1       1.913   7.486  19.946  0.00  0.00    +0.000 A 
ATOM      7  C   UNL     1       0.959   8.518  19.865  0.00  0.00    +0.000 A 
ENDROOT
BRANCH   5   8
ATOM      8  N   UNL     1       3.755   6.165  18.923  0.00  0.00    +0.000 N 
ATOM      9  H   UNL     1       3.699   5.601  19.771  0.00  0.00    +0.000 HD
BRANCH   8  10
ATOM     10  C   UNL     1       4.033   5.393  17.709  0.00  0.00    +0.000 C 
BRANCH  10  11
ATOM     11  C   UNL     1       3.661   3.935  17.905  0.00  0.00    +0.000 C 
ATOM     12  O   UNL     1       3.996   3.078  17.084  0.00  0.00    +0.000 OA
BRANCH  11  13
ATOM     13  C   UNL     1       2.860   3.535  19.094  0.00  0.00    +0.000 A 
ATOM     14  C   UNL     1       1.472   3.713  19.036  0.00  0.00    +0.000 A 
ATOM     15  C   UNL     1       0.671   3.359  20.121  0.00  0.00    +0.000 A 
ATOM     16  C   UNL     1       1.253   2.810  21.263  0.00  0.00    +0.000 A 
ATOM     17  C   UNL     1       2.633   2.619  21.322  0.00  0.00    +0.000 A 
ATOM     18  C   UNL     1       3.441   2.985  20.242  0.00  0.00    +0.000 A 
ENDBRANCH  11  13
ENDBRANCH  10  11
ENDBRANCH   8  10
ENDBRANCH   5   8
BRANCH   6  19
ATOM     19  O   UNL     1       1.973   6.793  21.133  0.00  0.00    +0.000 OA
ATOM     20  H   UNL     1       1.044   6.636  21.370  0.00  0.00    +0.000 HD
ENDBRANCH   6  19
BRANCH   7  21
ATOM     21  C   UNL     1      -0.020   8.691  21.005  0.00  0.00    +0.000 C 
BRANCH  21  22
ATOM     22  C   UNL     1       0.222   9.937  21.836  0.00  0.00    +0.000 C 
ATOM     23  O   UNL     1       1.274  10.105  22.450  0.00  0.00    +0.000 OA
ATOM     24  N   UNL     1      -0.788  10.882  21.828  0.00  0.00    +0.000 N 
ATOM     25  H   UNL     1      -1.706  10.601  21.506  0.00  0.00    +0.000 HD
BRANCH  24  26
ATOM     26  C   UNL     1      -0.609  12.103  22.577  0.00  0.00    +0.000 C 
BRANCH  26  27
ATOM     27  C   UNL     1      -1.887  12.748  23.051  0.00  0.00    +0.000 A 
ATOM     28  C   UNL     1      -2.137  14.105  22.796  0.00  0.00    +0.000 A 
ATOM     29  C   UNL     1      -3.376  14.678  23.117  0.00  0.00    +0.000 A 
ATOM     30  C   UNL     1      -4.378  13.902  23.706  0.00  0.00    +0.000 A 
ATOM     31  C   UNL     1      -4.124  12.559  24.003  0.00  0.00    +0.000 A 
ATOM     32  C   UNL     1      -2.885  11.989  23.680  0.00  0.00    +0.000 A 
BRANCH  30  33
ATOM     33  C   UNL     1      -5.712  14.508  23.998  0.00  0.00    +0.000 C 
ATOM     34  N   UNL     1      -6.808  13.821  24.034  0.00  0.00    +0.000 NA
ATOM     35  N   UNL     1      -5.823  15.842  24.245  0.00  0.00    +0.000 N 
ATOM     36  H   UNL     1      -6.647  12.842  23.784  0.00  0.00    +0.000 HD
ATOM     37  H   UNL     1      -5.072  16.272  24.764  0.00  0.00    +0.000 HD
ATOM     38  H   UNL     1      -6.742  16.063  24.626  0.00  0.00    +0.000 HD
ENDBRANCH  30  33
ENDBRANCH  26  27
ENDBRANCH  24  26
ENDBRANCH  21  22
ENDBRANCH   7  21
TORSDOF 10
ENDMDL
MODEL 8
REMARK VINA RESULT:      -8.0      2.179      2.706
REMARK  Name = 
REMARK  11 active torsions:
REMARK  status: ('A' for Active; 'I' for Inactive)
REMARK    1  A    between atoms: C_1  and  C_2
REMARK    2  A    between atoms: C_5  and  N_6
REMARK    3  A    between atoms: N_6  and  C_7
REMARK    4  A    between atoms: C_7  and  C_8
REMARK    5  A    between atoms: C_8  and  C_10
REMARK    6  A    between atoms: C_16  and  O_17
REMARK    7  A    between atoms: C_18  and  C_19
REMARK    8  A    between atoms: C_19  and  C_20
REMARK    9  A    between atoms: N_22  and  C_23
REMARK   10  A    between atoms: C_23  and  C_24
REMARK   11  A    between atoms: C_27  and  C_28
REMARK                            x       y       z     vdW  Elec       q    Type
REMARK                         _______ _______ _______ _____ _____    ______ ____
ROOT
ATOM      1  C   UNL     1       0.652   3.299  18.600  0.00  0.00    +0.000 C 
ATOM      2  C   UNL     1       2.125   3.567  18.430  0.00  0.00    +0.000 A 
ATOM      3  C   UNL     1       2.828   2.813  17.476  0.00  0.00    +0.000 A 
ATOM      4  C   UNL     1       4.196   3.012  17.266  0.00  0.00    +0.000 A 
ATOM      5  C   UNL     1       4.908   3.968  17.996  0.00  0.00    +0.000 A 
ATOM      6  C   UNL     1       4.173   4.779  18.877  0.00  0.00    +0.000 A 
ATOM      7  C   UNL     1       2.806   4.576  19.145  0.00  0.00    +0.000 A 
ENDROOT
BRANCH   5   8
ATOM      8  N   UNL     1       6.273   4.097  17.731  0.00  0.00    +0.000 N 
ATOM      9  H   UNL     1       6.685   3.228  17.393  0.00  0.00    +0.000 HD
BRANCH   8  10
ATOM     10  C   UNL     1       6.802   5.301  17.085  0.00  0.00    +0.000 C 
BRANCH  10  11
ATOM     11  C   UNL     1       5.976   5.660  15.864  0.00  0.00    +0.000 C 
ATOM     12  O   UNL     1       5.056   6.478  15.938  0.00  0.00    +0.000 OA
BRANCH  11  13
ATOM     13  C   UNL     1       6.265   4.999  14.561  0.00  0.00    +0.000 A 
ATOM     14  C   UNL     1       7.412   5.400  13.866  0.00  0.00    +0.000 A 
ATOM     15  C   UNL     1       7.732   4.818  12.641  0.00  0.00    +0.000 A 
ATOM     16  C   UNL     1       6.914   3.821  12.112  0.00  0.00    +0.000 A 
ATOM     17  C   UNL     1       5.776   3.408  12.805  0.00  0.00    +0.000 A 
ATOM     18  C   UNL     1       5.445   3.999  14.027  0.00  0.00    +0.000 A 
ENDBRANCH  11  13
ENDBRANCH  10  11
ENDBRANCH   8  10
ENDBRANCH   5   8
BRANCH   6  19
ATOM     19  O   UNL     1       4.762   5.872  19.468  0.00  0.00    +0.000 OA
ATOM     20  H   UNL     1       5.007   6.447  18.725  0.00  0.00    +0.000 HD
ENDBRANCH   6  19
BRANCH   7  21
ATOM     21  C   UNL     1       2.128   5.464  20.165  0.00  0.00    +0.000 C 
BRANCH  21  22
ATOM     22  C   UNL     1       2.162   6.938  19.812  0.00  0.00    +0.000 C 
ATOM     23  O   UNL     1       2.151   7.808  20.682  0.00  0.00    +0.000 OA
ATOM     24  N   UNL     1       2.248   7.242  18.465  0.00  0.00    +0.000 N 
ATOM     25  H   UNL     1       2.023   6.517  17.794  0.00  0.00    +0.000 HD
BRANCH  24  26
ATOM     26  C   UNL     1       2.311   8.627  18.064  0.00  0.00    +0.000 C 
BRANCH  26  27
ATOM     27  C   UNL     1       1.011   9.382  18.184  0.00  0.00    +0.000 A 
ATOM     28  C   UNL     1       0.940  10.564  18.936  0.00  0.00    +0.000 A 
ATOM     29  C   UNL     1      -0.228  11.340  18.944  0.00  0.00    +0.000 A 
ATOM     30  C   UNL     1      -1.344  10.938  18.205  0.00  0.00    +0.000 A 
ATOM     31  C   UNL     1      -1.298   9.740  17.486  0.00  0.00    +0.000 A 
ATOM     32  C   UNL     1      -0.129   8.967  17.479  0.00  0.00    +0.000 A 
BRANCH  30  33
ATOM     33  C   UNL     1      -2.565  11.797  18.179  0.00  0.00    +0.000 C 
ATOM     34  N   UNL     1      -3.305  11.943  17.127  0.00  0.00    +0.000 NA
ATOM     35  N   UNL     1      -2.957  12.473  19.294  0.00  0.00    +0.000 N 
ATOM     36  H   UNL     1      -2.914  11.448  16.322  0.00  0.00    +0.000 HD
ATOM     37  H   UNL     1      -2.819  12.008  20.179  0.00  0.00    +0.000 HD
ATOM     38  H   UNL     1      -3.902  12.838  19.183  0.00  0.00    +0.000 HD
ENDBRANCH  30  33
ENDBRANCH  26  27
ENDBRANCH  24  26
ENDBRANCH  21  22
ENDBRANCH   7  21
TORSDOF 10
ENDMDL
MODEL 9
REMARK VINA RESULT:      -8.0      1.667      2.900
REMARK  Name = 
REMARK  11 active torsions:
REMARK  status: ('A' for Active; 'I' for Inactive)
REMARK    1  A    between atoms: C_1  and  C_2
REMARK    2  A    between atoms: C_5  and  N_6
REMARK    3  A    between atoms: N_6  and  C_7
REMARK    4  A    between atoms: C_7  and  C_8
REMARK    5  A    between atoms: C_8  and  C_10
REMARK    6  A    between atoms: C_16  and  O_17
REMARK    7  A    between atoms: C_18  and  C_19
REMARK    8  A    between atoms: C_19  and  C_20
REMARK    9  A    between atoms: N_22  and  C_23
REMARK   10  A    between atoms: C_23  and  C_24
REMARK   11  A    between atoms: C_27  and  C_28
REMARK                            x       y       z     vdW  Elec       q    Type
REMARK                         _______ _______ _______ _____ _____    ______ ____
ROOT
ATOM      1  C   UNL     1       1.870   4.104  20.633  0.00  0.00    +0.000 C 
ATOM      2  C   UNL     1       2.612   4.229  19.327  0.00  0.00    +0.000 A 
ATOM      3  C   UNL     1       2.743   3.080  18.530  0.00  0.00    +0.000 A 
ATOM      4  C   UNL     1       3.417   3.125  17.306  0.00  0.00    +0.000 A 
ATOM      5  C   UNL     1       3.981   4.315  16.835  0.00  0.00    +0.000 A 
ATOM      6  C   UNL     1       3.760   5.474  17.597  0.00  0.00    +0.000 A 
ATOM      7  C   UNL     1       3.124   5.456  18.853  0.00  0.00    +0.000 A 
ENDROOT
BRANCH   5   8
ATOM      8  N   UNL     1       4.645   4.271  15.608  0.00  0.00    +0.000 N 
ATOM      9  H   UNL     1       4.469   5.101  15.042  0.00  0.00    +0.000 HD
BRANCH   8  10
ATOM     10  C   UNL     1       6.017   3.764  15.514  0.00  0.00    +0.000 C 
BRANCH  10  11
ATOM     11  C   UNL     1       7.011   4.910  15.491  0.00  0.00    +0.000 C 
ATOM     12  O   UNL     1       7.530   5.278  14.435  0.00  0.00    +0.000 OA
BRANCH  11  13
ATOM     13  C   UNL     1       7.383   5.585  16.764  0.00  0.00    +0.000 A 
ATOM     14  C   UNL     1       7.567   4.784  17.899  0.00  0.00    +0.000 A 
ATOM     15  C   UNL     1       7.914   5.361  19.118  0.00  0.00    +0.000 A 
ATOM     16  C   UNL     1       8.094   6.740  19.208  0.00  0.00    +0.000 A 
ATOM     17  C   UNL     1       7.924   7.543  18.079  0.00  0.00    +0.000 A 
ATOM     18  C   UNL     1       7.564   6.969  16.857  0.00  0.00    +0.000 A 
ENDBRANCH  11  13
ENDBRANCH  10  11
ENDBRANCH   8  10
ENDBRANCH   5   8
BRANCH   6  19
ATOM     19  O   UNL     1       4.098   6.709  17.095  0.00  0.00    +0.000 OA
ATOM     20  H   UNL     1       4.985   6.882  17.452  0.00  0.00    +0.000 HD
ENDBRANCH   6  19
BRANCH   7  21
ATOM     21  C   UNL     1       3.000   6.753  19.621  0.00  0.00    +0.000 C 
BRANCH  21  22
ATOM     22  C   UNL     1       2.044   7.748  18.991  0.00  0.00    +0.000 C 
ATOM     23  O   UNL     1       1.700   7.652  17.815  0.00  0.00    +0.000 OA
ATOM     24  N   UNL     1       1.555   8.737  19.826  0.00  0.00    +0.000 N 
ATOM     25  H   UNL     1       2.037   8.909  20.701  0.00  0.00    +0.000 HD
BRANCH  24  26
ATOM     26  C   UNL     1       0.620   9.700  19.295  0.00  0.00    +0.000 C 
BRANCH  26  27
ATOM     27  C   UNL     1      -0.108  10.515  20.335  0.00  0.00    +0.000 A 
ATOM     28  C   UNL     1      -1.072  11.461  19.953  0.00  0.00    +0.000 A 
ATOM     29  C   UNL     1      -1.844  12.126  20.915  0.00  0.00    +0.000 A 
ATOM     30  C   UNL     1      -1.657  11.859  22.274  0.00  0.00    +0.000 A 
ATOM     31  C   UNL     1      -0.670  10.950  22.668  0.00  0.00    +0.000 A 
ATOM     32  C   UNL     1       0.099  10.286  21.704  0.00  0.00    +0.000 A 
BRANCH  30  33
ATOM     33  C   UNL     1      -2.519  12.536  23.289  0.00  0.00    +0.000 C 
ATOM     34  N   UNL     1      -3.548  11.969  23.833  0.00  0.00    +0.000 NA
ATOM     35  N   UNL     1      -2.244  13.807  23.691  0.00  0.00    +0.000 N 
ATOM     36  H   UNL     1      -3.718  11.040  23.439  0.00  0.00    +0.000 HD
ATOM     37  H   UNL     1      -1.270  14.057  23.771  0.00  0.00    +0.000 HD
ATOM     38  H   UNL     1      -2.783  14.048  24.522  0.00  0.00    +0.000 HD
ENDBRANCH  30  33
ENDBRANCH  26  27
ENDBRANCH  24  26
ENDBRANCH  21  22
ENDBRANCH   7  21
TORSDOF 10
ENDMDL
