MODEL 1
REMARK VINA RESULT:      -8.0      0.000      0.000
REMARK  Name = 
REMARK  9 active torsions:
REMARK  status: ('A' for Active; 'I' for Inactive)
REMARK    1  A    between atoms: C_1  and  O_2
REMARK    2  A    between atoms: O_2  and  C_3
REMARK    3  A    between atoms: C_6  and  C_7
REMARK    4  A    between atoms: C_7  and  C_8
REMARK    5  A    between atoms: C_8  and  C_9
REMARK    6  A    between atoms: C_11  and  O_12
REMARK    7  A    between atoms: C_14  and  O_15
REMARK    8  A    between atoms: O_15  and  C_16
REMARK    9  A    between atoms: C_17  and  C_18
REMARK                            x       y       z     vdW  Elec       q    Type
REMARK                         _______ _______ _______ _____ _____    ______ ____
ROOT
ATOM      1  C   UNL     1       3.144   5.030  19.085  0.00  0.00    +0.000 A 
ATOM      2  C   UNL     1       1.844   4.664  19.498  0.00  0.00    +0.000 A 
ATOM      3  C   UNL     1       1.581   3.424  20.036  0.00  0.00    +0.000 A 
ATOM      4  C   UNL     1       2.589   2.493  20.143  0.00  0.00    +0.000 A 
ATOM      5  C   UNL     1       3.875   2.763  19.660  0.00  0.00    +0.000 A 
ATOM      6  C   UNL     1       4.178   4.025  19.068  0.00  0.00    +0.000 A 
ENDROOT
BRANCH   6   7
ATOM      7  C   UNL     1       5.559   4.376  18.526  0.00  0.00    +0.000 C 
ATOM      8  O   UNL     1       6.425   4.653  19.362  0.00  0.00    +0.000 OA
ATOM      9  N   UNL     1       5.867   4.494  17.136  0.00  0.00    +0.000 N 
ATOM     10  C   UNL     1       7.270   4.793  16.812  0.00  0.00    +0.000 C 
ATOM     11  C   UNL     1       7.464   5.389  15.415  0.00  0.00    +0.000 C 
ATOM     12  C   UNL     1       6.810   4.537  14.340  0.00  0.00    +0.000 C 
ATOM     13  C   UNL     1       5.340   4.349  14.669  0.00  0.00    +0.000 C 
ATOM     14  C   UNL     1       5.130   3.810  16.079  0.00  0.00    +0.000 C 
ENDBRANCH   6   7
BRANCH   3  15
ATOM     15  O   UNL     1       0.351   3.109  20.525  0.00  0.00    +0.000 OA
ATOM     16  H   UNL     1      -0.210   3.902  20.470  0.00  0.00    +0.000 HD
ENDBRANCH   3  15
BRANCH   5  17
ATOM     17  O   UNL     1       4.867   1.835  19.878  0.00  0.00    +0.000 OA
ATOM     18  C   UNL     1       4.959   1.377  21.234  0.00  0.00    +0.000 C 
ENDBRANCH   5  17
BRANCH   1  19
ATOM     19  C   UNL     1       3.384   6.509  18.744  0.00  0.00    +0.000 C 
BRANCH  19  20
ATOM     20  C   UNL     1       2.152   7.401  18.361  0.00  0.00    +0.000 C 
BRANCH  20  24
ATOM     21  C   UNL     1       0.622  10.279  21.244  0.00  0.00    +0.000 A 
ATOM     22  C   UNL     1       1.050   9.018  21.654  0.00  0.00    +0.000 A 
ATOM     23  C   UNL     1       1.601   8.116  20.744  0.00  0.00    +0.000 A 
ATOM     24  C   UNL     1       1.699   8.433  19.390  0.00  0.00    +0.000 A 
ATOM     25  C   UNL     1       1.313   9.726  18.987  0.00  0.00    +0.000 A 
ATOM     26  C   UNL     1       0.765  10.640  19.905  0.00  0.00    +0.000 A 
BRANCH  21  28
ATOM     27  C   UNL     1      -0.866  10.362  23.091  0.00  0.00    +0.000 C 
ATOM     28  O   UNL     1       0.045  11.028  22.229  0.00  0.00    +0.000 OA
ENDBRANCH  21  28
ENDBRANCH  20  24
ENDBRANCH  19  20
ENDBRANCH   1  19
TORSDOF 7
ENDMDL
MODEL 2
REMARK VINA RESULT:      -7.8      0.694      1.171
REMARK  Name = 
REMARK  9 active torsions:
REMARK  status: ('A' for Active; 'I' for Inactive)
REMARK    1  A    between atoms: C_1  and  O_2
REMARK    2  A    between atoms: O_2  and  C_3
REMARK    3  A    between atoms: C_6  and  C_7
REMARK    4  A    between atoms: C_7  and  C_8
REMARK    5  A    between atoms: C_8  and  C_9
REMARK    6  A    between atoms: C_11  and  O_12
REMARK    7  A    between atoms: C_14  and  O_15
REMARK    8  A    between atoms: O_15  and  C_16
REMARK    9  A    between atoms: C_17  and  C_18
REMARK                            x       y       z     vdW  Elec       q    Type
REMARK                         _______ _______ _______ _____ _____    ______ ____
ROOT
ATOM      1  C   UNL     1       3.238   5.058  19.319  0.00  0.00    +0.000 A 
ATOM      2  C   UNL     1       1.928   4.734  19.736  0.00  0.00    +0.000 A 
ATOM      3  C   UNL     1       1.597   3.463  20.148  0.00  0.00    +0.000 A 
ATOM      4  C   UNL     1       2.541   2.462  20.119  0.00  0.00    +0.000 A 
ATOM      5  C   UNL     1       3.829   2.699  19.622  0.00  0.00    +0.000 A 
ATOM      6  C   UNL     1       4.200   3.996  19.159  0.00  0.00    +0.000 A 
ENDROOT
BRANCH   6   7
ATOM      7  C   UNL     1       5.586   4.315  18.608  0.00  0.00    +0.000 C 
ATOM      8  O   UNL     1       6.467   4.553  19.440  0.00  0.00    +0.000 OA
ATOM      9  N   UNL     1       5.884   4.444  17.217  0.00  0.00    +0.000 N 
ATOM     10  C   UNL     1       7.292   4.706  16.883  0.00  0.00    +0.000 C 
ATOM     11  C   UNL     1       7.491   5.317  15.494  0.00  0.00    +0.000 C 
ATOM     12  C   UNL     1       6.802   4.500  14.413  0.00  0.00    +0.000 C 
ATOM     13  C   UNL     1       5.330   4.351  14.753  0.00  0.00    +0.000 C 
ATOM     14  C   UNL     1       5.117   3.798  16.157  0.00  0.00    +0.000 C 
ENDBRANCH   6   7
BRANCH   3  15
ATOM     15  O   UNL     1       0.362   3.176  20.645  0.00  0.00    +0.000 OA
ATOM     16  H   UNL     1      -0.262   3.844  20.311  0.00  0.00    +0.000 HD
ENDBRANCH   3  15
BRANCH   5  17
ATOM     17  O   UNL     1       4.761   1.692  19.705  0.00  0.00    +0.000 OA
ATOM     18  C   UNL     1       5.173   1.376  21.043  0.00  0.00    +0.000 C 
ENDBRANCH   5  17
BRANCH   1  19
ATOM     19  C   UNL     1       3.568   6.547  19.130  0.00  0.00    +0.000 C 
BRANCH  19  20
ATOM     20  C   UNL     1       2.684   7.393  18.148  0.00  0.00    +0.000 C 
BRANCH  20  24
ATOM     21  C   UNL     1       0.206  10.454  19.998  0.00  0.00    +0.000 A 
ATOM     22  C   UNL     1       0.420  10.446  18.621  0.00  0.00    +0.000 A 
ATOM     23  C   UNL     1       1.160   9.430  18.016  0.00  0.00    +0.000 A 
ATOM     24  C   UNL     1       1.743   8.418  18.775  0.00  0.00    +0.000 A 
ATOM     25  C   UNL     1       1.483   8.400  20.159  0.00  0.00    +0.000 A 
ATOM     26  C   UNL     1       0.730   9.419  20.771  0.00  0.00    +0.000 A 
BRANCH  21  28
ATOM     27  C   UNL     1      -0.402  11.808  21.850  0.00  0.00    +0.000 C 
ATOM     28  O   UNL     1      -0.480  11.542  20.457  0.00  0.00    +0.000 OA
ENDBRANCH  21  28
ENDBRANCH  20  24
ENDBRANCH  19  20
ENDBRANCH   1  19
TORSDOF 7
ENDMDL
MODEL 3
REMARK VINA RESULT:      -7.8      1.155      1.433
REMARK  Name = 
REMARK  9 active torsions:
REMARK  status: ('A' for Active; 'I' for Inactive)
REMARK    1  A    between atoms: C_1  and  O_2
REMARK    2  A    between atoms: O_2  and  C_3
REMARK    3  A    between atoms: C_6  and  C_7
REMARK    4  A    between atoms: C_7  and  C_8
REMARK    5  A    between atoms: C_8  and  C_9
REMARK    6  A    between atoms: C_11  and  O_12
REMARK    7  A    between atoms: C_14  and  O_15
REMARK    8  A    between atoms: O_15  and  C_16
REMARK    9  A    between atoms: C_17  and  C_18
REMARK                            x       y       z     vdW  Elec       q    Type
REMARK                         _______ _______ _______ _____ _____    ______ ____
ROOT
ATOM      1  C   UNL     1       2.642   4.567  18.303  0.00  0.00    +0.000 A 
ATOM      2  C   UNL     1       1.336   4.060  18.473  0.00  0.00    +0.000 A 
ATOM      3  C   UNL     1       1.112   2.798  18.978  0.00  0.00    +0.000 A 
ATOM      4  C   UNL     1       2.177   1.985  19.292  0.00  0.00    +0.000 A 
ATOM      5  C   UNL     1       3.494   2.395  19.052  0.00  0.00    +0.000 A 
ATOM      6  C   UNL     1       3.764   3.683  18.502  0.00  0.00    +0.000 A 
ENDROOT
BRANCH   6   7
ATOM      7  C   UNL     1       5.176   4.186  18.220  0.00  0.00    +0.000 C 
ATOM      8  O   UNL     1       5.860   4.485  19.204  0.00  0.00    +0.000 OA
ATOM      9  N   UNL     1       5.698   4.415  16.910  0.00  0.00    +0.000 N 
ATOM     10  C   UNL     1       7.100   4.854  16.845  0.00  0.00    +0.000 C 
ATOM     11  C   UNL     1       7.466   5.548  15.531  0.00  0.00    +0.000 C 
ATOM     12  C   UNL     1       7.084   4.709  14.322  0.00  0.00    +0.000 C 
ATOM     13  C   UNL     1       5.604   4.375  14.385  0.00  0.00    +0.000 C 
ATOM     14  C   UNL     1       5.215   3.735  15.713  0.00  0.00    +0.000 C 
ENDBRANCH   6   7
BRANCH   3  15
ATOM     15  O   UNL     1      -0.146   2.349  19.235  0.00  0.00    +0.000 OA
ATOM     16  H   UNL     1      -0.692   3.109  19.502  0.00  0.00    +0.000 HD
ENDBRANCH   3  15
BRANCH   5  17
ATOM     17  O   UNL     1       4.522   1.584  19.472  0.00  0.00    +0.000 OA
ATOM     18  C   UNL     1       4.772   1.629  20.884  0.00  0.00    +0.000 C 
ENDBRANCH   5  17
BRANCH   1  19
ATOM     19  C   UNL     1       2.779   6.064  17.982  0.00  0.00    +0.000 C 
BRANCH  19  20
ATOM     20  C   UNL     1       2.980   7.071  19.169  0.00  0.00    +0.000 C 
BRANCH  20  24
ATOM     21  C   UNL     1      -0.106  10.124  19.456  0.00  0.00    +0.000 A 
ATOM     22  C   UNL     1       0.284   9.397  20.579  0.00  0.00    +0.000 A 
ATOM     23  C   UNL     1       1.317   8.463  20.506  0.00  0.00    +0.000 A 
ATOM     24  C   UNL     1       1.960   8.198  19.298  0.00  0.00    +0.000 A 
ATOM     25  C   UNL     1       1.598   8.970  18.177  0.00  0.00    +0.000 A 
ATOM     26  C   UNL     1       0.562   9.919  18.251  0.00  0.00    +0.000 A 
BRANCH  21  28
ATOM     27  C   UNL     1      -1.916  11.338  18.515  0.00  0.00    +0.000 C 
ATOM     28  O   UNL     1      -1.172  10.953  19.662  0.00  0.00    +0.000 OA
ENDBRANCH  21  28
ENDBRANCH  20  24
ENDBRANCH  19  20
ENDBRANCH   1  19
TORSDOF 7
ENDMDL
MODEL 4
REMARK VINA RESULT:      -7.8      1.328      1.947
REMARK  Name = 
REMARK  9 active torsions:
REMARK  status: ('A' for Active; 'I' for Inactive)
REMARK    1  A    between atoms: C_1  and  O_2
REMARK    2  A    between atoms: O_2  and  C_3
REMARK    3  A    between atoms: C_6  and  C_7
REMARK    4  A    between atoms: C_7  and  C_8
REMARK    5  A    between atoms: C_8  and  C_9
REMARK    6  A    between atoms: C_11  and  O_12
REMARK    7  A    between atoms: C_14  and  O_15
REMARK    8  A    between atoms: O_15  and  C_16
REMARK    9  A    between atoms: C_17  and  C_18
REMARK                            x       y       z     vdW  Elec       q    Type
REMARK                         _______ _______ _______ _____ _____    ______ ____
ROOT
ATOM      1  C   UNL     1       2.148   4.211  19.557  0.00  0.00    +0.000 A 
ATOM      2  C   UNL     1       1.309   3.842  20.632  0.00  0.00    +0.000 A 
ATOM      3  C   UNL     1       1.679   2.871  21.535  0.00  0.00    +0.000 A 
ATOM      4  C   UNL     1       2.873   2.205  21.377  0.00  0.00    +0.000 A 
ATOM      5  C   UNL     1       3.700   2.457  20.276  0.00  0.00    +0.000 A 
ATOM      6  C   UNL     1       3.336   3.434  19.303  0.00  0.00    +0.000 A 
ENDROOT
BRANCH   6   7
ATOM      7  C   UNL     1       4.195   3.752  18.085  0.00  0.00    +0.000 C 
ATOM      8  O   UNL     1       3.813   3.288  17.005  0.00  0.00    +0.000 OA
ATOM      9  N   UNL     1       5.437   4.456  18.142  0.00  0.00    +0.000 N 
ATOM     10  C   UNL     1       6.094   4.708  16.851  0.00  0.00    +0.000 C 
ATOM     11  C   UNL     1       7.592   4.997  16.969  0.00  0.00    +0.000 C 
ATOM     12  C   UNL     1       7.877   6.107  17.968  0.00  0.00    +0.000 C 
ATOM     13  C   UNL     1       7.268   5.746  19.311  0.00  0.00    +0.000 C 
ATOM     14  C   UNL     1       5.789   5.399  19.199  0.00  0.00    +0.000 C 
ENDBRANCH   6   7
BRANCH   3  15
ATOM     15  O   UNL     1       0.917   2.588  22.626  0.00  0.00    +0.000 OA
ATOM     16  H   UNL     1       0.236   3.279  22.708  0.00  0.00    +0.000 HD
ENDBRANCH   3  15
BRANCH   5  17
ATOM     17  O   UNL     1       4.925   1.833  20.218  0.00  0.00    +0.000 OA
ATOM     18  C   UNL     1       5.248   1.055  21.379  0.00  0.00    +0.000 C 
ENDBRANCH   5  17
BRANCH   1  19
ATOM     19  C   UNL     1       1.765   5.472  18.766  0.00  0.00    +0.000 C 
BRANCH  19  20
ATOM     20  C   UNL     1       2.538   6.805  19.060  0.00  0.00    +0.000 C 
BRANCH  20  24
ATOM     21  C   UNL     1       0.104   9.886  20.934  0.00  0.00    +0.000 A 
ATOM     22  C   UNL     1       0.431   8.719  21.622  0.00  0.00    +0.000 A 
ATOM     23  C   UNL     1       1.264   7.759  21.050  0.00  0.00    +0.000 A 
ATOM     24  C   UNL     1       1.758   7.916  19.756  0.00  0.00    +0.000 A 
ATOM     25  C   UNL     1       1.466   9.118  19.082  0.00  0.00    +0.000 A 
ATOM     26  C   UNL     1       0.633  10.093  19.661  0.00  0.00    +0.000 A 
BRANCH  21  28
ATOM     27  C   UNL     1      -0.849  10.558  23.002  0.00  0.00    +0.000 C 
ATOM     28  O   UNL     1      -0.771  10.704  21.591  0.00  0.00    +0.000 OA
ENDBRANCH  21  28
ENDBRANCH  20  24
ENDBRANCH  19  20
ENDBRANCH   1  19
TORSDOF 7
ENDMDL
MODEL 5
REMARK VINA RESULT:      -7.7      1.982      4.722
REMARK  Name = 
REMARK  9 active torsions:
REMARK  status: ('A' for Active; 'I' for Inactive)
REMARK    1  A    between atoms: C_1  and  O_2
REMARK    2  A    between atoms: O_2  and  C_3
REMARK    3  A    between atoms: C_6  and  C_7
REMARK    4  A    between atoms: C_7  and  C_8
REMARK    5  A    between atoms: C_8  and  C_9
REMARK    6  A    between atoms: C_11  and  O_12
REMARK    7  A    between atoms: C_14  and  O_15
REMARK    8  A    between atoms: O_15  and  C_16
REMARK    9  A    between atoms: C_17  and  C_18
REMARK                            x       y       z     vdW  Elec       q    Type
REMARK                         _______ _______ _______ _____ _____    ______ ____
ROOT
ATOM      1  C   UNL     1       4.043   6.485  17.738  0.00  0.00    +0.000 A 
ATOM      2  C   UNL     1       5.144   7.366  17.662  0.00  0.00    +0.000 A 
ATOM      3  C   UNL     1       6.335   6.985  17.086  0.00  0.00    +0.000 A 
ATOM      4  C   UNL     1       6.487   5.704  16.605  0.00  0.00    +0.000 A 
ATOM      5  C   UNL     1       5.466   4.756  16.741  0.00  0.00    +0.000 A 
ATOM      6  C   UNL     1       4.229   5.106  17.359  0.00  0.00    +0.000 A 
ENDROOT
BRANCH   6   7
ATOM      7  C   UNL     1       3.081   4.118  17.534  0.00  0.00    +0.000 C 
ATOM      8  O   UNL     1       2.545   3.707  16.500  0.00  0.00    +0.000 OA
ATOM      9  N   UNL     1       2.545   3.730  18.800  0.00  0.00    +0.000 N 
ATOM     10  C   UNL     1       1.470   2.727  18.763  0.00  0.00    +0.000 C 
ATOM     11  C   UNL     1       0.606   2.704  20.026  0.00  0.00    +0.000 C 
ATOM     12  C   UNL     1       1.448   2.577  21.286  0.00  0.00    +0.000 C 
ATOM     13  C   UNL     1       2.470   3.699  21.326  0.00  0.00    +0.000 C 
ATOM     14  C   UNL     1       3.299   3.769  20.049  0.00  0.00    +0.000 C 
ENDBRANCH   6   7
BRANCH   3  15
ATOM     15  O   UNL     1       7.360   7.866  16.924  0.00  0.00    +0.000 OA
ATOM     16  H   UNL     1       8.126   7.535  17.425  0.00  0.00    +0.000 HD
ENDBRANCH   3  15
BRANCH   5  17
ATOM     17  O   UNL     1       5.633   3.522  16.157  0.00  0.00    +0.000 OA
ATOM     18  C   UNL     1       6.008   3.568  14.773  0.00  0.00    +0.000 C 
ENDBRANCH   5  17
BRANCH   1  19
ATOM     19  C   UNL     1       2.691   7.082  18.158  0.00  0.00    +0.000 C 
BRANCH  19  20
ATOM     20  C   UNL     1       2.328   7.117  19.683  0.00  0.00    +0.000 C 
BRANCH  20  24
ATOM     21  C   UNL     1      -0.115  10.460  21.021  0.00  0.00    +0.000 A 
ATOM     22  C   UNL     1       0.297   9.475  21.916  0.00  0.00    +0.000 A 
ATOM     23  C   UNL     1       1.133   8.437  21.506  0.00  0.00    +0.000 A 
ATOM     24  C   UNL     1       1.545   8.330  20.179  0.00  0.00    +0.000 A 
ATOM     25  C   UNL     1       1.169   9.354  19.288  0.00  0.00    +0.000 A 
ATOM     26  C   UNL     1       0.333  10.407  19.702  0.00  0.00    +0.000 A 
BRANCH  21  28
ATOM     27  C   UNL     1      -1.295  11.243  22.926  0.00  0.00    +0.000 C 
ATOM     28  O   UNL     1      -0.982  11.375  21.547  0.00  0.00    +0.000 OA
ENDBRANCH  21  28
ENDBRANCH  20  24
ENDBRANCH  19  20
ENDBRANCH   1  19
TORSDOF 7
ENDMDL
MODEL 6
REMARK VINA RESULT:      -7.7      2.140      4.912
REMARK  Name = 
REMARK  9 active torsions:
REMARK  status: ('A' for Active; 'I' for Inactive)
REMARK    1  A    between atoms: C_1  and  O_2
REMARK    2  A    between atoms: O_2  and  C_3
REMARK    3  A    between atoms: C_6  and  C_7
REMARK    4  A    between atoms: C_7  and  C_8
REMARK    5  A    between atoms: C_8  and  C_9
REMARK    6  A    between atoms: C_11  and  O_12
REMARK    7  A    between atoms: C_14  and  O_15
REMARK    8  A    between atoms: O_15  and  C_16
REMARK    9  A    between atoms: C_17  and  C_18
REMARK                            x       y       z     vdW  Elec       q    Type
REMARK                         _______ _______ _______ _____ _____    ______ ____
ROOT
ATOM      1  C   UNL     1       4.043   6.442  17.749  0.00  0.00    +0.000 A 
ATOM      2  C   UNL     1       5.133   7.336  17.668  0.00  0.00    +0.000 A 
ATOM      3  C   UNL     1       6.317   6.977  17.064  0.00  0.00    +0.000 A 
ATOM      4  C   UNL     1       6.473   5.707  16.559  0.00  0.00    +0.000 A 
ATOM      5  C   UNL     1       5.465   4.745  16.698  0.00  0.00    +0.000 A 
ATOM      6  C   UNL     1       4.236   5.071  17.344  0.00  0.00    +0.000 A 
ENDROOT
BRANCH   6   7
ATOM      7  C   UNL     1       3.102   4.068  17.524  0.00  0.00    +0.000 C 
ATOM      8  O   UNL     1       2.618   3.594  16.492  0.00  0.00    +0.000 OA
ATOM      9  N   UNL     1       2.522   3.733  18.786  0.00  0.00    +0.000 N 
ATOM     10  C   UNL     1       1.470   2.706  18.758  0.00  0.00    +0.000 C 
ATOM     11  C   UNL     1       0.555   2.728  19.985  0.00  0.00    +0.000 C 
ATOM     12  C   UNL     1       1.347   2.684  21.282  0.00  0.00    +0.000 C 
ATOM     13  C   UNL     1       2.344   3.829  21.305  0.00  0.00    +0.000 C 
ATOM     14  C   UNL     1       3.223   3.852  20.060  0.00  0.00    +0.000 C 
ENDBRANCH   6   7
BRANCH   3  15
ATOM     15  O   UNL     1       7.329   7.871  16.898  0.00  0.00    +0.000 OA
ATOM     16  H   UNL     1       8.170   7.416  17.079  0.00  0.00    +0.000 HD
ENDBRANCH   3  15
BRANCH   5  17
ATOM     17  O   UNL     1       5.634   3.522  16.091  0.00  0.00    +0.000 OA
ATOM     18  C   UNL     1       6.058   3.596  14.722  0.00  0.00    +0.000 C 
ENDBRANCH   5  17
BRANCH   1  19
ATOM     19  C   UNL     1       2.693   7.017  18.204  0.00  0.00    +0.000 C 
BRANCH  19  20
ATOM     20  C   UNL     1       2.330   8.489  17.801  0.00  0.00    +0.000 C 
BRANCH  20  24
ATOM     21  C   UNL     1      -0.575  10.668  20.198  0.00  0.00    +0.000 A 
ATOM     22  C   UNL     1      -0.601  10.740  18.806  0.00  0.00    +0.000 A 
ATOM     23  C   UNL     1       0.286   9.993  18.032  0.00  0.00    +0.000 A 
ATOM     24  C   UNL     1       1.254   9.187  18.628  0.00  0.00    +0.000 A 
ATOM     25  C   UNL     1       1.246   9.077  20.033  0.00  0.00    +0.000 A 
ATOM     26  C   UNL     1       0.346   9.823  20.815  0.00  0.00    +0.000 A 
BRANCH  21  28
ATOM     27  C   UNL     1      -1.949  12.600  20.067  0.00  0.00    +0.000 C 
ATOM     28  O   UNL     1      -1.457  11.503  20.824  0.00  0.00    +0.000 OA
ENDBRANCH  21  28
ENDBRANCH  20  24
ENDBRANCH  19  20
ENDBRANCH   1  19
TORSDOF 7
ENDMDL
MODEL 7
REMARK VINA RESULT:      -7.5      1.316      2.146
REMARK  Name = 
REMARK  9 active torsions:
REMARK  status: ('A' for Active; 'I' for Inactive)
REMARK    1  A    between atoms: C_1  and  O_2
REMARK    2  A    between atoms: O_2  and  C_3
REMARK    3  A    between atoms: C_6  and  C_7
REMARK    4  A    between atoms: C_7  and  C_8
REMARK    5  A    between atoms: C_8  and  C_9
REMARK    6  A    between atoms: C_11  and  O_12
REMARK    7  A    between atoms: C_14  and  O_15
REMARK    8  A    between atoms: O_15  and  C_16
REMARK    9  A    between atoms: C_17  and  C_18
REMARK                            x       y       z     vdW  Elec       q    Type
REMARK                         _______ _______ _______ _____ _____    ______ ____
ROOT
ATOM      1  C   UNL     1       2.047   4.284  19.475  0.00  0.00    +0.000 A 
ATOM      2  C   UNL     1       1.235   3.898  20.564  0.00  0.00    +0.000 A 
ATOM      3  C   UNL     1       1.638   2.928  21.455  0.00  0.00    +0.000 A 
ATOM      4  C   UNL     1       2.838   2.281  21.271  0.00  0.00    +0.000 A 
ATOM      5  C   UNL     1       3.640   2.550  20.155  0.00  0.00    +0.000 A 
ATOM      6  C   UNL     1       3.242   3.526  19.195  0.00  0.00    +0.000 A 
ENDROOT
BRANCH   6   7
ATOM      7  C   UNL     1       4.073   3.863  17.961  0.00  0.00    +0.000 C 
ATOM      8  O   UNL     1       3.651   3.439  16.881  0.00  0.00    +0.000 OA
ATOM      9  N   UNL     1       5.330   4.541  18.003  0.00  0.00    +0.000 N 
ATOM     10  C   UNL     1       5.954   4.818  16.701  0.00  0.00    +0.000 C 
ATOM     11  C   UNL     1       7.461   5.075  16.784  0.00  0.00    +0.000 C 
ATOM     12  C   UNL     1       7.796   6.150  17.806  0.00  0.00    +0.000 C 
ATOM     13  C   UNL     1       7.218   5.762  19.155  0.00  0.00    +0.000 C 
ATOM     14  C   UNL     1       5.730   5.447  19.075  0.00  0.00    +0.000 C 
ENDBRANCH   6   7
BRANCH   3  15
ATOM     15  O   UNL     1       0.901   2.628  22.559  0.00  0.00    +0.000 OA
ATOM     16  H   UNL     1       0.885   3.412  23.136  0.00  0.00    +0.000 HD
ENDBRANCH   3  15
BRANCH   5  17
ATOM     17  O   UNL     1       4.873   1.946  20.070  0.00  0.00    +0.000 OA
ATOM     18  C   UNL     1       5.235   1.178  21.227  0.00  0.00    +0.000 C 
ENDBRANCH   5  17
BRANCH   1  19
ATOM     19  C   UNL     1       1.631   5.542  18.698  0.00  0.00    +0.000 C 
BRANCH  19  20
ATOM     20  C   UNL     1       2.439   6.867  18.927  0.00  0.00    +0.000 C 
BRANCH  20  24
ATOM     21  C   UNL     1       0.706  10.083  21.290  0.00  0.00    +0.000 A 
ATOM     22  C   UNL     1       0.877  10.222  19.914  0.00  0.00    +0.000 A 
ATOM     23  C   UNL     1       1.371   9.170  19.143  0.00  0.00    +0.000 A 
ATOM     24  C   UNL     1       1.751   7.966  19.732  0.00  0.00    +0.000 A 
ATOM     25  C   UNL     1       1.530   7.810  21.114  0.00  0.00    +0.000 A 
ATOM     26  C   UNL     1       1.023   8.867  21.893  0.00  0.00    +0.000 A 
BRANCH  21  28
ATOM     27  C   UNL     1      -0.831  11.891  21.345  0.00  0.00    +0.000 C 
ATOM     28  O   UNL     1       0.275  11.214  21.924  0.00  0.00    +0.000 OA
ENDBRANCH  21  28
ENDBRANCH  20  24
ENDBRANCH  19  20
ENDBRANCH   1  19
TORSDOF 7
ENDMDL
MODEL 8
REMARK VINA RESULT:      -7.4      1.544      2.437
REMARK  Name = 
REMARK  9 active torsions:
REMARK  status: ('A' for Active; 'I' for Inactive)
REMARK    1  A    between atoms: C_1  and  O_2
REMARK    2  A    between atoms: O_2  and  C_3
REMARK    3  A    between atoms: C_6  and  C_7
REMARK    4  A    between atoms: C_7  and  C_8
REMARK    5  A    between atoms: C_8  and  C_9
REMARK    6  A    between atoms: C_11  and  O_12
REMARK    7  A    between atoms: C_14  and  O_15
REMARK    8  A    between atoms: O_15  and  C_16
REMARK    9  A    between atoms: C_17  and  C_18
REMARK                            x       y       z     vdW  Elec       q    Type
REMARK                         _______ _______ _______ _____ _____    ______ ____
ROOT
ATOM      1  C   UNL     1       2.160   4.342  19.676  0.00  0.00    +0.000 A 
ATOM      2  C   UNL     1       1.358   3.927  20.761  0.00  0.00    +0.000 A 
ATOM      3  C   UNL     1       1.718   2.864  21.559  0.00  0.00    +0.000 A 
ATOM      4  C   UNL     1       2.863   2.152  21.280  0.00  0.00    +0.000 A 
ATOM      5  C   UNL     1       3.646   2.455  20.159  0.00  0.00    +0.000 A 
ATOM      6  C   UNL     1       3.288   3.530  19.293  0.00  0.00    +0.000 A 
ENDROOT
BRANCH   6   7
ATOM      7  C   UNL     1       4.101   3.906  18.059  0.00  0.00    +0.000 C 
ATOM      8  O   UNL     1       3.661   3.520  16.972  0.00  0.00    +0.000 OA
ATOM      9  N   UNL     1       5.360   4.580  18.105  0.00  0.00    +0.000 N 
ATOM     10  C   UNL     1       5.965   4.899  16.803  0.00  0.00    +0.000 C 
ATOM     11  C   UNL     1       7.474   5.150  16.872  0.00  0.00    +0.000 C 
ATOM     12  C   UNL     1       7.827   6.189  17.924  0.00  0.00    +0.000 C 
ATOM     13  C   UNL     1       7.269   5.757  19.269  0.00  0.00    +0.000 C 
ATOM     14  C   UNL     1       5.779   5.448  19.201  0.00  0.00    +0.000 C 
ENDBRANCH   6   7
BRANCH   3  15
ATOM     15  O   UNL     1       0.997   2.528  22.663  0.00  0.00    +0.000 OA
ATOM     16  H   UNL     1       0.987   3.294  23.264  0.00  0.00    +0.000 HD
ENDBRANCH   3  15
BRANCH   5  17
ATOM     17  O   UNL     1       4.829   1.776  19.981  0.00  0.00    +0.000 OA
ATOM     18  C   UNL     1       5.317   1.121  21.161  0.00  0.00    +0.000 C 
ENDBRANCH   5  17
BRANCH   1  19
ATOM     19  C   UNL     1       1.810   5.685  19.015  0.00  0.00    +0.000 C 
BRANCH  19  20
ATOM     20  C   UNL     1       2.498   6.988  19.552  0.00  0.00    +0.000 C 
BRANCH  20  24
ATOM     21  C   UNL     1       0.329  10.759  19.584  0.00  0.00    +0.000 A 
ATOM     22  C   UNL     1       0.881  10.265  18.404  0.00  0.00    +0.000 A 
ATOM     23  C   UNL     1       1.521   9.026  18.376  0.00  0.00    +0.000 A 
ATOM     24  C   UNL     1       1.666   8.267  19.535  0.00  0.00    +0.000 A 
ATOM     25  C   UNL     1       1.063   8.745  20.715  0.00  0.00    +0.000 A 
ATOM     26  C   UNL     1       0.409   9.991  20.743  0.00  0.00    +0.000 A 
BRANCH  21  28
ATOM     27  C   UNL     1      -1.061  12.249  18.365  0.00  0.00    +0.000 C 
ATOM     28  O   UNL     1      -0.207  12.011  19.475  0.00  0.00    +0.000 OA
ENDBRANCH  21  28
ENDBRANCH  20  24
ENDBRANCH  19  20
ENDBRANCH   1  19
TORSDOF 7
ENDMDL
MODEL 9
REMARK VINA RESULT:      -7.3      2.155      4.960
REMARK  Name = 
REMARK  9 active torsions:
REMARK  status: ('A' for Active; 'I' for Inactive)
REMARK    1  A    between atoms: C_1  and  O_2
REMARK    2  A    between atoms: O_2  and  C_3
REMARK    3  A    between atoms: C_6  and  C_7
REMARK    4  A    between atoms: C_7  and  C_8
REMARK    5  A    between atoms: C_8  and  C_9
REMARK    6  A    between atoms: C_11  and  O_12
REMARK    7  A    between atoms: C_14  and  O_15
REMARK    8  A    between atoms: O_15  and  C_16
REMARK    9  A    between atoms: C_17  and  C_18
REMARK                            x       y       z     vdW  Elec       q    Type
REMARK                         _______ _______ _______ _____ _____    ______ ____
ROOT
ATOM      1  C   UNL     1       4.210   6.402  17.874  0.00  0.00    +0.000 A 
ATOM      2  C   UNL     1       5.328   7.261  17.788  0.00  0.00    +0.000 A 
ATOM      3  C   UNL     1       6.469   6.892  17.111  0.00  0.00    +0.000 A 
ATOM      4  C   UNL     1       6.554   5.646  16.534  0.00  0.00    +0.000 A 
ATOM      5  C   UNL     1       5.518   4.715  16.671  0.00  0.00    +0.000 A 
ATOM      6  C   UNL     1       4.333   5.049  17.391  0.00  0.00    +0.000 A 
ENDROOT
BRANCH   6   7
ATOM      7  C   UNL     1       3.171   4.078  17.572  0.00  0.00    +0.000 C 
ATOM      8  O   UNL     1       2.676   3.613  16.540  0.00  0.00    +0.000 OA
ATOM      9  N   UNL     1       2.579   3.765  18.834  0.00  0.00    +0.000 N 
ATOM     10  C   UNL     1       1.500   2.766  18.808  0.00  0.00    +0.000 C 
ATOM     11  C   UNL     1       0.583   2.819  20.032  0.00  0.00    +0.000 C 
ATOM     12  C   UNL     1       1.371   2.758  21.331  0.00  0.00    +0.000 C 
ATOM     13  C   UNL     1       2.399   3.876  21.352  0.00  0.00    +0.000 C 
ATOM     14  C   UNL     1       3.281   3.869  20.109  0.00  0.00    +0.000 C 
ENDBRANCH   6   7
BRANCH   3  15
ATOM     15  O   UNL     1       7.506   7.758  16.943  0.00  0.00    +0.000 OA
ATOM     16  H   UNL     1       8.127   7.368  16.305  0.00  0.00    +0.000 HD
ENDBRANCH   3  15
BRANCH   5  17
ATOM     17  O   UNL     1       5.613   3.521  15.995  0.00  0.00    +0.000 OA
ATOM     18  C   UNL     1       6.043   3.646  14.632  0.00  0.00    +0.000 C 
ENDBRANCH   5  17
BRANCH   1  19
ATOM     19  C   UNL     1       2.904   6.999  18.421  0.00  0.00    +0.000 C 
BRANCH  19  20
ATOM     20  C   UNL     1       2.219   8.163  17.623  0.00  0.00    +0.000 C 
BRANCH  20  24
ATOM     21  C   UNL     1       1.001  11.550  20.067  0.00  0.00    +0.000 A 
ATOM     22  C   UNL     1       1.582  11.747  18.816  0.00  0.00    +0.000 A 
ATOM     23  C   UNL     1       1.914  10.664  18.002  0.00  0.00    +0.000 A 
ATOM     24  C   UNL     1       1.716   9.354  18.434  0.00  0.00    +0.000 A 
ATOM     25  C   UNL     1       1.084   9.160  19.677  0.00  0.00    +0.000 A 
ATOM     26  C   UNL     1       0.739  10.250  20.496  0.00  0.00    +0.000 A 
BRANCH  21  28
ATOM     27  C   UNL     1       1.893  13.582  20.912  0.00  0.00    +0.000 C 
ATOM     28  O   UNL     1       0.790  12.697  20.779  0.00  0.00    +0.000 OA
ENDBRANCH  21  28
ENDBRANCH  20  24
ENDBRANCH  19  20
ENDBRANCH   1  19
TORSDOF 7
ENDMDL
