MODEL 1
REMARK VINA RESULT:      -6.9      0.000      0.000
REMARK  Name = 
REMARK  1 active torsions:
REMARK  status: ('A' for Active; 'I' for Inactive)
REMARK    1  A    between atoms: C_1  and  N_2
REMARK                            x       y       z     vdW  Elec       q    Type
REMARK                         _______ _______ _______ _____ _____    ______ ____
ROOT
ATOM      1  C   UNL     1       2.625   2.900  21.315  0.00  0.00    +0.000 C 
ATOM      2  N   UNL     1       2.685   3.268  19.900  0.00  0.00    +0.000 NA
ATOM      3  C   UNL     1       3.442   2.249  19.125  0.00  0.00    +0.000 C 
ATOM      4  C   UNL     1       3.677   2.646  17.637  0.00  0.00    +0.000 C 
ATOM      5  N   UNL     1       4.335   3.953  17.631  0.00  0.00    +0.000 N 
ATOM      6  C   UNL     1       5.153   4.317  16.580  0.00  0.00    +0.000 A 
ATOM      7  C   UNL     1       6.164   5.258  16.802  0.00  0.00    +0.000 A 
ATOM      8  N   UNL     1       7.076   5.646  15.888  0.00  0.00    +0.000 NA
ATOM      9  C   UNL     1       6.967   5.060  14.689  0.00  0.00    +0.000 A 
ATOM     10  C   UNL     1       7.879   5.403  13.701  0.00  0.00    +0.000 A 
ATOM     11  C   UNL     1       7.802   4.851  12.425  0.00  0.00    +0.000 A 
ATOM     12  C   UNL     1       6.792   3.943  12.135  0.00  0.00    +0.000 A 
ATOM     13  C   UNL     1       5.878   3.578  13.132  0.00  0.00    +0.000 A 
ATOM     14  C   UNL     1       5.947   4.110  14.417  0.00  0.00    +0.000 A 
ATOM     15  N   UNL     1       5.060   3.727  15.369  0.00  0.00    +0.000 NA
ATOM     16  C   UNL     1       3.534   4.998  18.276  0.00  0.00    +0.000 C 
ATOM     17  C   UNL     1       3.321   4.599  19.753  0.00  0.00    +0.000 C 
ENDROOT
TORSDOF 0
ENDMDL
MODEL 2
REMARK VINA RESULT:      -6.4      3.920      7.399
REMARK  Name = 
REMARK  1 active torsions:
REMARK  status: ('A' for Active; 'I' for Inactive)
REMARK    1  A    between atoms: C_1  and  N_2
REMARK                            x       y       z     vdW  Elec       q    Type
REMARK                         _______ _______ _______ _____ _____    ______ ____
ROOT
ATOM      1  C   UNL     1       5.917   3.701  15.352  0.00  0.00    +0.000 C 
ATOM      2  N   UNL     1       5.609   4.505  16.535  0.00  0.00    +0.000 NA
ATOM      3  C   UNL     1       4.300   4.102  17.117  0.00  0.00    +0.000 C 
ATOM      4  C   UNL     1       3.833   5.012  18.291  0.00  0.00    +0.000 C 
ATOM      5  N   UNL     1       3.823   6.390  17.799  0.00  0.00    +0.000 N 
ATOM      6  C   UNL     1       2.969   7.323  18.354  0.00  0.00    +0.000 A 
ATOM      7  C   UNL     1       2.567   8.418  17.583  0.00  0.00    +0.000 A 
ATOM      8  N   UNL     1       1.684   9.358  17.973  0.00  0.00    +0.000 NA
ATOM      9  C   UNL     1       1.178   9.191  19.203  0.00  0.00    +0.000 A 
ATOM     10  C   UNL     1       0.253  10.115  19.668  0.00  0.00    +0.000 A 
ATOM     11  C   UNL     1      -0.288  10.013  20.946  0.00  0.00    +0.000 A 
ATOM     12  C   UNL     1       0.108   8.969  21.772  0.00  0.00    +0.000 A 
ATOM     13  C   UNL     1       1.027   8.022  21.304  0.00  0.00    +0.000 A 
ATOM     14  C   UNL     1       1.569   8.100  20.024  0.00  0.00    +0.000 A 
ATOM     15  N   UNL     1       2.445   7.160  19.588  0.00  0.00    +0.000 NA
ATOM     16  C   UNL     1       5.142   6.845  17.347  0.00  0.00    +0.000 C 
ATOM     17  C   UNL     1       5.586   5.943  16.175  0.00  0.00    +0.000 C 
ENDROOT
TORSDOF 0
ENDMDL
MODEL 3
REMARK VINA RESULT:      -6.4      1.352      6.492
REMARK  Name = 
REMARK  1 active torsions:
REMARK  status: ('A' for Active; 'I' for Inactive)
REMARK    1  A    between atoms: C_1  and  N_2
REMARK                            x       y       z     vdW  Elec       q    Type
REMARK                         _______ _______ _______ _____ _____    ______ ____
ROOT
ATOM      1  C   UNL     1       7.920   5.513  13.150  0.00  0.00    +0.000 C 
ATOM      2  N   UNL     1       7.520   4.866  14.400  0.00  0.00    +0.000 NA
ATOM      3  C   UNL     1       6.218   4.167  14.236  0.00  0.00    +0.000 C 
ATOM      4  C   UNL     1       5.654   3.581  15.564  0.00  0.00    +0.000 C 
ATOM      5  N   UNL     1       5.580   4.677  16.530  0.00  0.00    +0.000 N 
ATOM      6  C   UNL     1       4.653   4.644  17.553  0.00  0.00    +0.000 A 
ATOM      7  C   UNL     1       4.216   5.850  18.111  0.00  0.00    +0.000 A 
ATOM      8  N   UNL     1       3.265   5.965  19.059  0.00  0.00    +0.000 NA
ATOM      9  C   UNL     1       2.724   4.810  19.469  0.00  0.00    +0.000 A 
ATOM     10  C   UNL     1       1.730   4.852  20.436  0.00  0.00    +0.000 A 
ATOM     11  C   UNL     1       1.149   3.685  20.924  0.00  0.00    +0.000 A 
ATOM     12  C   UNL     1       1.575   2.457  20.437  0.00  0.00    +0.000 A 
ATOM     13  C   UNL     1       2.565   2.406  19.448  0.00  0.00    +0.000 A 
ATOM     14  C   UNL     1       3.149   3.562  18.939  0.00  0.00    +0.000 A 
ATOM     15  N   UNL     1       4.094   3.487  17.968  0.00  0.00    +0.000 NA
ATOM     16  C   UNL     1       6.886   5.286  16.803  0.00  0.00    +0.000 C 
ATOM     17  C   UNL     1       7.426   5.876  15.481  0.00  0.00    +0.000 C 
ENDROOT
TORSDOF 0
ENDMDL
MODEL 4
REMARK VINA RESULT:      -6.3      4.377      7.631
REMARK  Name = 
REMARK  1 active torsions:
REMARK  status: ('A' for Active; 'I' for Inactive)
REMARK    1  A    between atoms: C_1  and  N_2
REMARK                            x       y       z     vdW  Elec       q    Type
REMARK                         _______ _______ _______ _____ _____    ______ ____
ROOT
ATOM      1  C   UNL     1       3.689   1.735  18.817  0.00  0.00    +0.000 C 
ATOM      2  N   UNL     1       3.622   2.969  19.600  0.00  0.00    +0.000 NA
ATOM      3  C   UNL     1       2.220   3.258  20.005  0.00  0.00    +0.000 C 
ATOM      4  C   UNL     1       2.048   4.633  20.716  0.00  0.00    +0.000 C 
ATOM      5  N   UNL     1       2.592   5.657  19.824  0.00  0.00    +0.000 N 
ATOM      6  C   UNL     1       2.116   6.952  19.876  0.00  0.00    +0.000 A 
ATOM      7  C   UNL     1       2.212   7.757  18.736  0.00  0.00    +0.000 A 
ATOM      8  N   UNL     1       1.723   9.008  18.627  0.00  0.00    +0.000 NA
ATOM      9  C   UNL     1       1.104   9.476  19.719  0.00  0.00    +0.000 A 
ATOM     10  C   UNL     1       0.565  10.754  19.676  0.00  0.00    +0.000 A 
ATOM     11  C   UNL     1      -0.065  11.309  20.787  0.00  0.00    +0.000 A 
ATOM     12  C   UNL     1      -0.152  10.571  21.960  0.00  0.00    +0.000 A 
ATOM     13  C   UNL     1       0.374   9.275  22.006  0.00  0.00    +0.000 A 
ATOM     14  C   UNL     1       0.996   8.698  20.902  0.00  0.00    +0.000 A 
ATOM     15  N   UNL     1       1.481   7.433  20.967  0.00  0.00    +0.000 NA
ATOM     16  C   UNL     1       4.014   5.457  19.526  0.00  0.00    +0.000 C 
ATOM     17  C   UNL     1       4.168   4.098  18.810  0.00  0.00    +0.000 C 
ENDROOT
TORSDOF 0
ENDMDL
MODEL 5
REMARK VINA RESULT:      -6.2      4.003      5.453
REMARK  Name = 
REMARK  1 active torsions:
REMARK  status: ('A' for Active; 'I' for Inactive)
REMARK    1  A    between atoms: C_1  and  N_2
REMARK                            x       y       z     vdW  Elec       q    Type
REMARK                         _______ _______ _______ _____ _____    ______ ____
ROOT
ATOM      1  C   UNL     1      -0.929  10.907  20.111  0.00  0.00    +0.000 C 
ATOM      2  N   UNL     1       0.405  10.351  19.886  0.00  0.00    +0.000 NA
ATOM      3  C   UNL     1       0.677  10.214  18.430  0.00  0.00    +0.000 C 
ATOM      4  C   UNL     1       2.020   9.491  18.113  0.00  0.00    +0.000 C 
ATOM      5  N   UNL     1       1.994   8.199  18.799  0.00  0.00    +0.000 N 
ATOM      6  C   UNL     1       2.718   7.132  18.305  0.00  0.00    +0.000 A 
ATOM      7  C   UNL     1       2.295   5.831  18.599  0.00  0.00    +0.000 A 
ATOM      8  N   UNL     1       2.863   4.706  18.122  0.00  0.00    +0.000 NA
ATOM      9  C   UNL     1       3.910   4.895  17.308  0.00  0.00    +0.000 A 
ATOM     10  C   UNL     1       4.538   3.781  16.769  0.00  0.00    +0.000 A 
ATOM     11  C   UNL     1       5.648   3.909  15.939  0.00  0.00    +0.000 A 
ATOM     12  C   UNL     1       6.137   5.176  15.648  0.00  0.00    +0.000 A 
ATOM     13  C   UNL     1       5.498   6.306  16.172  0.00  0.00    +0.000 A 
ATOM     14  C   UNL     1       4.380   6.198  16.994  0.00  0.00    +0.000 A 
ATOM     15  N   UNL     1       3.768   7.309  17.475  0.00  0.00    +0.000 NA
ATOM     16  C   UNL     1       1.862   8.328  20.254  0.00  0.00    +0.000 C 
ATOM     17  C   UNL     1       0.521   9.033  20.554  0.00  0.00    +0.000 C 
ENDROOT
TORSDOF 0
ENDMDL
MODEL 6
REMARK VINA RESULT:      -6.2      1.466      6.759
REMARK  Name = 
REMARK  1 active torsions:
REMARK  status: ('A' for Active; 'I' for Inactive)
REMARK    1  A    between atoms: C_1  and  N_2
REMARK                            x       y       z     vdW  Elec       q    Type
REMARK                         _______ _______ _______ _____ _____    ______ ____
ROOT
ATOM      1  C   UNL     1       7.503   5.328  13.553  0.00  0.00    +0.000 C 
ATOM      2  N   UNL     1       7.056   5.405  14.944  0.00  0.00    +0.000 NA
ATOM      3  C   UNL     1       6.938   4.044  15.533  0.00  0.00    +0.000 C 
ATOM      4  C   UNL     1       6.324   4.037  16.964  0.00  0.00    +0.000 C 
ATOM      5  N   UNL     1       5.035   4.726  16.892  0.00  0.00    +0.000 N 
ATOM      6  C   UNL     1       4.029   4.419  17.786  0.00  0.00    +0.000 A 
ATOM      7  C   UNL     1       2.699   4.641  17.413  0.00  0.00    +0.000 A 
ATOM      8  N   UNL     1       1.621   4.319  18.156  0.00  0.00    +0.000 NA
ATOM      9  C   UNL     1       1.892   3.745  19.335  0.00  0.00    +0.000 A 
ATOM     10  C   UNL     1       0.831   3.375  20.149  0.00  0.00    +0.000 A 
ATOM     11  C   UNL     1       1.046   2.801  21.399  0.00  0.00    +0.000 A 
ATOM     12  C   UNL     1       2.347   2.597  21.839  0.00  0.00    +0.000 A 
ATOM     13  C   UNL     1       3.424   2.949  21.017  0.00  0.00    +0.000 A 
ATOM     14  C   UNL     1       3.228   3.514  19.759  0.00  0.00    +0.000 A 
ATOM     15  N   UNL     1       4.288   3.831  18.973  0.00  0.00    +0.000 NA
ATOM     16  C   UNL     1       5.156   6.116  16.440  0.00  0.00    +0.000 C 
ATOM     17  C   UNL     1       5.752   6.108  15.015  0.00  0.00    +0.000 C 
ENDROOT
TORSDOF 0
ENDMDL
MODEL 7
REMARK VINA RESULT:      -6.2      1.171      1.344
REMARK  Name = 
REMARK  1 active torsions:
REMARK  status: ('A' for Active; 'I' for Inactive)
REMARK    1  A    between atoms: C_1  and  N_2
REMARK                            x       y       z     vdW  Elec       q    Type
REMARK                         _______ _______ _______ _____ _____    ______ ____
ROOT
ATOM      1  C   UNL     1       1.291   2.628  21.901  0.00  0.00    +0.000 C 
ATOM      2  N   UNL     1       1.550   3.212  20.585  0.00  0.00    +0.000 NA
ATOM      3  C   UNL     1       2.133   2.198  19.666  0.00  0.00    +0.000 C 
ATOM      4  C   UNL     1       2.574   2.783  18.292  0.00  0.00    +0.000 C 
ATOM      5  N   UNL     1       3.496   3.886  18.562  0.00  0.00    +0.000 N 
ATOM      6  C   UNL     1       4.461   4.232  17.636  0.00  0.00    +0.000 A 
ATOM      7  C   UNL     1       5.628   4.864  18.076  0.00  0.00    +0.000 A 
ATOM      8  N   UNL     1       6.677   5.187  17.294  0.00  0.00    +0.000 NA
ATOM      9  C   UNL     1       6.547   4.859  16.001  0.00  0.00    +0.000 A 
ATOM     10  C   UNL     1       7.593   5.151  15.138  0.00  0.00    +0.000 A 
ATOM     11  C   UNL     1       7.509   4.862  13.779  0.00  0.00    +0.000 A 
ATOM     12  C   UNL     1       6.355   4.273  13.278  0.00  0.00    +0.000 A 
ATOM     13  C   UNL     1       5.302   3.958  14.146  0.00  0.00    +0.000 A 
ATOM     14  C   UNL     1       5.373   4.228  15.510  0.00  0.00    +0.000 A 
ATOM     15  N   UNL     1       4.347   3.898  16.333  0.00  0.00    +0.000 NA
ATOM     16  C   UNL     1       2.887   4.959  19.356  0.00  0.00    +0.000 C 
ATOM     17  C   UNL     1       2.468   4.368  20.720  0.00  0.00    +0.000 C 
ENDROOT
TORSDOF 0
ENDMDL
MODEL 8
REMARK VINA RESULT:      -6.1      4.774      6.891
REMARK  Name = 
REMARK  1 active torsions:
REMARK  status: ('A' for Active; 'I' for Inactive)
REMARK    1  A    between atoms: C_1  and  N_2
REMARK                            x       y       z     vdW  Elec       q    Type
REMARK                         _______ _______ _______ _____ _____    ______ ____
ROOT
ATOM      1  C   UNL     1      -1.318  11.464  22.635  0.00  0.00    +0.000 C 
ATOM      2  N   UNL     1      -0.085  10.893  22.093  0.00  0.00    +0.000 NA
ATOM      3  C   UNL     1      -0.232  10.611  20.640  0.00  0.00    +0.000 C 
ATOM      4  C   UNL     1       0.988   9.864  20.024  0.00  0.00    +0.000 C 
ATOM      5  N   UNL     1       1.199   8.648  20.809  0.00  0.00    +0.000 N 
ATOM      6  C   UNL     1       1.787   7.539  20.233  0.00  0.00    +0.000 A 
ATOM      7  C   UNL     1       1.508   6.273  20.758  0.00  0.00    +0.000 A 
ATOM      8  N   UNL     1       1.953   5.108  20.249  0.00  0.00    +0.000 NA
ATOM      9  C   UNL     1       2.719   5.218  19.156  0.00  0.00    +0.000 A 
ATOM     10  C   UNL     1       3.204   4.057  18.570  0.00  0.00    +0.000 A 
ATOM     11  C   UNL     1       4.029   4.105  17.450  0.00  0.00    +0.000 A 
ATOM     12  C   UNL     1       4.375   5.337  16.911  0.00  0.00    +0.000 A 
ATOM     13  C   UNL     1       3.875   6.512  17.485  0.00  0.00    +0.000 A 
ATOM     14  C   UNL     1       3.039   6.484  18.598  0.00  0.00    +0.000 A 
ATOM     15  N   UNL     1       2.553   7.636  19.125  0.00  0.00    +0.000 NA
ATOM     16  C   UNL     1       1.481   8.923  22.222  0.00  0.00    +0.000 C 
ATOM     17  C   UNL     1       0.258   9.649  22.823  0.00  0.00    +0.000 C 
ENDROOT
TORSDOF 0
ENDMDL
MODEL 9
REMARK VINA RESULT:      -6.0      4.625      7.937
REMARK  Name = 
REMARK  1 active torsions:
REMARK  status: ('A' for Active; 'I' for Inactive)
REMARK    1  A    between atoms: C_1  and  N_2
REMARK                            x       y       z     vdW  Elec       q    Type
REMARK                         _______ _______ _______ _____ _____    ______ ____
ROOT
ATOM      1  C   UNL     1       5.072   3.736  16.293  0.00  0.00    +0.000 C 
ATOM      2  N   UNL     1       4.860   4.758  17.319  0.00  0.00    +0.000 NA
ATOM      3  C   UNL     1       3.640   4.457  18.115  0.00  0.00    +0.000 C 
ATOM      4  C   UNL     1       3.265   5.578  19.129  0.00  0.00    +0.000 C 
ATOM      5  N   UNL     1       3.145   6.827  18.375  0.00  0.00    +0.000 N 
ATOM      6  C   UNL     1       2.319   7.837  18.827  0.00  0.00    +0.000 A 
ATOM      7  C   UNL     1       1.791   8.746  17.903  0.00  0.00    +0.000 A 
ATOM      8  N   UNL     1       0.917   9.729  18.196  0.00  0.00    +0.000 NA
ATOM      9  C   UNL     1       0.555   9.806  19.483  0.00  0.00    +0.000 A 
ATOM     10  C   UNL     1      -0.352  10.788  19.857  0.00  0.00    +0.000 A 
ATOM     11  C   UNL     1      -0.747  10.938  21.183  0.00  0.00    +0.000 A 
ATOM     12  C   UNL     1      -0.222  10.091  22.150  0.00  0.00    +0.000 A 
ATOM     13  C   UNL     1       0.679   9.086  21.779  0.00  0.00    +0.000 A 
ATOM     14  C   UNL     1       1.076   8.912  20.456  0.00  0.00    +0.000 A 
ATOM     15  N   UNL     1       1.937   7.919  20.120  0.00  0.00    +0.000 NA
ATOM     16  C   UNL     1       4.388   7.205  17.695  0.00  0.00    +0.000 C 
ATOM     17  C   UNL     1       4.739   6.092  16.683  0.00  0.00    +0.000 C 
ENDROOT
TORSDOF 0
ENDMDL
