MODEL 1
REMARK VINA RESULT:      -8.1      0.000      0.000
REMARK  Name = 
REMARK  8 active torsions:
REMARK  status: ('A' for Active; 'I' for Inactive)
REMARK    1  A    between atoms: N_1  and  C_2
REMARK    2  A    between atoms: C_2  and  C_3
REMARK    3  A    between atoms: C_3  and  C_4
REMARK    4  A    between atoms: C_4  and  N_5
REMARK    5  A    between atoms: N_5  and  C_6
REMARK    6  A    between atoms: C_8  and  C_9
REMARK    7  A    between atoms: C_13  and  O_14
REMARK    8  A    between atoms: O_14  and  C_15
REMARK                            x       y       z     vdW  Elec       q    Type
REMARK                         _______ _______ _______ _____ _____    ______ ____
ROOT
ATOM      1  C   UNL     1       3.004   4.592  17.711  0.00  0.00    +0.000 A 
ATOM      2  N   UNL     1       2.344   5.636  18.264  0.00  0.00    +0.000 NA
ATOM      3  C   UNL     1       2.828   6.885  18.089  0.00  0.00    +0.000 A 
ATOM      4  C   UNL     1       4.000   7.120  17.392  0.00  0.00    +0.000 A 
ATOM      5  C   UNL     1       4.709   6.074  16.853  0.00  0.00    +0.000 A 
ATOM      6  N   UNL     1       5.838   6.371  16.188  0.00  0.00    +0.000 NA
ATOM      7  C   UNL     1       6.539   5.359  15.638  0.00  0.00    +0.000 A 
ATOM      8  C   UNL     1       6.159   4.037  15.718  0.00  0.00    +0.000 A 
ATOM      9  C   UNL     1       4.995   3.736  16.416  0.00  0.00    +0.000 A 
ATOM     10  C   UNL     1       4.224   4.765  17.009  0.00  0.00    +0.000 A 
ENDROOT
BRANCH   3  11
ATOM     11  C   UNL     1       2.057   7.990  18.695  0.00  0.00    +0.000 A 
ATOM     12  C   UNL     1       1.490   9.004  17.897  0.00  0.00    +0.000 A 
ATOM     13  C   UNL     1       0.864  10.110  18.469  0.00  0.00    +0.000 A 
ATOM     14  C   UNL     1       0.764  10.202  19.853  0.00  0.00    +0.000 A 
ATOM     15  C   UNL     1       1.251   9.180  20.670  0.00  0.00    +0.000 A 
ATOM     16  C   UNL     1       1.913   8.094  20.093  0.00  0.00    +0.000 A 
BRANCH  15  17
ATOM     17  O   UNL     1       1.094   9.404  22.004  0.00  0.00    +0.000 OA
BRANCH  17  18
ATOM     18  C   UNL     1      -0.205   9.355  22.574  0.00  0.00    +0.000 C 
ATOM     19  F   UNL     1      -0.950  10.459  22.368  0.00  0.00    +0.000 F 
ATOM     20  F   UNL     1      -0.865   8.282  22.086  0.00  0.00    +0.000 F 
ATOM     21  F   UNL     1      -0.074   9.190  23.911  0.00  0.00    +0.000 F 
ENDBRANCH  17  18
ENDBRANCH  15  17
ENDBRANCH   3  11
BRANCH   1  22
ATOM     22  N   UNL     1       2.474   3.291  17.888  0.00  0.00    +0.000 N 
ATOM     23  H   UNL     1       1.466   3.312  17.788  0.00  0.00    +0.000 HD
BRANCH  22  24
ATOM     24  C   UNL     1       2.826   2.661  19.167  0.00  0.00    +0.000 C 
BRANCH  24  25
ATOM     25  C   UNL     1       1.674   2.812  20.172  0.00  0.00    +0.000 C 
BRANCH  25  26
ATOM     26  C   UNL     1       2.141   3.418  21.485  0.00  0.00    +0.000 C 
BRANCH  26  27
ATOM     27  N   UNL     1       2.340   4.853  21.318  0.00  0.00    +0.000 NA
ATOM     28  H   UNL     1       2.550   5.054  20.342  0.00  0.00    +0.000 HD
ATOM     29  H   UNL     1       3.142   5.167  21.862  0.00  0.00    +0.000 HD
ENDBRANCH  26  27
ENDBRANCH  25  26
ENDBRANCH  24  25
ENDBRANCH  22  24
ENDBRANCH   1  22
TORSDOF 8
ENDMDL
MODEL 2
REMARK VINA RESULT:      -8.0      0.590      1.001
REMARK  Name = 
REMARK  8 active torsions:
REMARK  status: ('A' for Active; 'I' for Inactive)
REMARK    1  A    between atoms: N_1  and  C_2
REMARK    2  A    between atoms: C_2  and  C_3
REMARK    3  A    between atoms: C_3  and  C_4
REMARK    4  A    between atoms: C_4  and  N_5
REMARK    5  A    between atoms: N_5  and  C_6
REMARK    6  A    between atoms: C_8  and  C_9
REMARK    7  A    between atoms: C_13  and  O_14
REMARK    8  A    between atoms: O_14  and  C_15
REMARK                            x       y       z     vdW  Elec       q    Type
REMARK                         _______ _______ _______ _____ _____    ______ ____
ROOT
ATOM      1  C   UNL     1       3.318   4.556  18.099  0.00  0.00    +0.000 A 
ATOM      2  N   UNL     1       2.635   5.611  18.600  0.00  0.00    +0.000 NA
ATOM      3  C   UNL     1       2.915   6.851  18.142  0.00  0.00    +0.000 A 
ATOM      4  C   UNL     1       3.907   7.073  17.204  0.00  0.00    +0.000 A 
ATOM      5  C   UNL     1       4.640   6.023  16.706  0.00  0.00    +0.000 A 
ATOM      6  N   UNL     1       5.586   6.307  15.796  0.00  0.00    +0.000 NA
ATOM      7  C   UNL     1       6.305   5.288  15.285  0.00  0.00    +0.000 A 
ATOM      8  C   UNL     1       6.120   3.970  15.642  0.00  0.00    +0.000 A 
ATOM      9  C   UNL     1       5.145   3.684  16.591  0.00  0.00    +0.000 A 
ATOM     10  C   UNL     1       4.364   4.721  17.155  0.00  0.00    +0.000 A 
ENDROOT
BRANCH   3  11
ATOM     11  C   UNL     1       2.125   7.965  18.708  0.00  0.00    +0.000 A 
ATOM     12  C   UNL     1       1.573   8.960  17.876  0.00  0.00    +0.000 A 
ATOM     13  C   UNL     1       0.930  10.074  18.411  0.00  0.00    +0.000 A 
ATOM     14  C   UNL     1       0.796  10.194  19.790  0.00  0.00    +0.000 A 
ATOM     15  C   UNL     1       1.268   9.190  20.639  0.00  0.00    +0.000 A 
ATOM     16  C   UNL     1       1.947   8.096  20.100  0.00  0.00    +0.000 A 
BRANCH  15  17
ATOM     17  O   UNL     1       1.078   9.441  21.963  0.00  0.00    +0.000 OA
BRANCH  17  18
ATOM     18  C   UNL     1      -0.218   9.301  22.524  0.00  0.00    +0.000 C 
ATOM     19  F   UNL     1      -0.236   9.118  23.858  0.00  0.00    +0.000 F 
ATOM     20  F   UNL     1      -0.955  10.391  22.220  0.00  0.00    +0.000 F 
ATOM     21  F   UNL     1      -0.810   8.225  21.953  0.00  0.00    +0.000 F 
ENDBRANCH  17  18
ENDBRANCH  15  17
ENDBRANCH   3  11
BRANCH   1  22
ATOM     22  N   UNL     1       3.001   3.261  18.576  0.00  0.00    +0.000 N 
ATOM     23  H   UNL     1       2.000   3.178  18.710  0.00  0.00    +0.000 HD
BRANCH  22  24
ATOM     24  C   UNL     1       3.694   2.884  19.815  0.00  0.00    +0.000 C 
BRANCH  24  25
ATOM     25  C   UNL     1       2.720   2.911  21.002  0.00  0.00    +0.000 C 
BRANCH  25  26
ATOM     26  C   UNL     1       1.286   2.660  20.566  0.00  0.00    +0.000 C 
BRANCH  26  27
ATOM     27  N   UNL     1       0.600   3.935  20.385  0.00  0.00    +0.000 NA
ATOM     28  H   UNL     1       1.282   4.691  20.402  0.00  0.00    +0.000 HD
ATOM     29  H   UNL     1      -0.046   4.103  21.153  0.00  0.00    +0.000 HD
ENDBRANCH  26  27
ENDBRANCH  25  26
ENDBRANCH  24  25
ENDBRANCH  22  24
ENDBRANCH   1  22
TORSDOF 8
ENDMDL
MODEL 3
REMARK VINA RESULT:      -8.0      0.922      1.197
REMARK  Name = 
REMARK  8 active torsions:
REMARK  status: ('A' for Active; 'I' for Inactive)
REMARK    1  A    between atoms: N_1  and  C_2
REMARK    2  A    between atoms: C_2  and  C_3
REMARK    3  A    between atoms: C_3  and  C_4
REMARK    4  A    between atoms: C_4  and  N_5
REMARK    5  A    between atoms: N_5  and  C_6
REMARK    6  A    between atoms: C_8  and  C_9
REMARK    7  A    between atoms: C_13  and  O_14
REMARK    8  A    between atoms: O_14  and  C_15
REMARK                            x       y       z     vdW  Elec       q    Type
REMARK                         _______ _______ _______ _____ _____    ______ ____
ROOT
ATOM      1  C   UNL     1       3.297   5.142  18.817  0.00  0.00    +0.000 A 
ATOM      2  N   UNL     1       2.549   6.192  19.228  0.00  0.00    +0.000 NA
ATOM      3  C   UNL     1       2.632   7.359  18.552  0.00  0.00    +0.000 A 
ATOM      4  C   UNL     1       3.488   7.519  17.477  0.00  0.00    +0.000 A 
ATOM      5  C   UNL     1       4.285   6.479  17.064  0.00  0.00    +0.000 A 
ATOM      6  N   UNL     1       5.092   6.699  16.013  0.00  0.00    +0.000 NA
ATOM      7  C   UNL     1       5.870   5.686  15.583  0.00  0.00    +0.000 A 
ATOM      8  C   UNL     1       5.880   4.435  16.160  0.00  0.00    +0.000 A 
ATOM      9  C   UNL     1       5.049   4.216  17.253  0.00  0.00    +0.000 A 
ATOM     10  C   UNL     1       4.213   5.250  17.740  0.00  0.00    +0.000 A 
ENDROOT
BRANCH   3  11
ATOM     11  C   UNL     1       1.778   8.467  19.029  0.00  0.00    +0.000 A 
ATOM     12  C   UNL     1       1.114   9.315  18.121  0.00  0.00    +0.000 A 
ATOM     13  C   UNL     1       0.404  10.432  18.560  0.00  0.00    +0.000 A 
ATOM     14  C   UNL     1       0.318  10.698  19.922  0.00  0.00    +0.000 A 
ATOM     15  C   UNL     1       0.905   9.837  20.853  0.00  0.00    +0.000 A 
ATOM     16  C   UNL     1       1.648   8.743  20.405  0.00  0.00    +0.000 A 
BRANCH  15  17
ATOM     17  O   UNL     1       0.749  10.223  22.149  0.00  0.00    +0.000 OA
BRANCH  17  18
ATOM     18  C   UNL     1      -0.278   9.639  22.935  0.00  0.00    +0.000 C 
ATOM     19  F   UNL     1       0.127   9.181  24.136  0.00  0.00    +0.000 F 
ATOM     20  F   UNL     1      -1.265  10.542  23.119  0.00  0.00    +0.000 F 
ATOM     21  F   UNL     1      -0.792   8.593  22.248  0.00  0.00    +0.000 F 
ENDBRANCH  17  18
ENDBRANCH  15  17
ENDBRANCH   3  11
BRANCH   1  22
ATOM     22  N   UNL     1       3.187   3.919  19.525  0.00  0.00    +0.000 N 
ATOM     23  H   UNL     1       4.023   3.364  19.387  0.00  0.00    +0.000 HD
BRANCH  22  24
ATOM     24  C   UNL     1       2.005   3.121  19.177  0.00  0.00    +0.000 C 
BRANCH  24  25
ATOM     25  C   UNL     1       0.939   3.236  20.276  0.00  0.00    +0.000 C 
BRANCH  25  26
ATOM     26  C   UNL     1       1.345   2.495  21.540  0.00  0.00    +0.000 C 
BRANCH  26  27
ATOM     27  N   UNL     1       2.389   3.244  22.231  0.00  0.00    +0.000 NA
ATOM     28  H   UNL     1       3.301   2.932  21.905  0.00  0.00    +0.000 HD
ATOM     29  H   UNL     1       2.355   3.060  23.232  0.00  0.00    +0.000 HD
ENDBRANCH  26  27
ENDBRANCH  25  26
ENDBRANCH  24  25
ENDBRANCH  22  24
ENDBRANCH   1  22
TORSDOF 8
ENDMDL
MODEL 4
REMARK VINA RESULT:      -7.9      0.824      1.199
REMARK  Name = 
REMARK  8 active torsions:
REMARK  status: ('A' for Active; 'I' for Inactive)
REMARK    1  A    between atoms: N_1  and  C_2
REMARK    2  A    between atoms: C_2  and  C_3
REMARK    3  A    between atoms: C_3  and  C_4
REMARK    4  A    between atoms: C_4  and  N_5
REMARK    5  A    between atoms: N_5  and  C_6
REMARK    6  A    between atoms: C_8  and  C_9
REMARK    7  A    between atoms: C_13  and  O_14
REMARK    8  A    between atoms: O_14  and  C_15
REMARK                            x       y       z     vdW  Elec       q    Type
REMARK                         _______ _______ _______ _____ _____    ______ ____
ROOT
ATOM      1  C   UNL     1       2.904   4.776  17.622  0.00  0.00    +0.000 A 
ATOM      2  N   UNL     1       2.235   5.819  18.165  0.00  0.00    +0.000 NA
ATOM      3  C   UNL     1       2.778   7.054  18.095  0.00  0.00    +0.000 A 
ATOM      4  C   UNL     1       4.016   7.273  17.517  0.00  0.00    +0.000 A 
ATOM      5  C   UNL     1       4.731   6.225  16.992  0.00  0.00    +0.000 A 
ATOM      6  N   UNL     1       5.926   6.505  16.443  0.00  0.00    +0.000 NA
ATOM      7  C   UNL     1       6.636   5.492  15.908  0.00  0.00    +0.000 A 
ATOM      8  C   UNL     1       6.202   4.184  15.890  0.00  0.00    +0.000 A 
ATOM      9  C   UNL     1       4.970   3.899  16.467  0.00  0.00    +0.000 A 
ATOM     10  C   UNL     1       4.187   4.931  17.040  0.00  0.00    +0.000 A 
ENDROOT
BRANCH   3  11
ATOM     11  C   UNL     1       1.996   8.161  18.684  0.00  0.00    +0.000 A 
ATOM     12  C   UNL     1       1.388   9.136  17.868  0.00  0.00    +0.000 A 
ATOM     13  C   UNL     1       0.750  10.246  18.421  0.00  0.00    +0.000 A 
ATOM     14  C   UNL     1       0.680  10.380  19.803  0.00  0.00    +0.000 A 
ATOM     15  C   UNL     1       1.209   9.395  20.640  0.00  0.00    +0.000 A 
ATOM     16  C   UNL     1       1.882   8.306  20.082  0.00  0.00    +0.000 A 
BRANCH  15  17
ATOM     17  O   UNL     1       1.078   9.658  21.969  0.00  0.00    +0.000 OA
BRANCH  17  18
ATOM     18  C   UNL     1      -0.162   9.408  22.613  0.00  0.00    +0.000 C 
ATOM     19  F   UNL     1      -0.066   9.146  23.931  0.00  0.00    +0.000 F 
ATOM     20  F   UNL     1      -0.980  10.467  22.433  0.00  0.00    +0.000 F 
ATOM     21  F   UNL     1      -0.736   8.334  22.021  0.00  0.00    +0.000 F 
ENDBRANCH  17  18
ENDBRANCH  15  17
ENDBRANCH   3  11
BRANCH   1  22
ATOM     22  N   UNL     1       2.313   3.490  17.688  0.00  0.00    +0.000 N 
ATOM     23  H   UNL     1       1.679   3.361  16.909  0.00  0.00    +0.000 HD
BRANCH  22  24
ATOM     24  C   UNL     1       1.608   3.210  18.945  0.00  0.00    +0.000 C 
BRANCH  24  25
ATOM     25  C   UNL     1       2.320   2.091  19.720  0.00  0.00    +0.000 C 
BRANCH  25  26
ATOM     26  C   UNL     1       3.557   2.599  20.444  0.00  0.00    +0.000 C 
BRANCH  26  27
ATOM     27  N   UNL     1       4.745   2.295  19.653  0.00  0.00    +0.000 NA
ATOM     28  H   UNL     1       4.466   1.841  18.786  0.00  0.00    +0.000 HD
ATOM     29  H   UNL     1       5.343   1.638  20.150  0.00  0.00    +0.000 HD
ENDBRANCH  26  27
ENDBRANCH  25  26
ENDBRANCH  24  25
ENDBRANCH  22  24
ENDBRANCH   1  22
TORSDOF 8
ENDMDL
MODEL 5
REMARK VINA RESULT:      -7.8      1.405      3.711
REMARK  Name = 
REMARK  8 active torsions:
REMARK  status: ('A' for Active; 'I' for Inactive)
REMARK    1  A    between atoms: N_1  and  C_2
REMARK    2  A    between atoms: C_2  and  C_3
REMARK    3  A    between atoms: C_3  and  C_4
REMARK    4  A    between atoms: C_4  and  N_5
REMARK    5  A    between atoms: N_5  and  C_6
REMARK    6  A    between atoms: C_8  and  C_9
REMARK    7  A    between atoms: C_13  and  O_14
REMARK    8  A    between atoms: O_14  and  C_15
REMARK                            x       y       z     vdW  Elec       q    Type
REMARK                         _______ _______ _______ _____ _____    ______ ____
ROOT
ATOM      1  C   UNL     1       3.851   5.614  18.121  0.00  0.00    +0.000 A 
ATOM      2  N   UNL     1       3.205   6.788  18.313  0.00  0.00    +0.000 NA
ATOM      3  C   UNL     1       2.392   6.920  19.384  0.00  0.00    +0.000 A 
ATOM      4  C   UNL     1       2.173   5.877  20.266  0.00  0.00    +0.000 A 
ATOM      5  C   UNL     1       2.788   4.664  20.071  0.00  0.00    +0.000 A 
ATOM      6  N   UNL     1       2.535   3.693  20.965  0.00  0.00    +0.000 NA
ATOM      7  C   UNL     1       3.142   2.501  20.800  0.00  0.00    +0.000 A 
ATOM      8  C   UNL     1       4.011   2.224  19.766  0.00  0.00    +0.000 A 
ATOM      9  C   UNL     1       4.261   3.230  18.840  0.00  0.00    +0.000 A 
ATOM     10  C   UNL     1       3.648   4.499  18.973  0.00  0.00    +0.000 A 
ENDROOT
BRANCH   3  11
ATOM     11  C   UNL     1       1.728   8.229  19.559  0.00  0.00    +0.000 A 
ATOM     12  C   UNL     1       1.499   9.080  18.460  0.00  0.00    +0.000 A 
ATOM     13  C   UNL     1       0.982  10.363  18.633  0.00  0.00    +0.000 A 
ATOM     14  C   UNL     1       0.652  10.803  19.910  0.00  0.00    +0.000 A 
ATOM     15  C   UNL     1       0.799   9.958  21.013  0.00  0.00    +0.000 A 
ATOM     16  C   UNL     1       1.354   8.689  20.838  0.00  0.00    +0.000 A 
BRANCH  15  17
ATOM     17  O   UNL     1       0.445  10.520  22.201  0.00  0.00    +0.000 OA
BRANCH  17  18
ATOM     18  C   UNL     1      -0.393   9.802  23.094  0.00  0.00    +0.000 C 
ATOM     19  F   UNL     1       0.237   9.303  24.175  0.00  0.00    +0.000 F 
ATOM     20  F   UNL     1      -1.399  10.604  23.503  0.00  0.00    +0.000 F 
ATOM     21  F   UNL     1      -0.937   8.763  22.418  0.00  0.00    +0.000 F 
ENDBRANCH  17  18
ENDBRANCH  15  17
ENDBRANCH   3  11
BRANCH   1  22
ATOM     22  N   UNL     1       4.713   5.497  17.003  0.00  0.00    +0.000 N 
ATOM     23  H   UNL     1       5.275   4.658  17.088  0.00  0.00    +0.000 HD
BRANCH  22  24
ATOM     24  C   UNL     1       5.590   6.655  16.789  0.00  0.00    +0.000 C 
BRANCH  24  25
ATOM     25  C   UNL     1       7.062   6.217  16.787  0.00  0.00    +0.000 C 
BRANCH  25  26
ATOM     26  C   UNL     1       7.206   4.705  16.854  0.00  0.00    +0.000 C 
BRANCH  26  27
ATOM     27  N   UNL     1       7.531   4.306  18.219  0.00  0.00    +0.000 NA
ATOM     28  H   UNL     1       7.885   3.351  18.217  0.00  0.00    +0.000 HD
ATOM     29  H   UNL     1       6.694   4.308  18.799  0.00  0.00    +0.000 HD
ENDBRANCH  26  27
ENDBRANCH  25  26
ENDBRANCH  24  25
ENDBRANCH  22  24
ENDBRANCH   1  22
TORSDOF 8
ENDMDL
MODEL 6
REMARK VINA RESULT:      -7.8      1.872      2.527
REMARK  Name = 
REMARK  8 active torsions:
REMARK  status: ('A' for Active; 'I' for Inactive)
REMARK    1  A    between atoms: N_1  and  C_2
REMARK    2  A    between atoms: C_2  and  C_3
REMARK    3  A    between atoms: C_3  and  C_4
REMARK    4  A    between atoms: C_4  and  N_5
REMARK    5  A    between atoms: N_5  and  C_6
REMARK    6  A    between atoms: C_8  and  C_9
REMARK    7  A    between atoms: C_13  and  O_14
REMARK    8  A    between atoms: O_14  and  C_15
REMARK                            x       y       z     vdW  Elec       q    Type
REMARK                         _______ _______ _______ _____ _____    ______ ____
ROOT
ATOM      1  C   UNL     1       3.238   4.556  18.144  0.00  0.00    +0.000 A 
ATOM      2  N   UNL     1       2.576   5.547  18.785  0.00  0.00    +0.000 NA
ATOM      3  C   UNL     1       2.828   6.830  18.445  0.00  0.00    +0.000 A 
ATOM      4  C   UNL     1       3.771   7.157  17.487  0.00  0.00    +0.000 A 
ATOM      5  C   UNL     1       4.483   6.171  16.848  0.00  0.00    +0.000 A 
ATOM      6  N   UNL     1       5.382   6.555  15.927  0.00  0.00    +0.000 NA
ATOM      7  C   UNL     1       6.079   5.601  15.278  0.00  0.00    +0.000 A 
ATOM      8  C   UNL     1       5.917   4.252  15.506  0.00  0.00    +0.000 A 
ATOM      9  C   UNL     1       4.992   3.861  16.467  0.00  0.00    +0.000 A 
ATOM     10  C   UNL     1       4.235   4.827  17.173  0.00  0.00    +0.000 A 
ENDROOT
BRANCH   3  11
ATOM     11  C   UNL     1       2.063   7.872  19.160  0.00  0.00    +0.000 A 
ATOM     12  C   UNL     1       1.785   7.753  20.537  0.00  0.00    +0.000 A 
ATOM     13  C   UNL     1       0.965   8.671  21.191  0.00  0.00    +0.000 A 
ATOM     14  C   UNL     1       0.436   9.744  20.484  0.00  0.00    +0.000 A 
ATOM     15  C   UNL     1       0.750   9.931  19.136  0.00  0.00    +0.000 A 
ATOM     16  C   UNL     1       1.539   8.988  18.476  0.00  0.00    +0.000 A 
BRANCH  15  17
ATOM     17  O   UNL     1       0.157  11.017  18.567  0.00  0.00    +0.000 OA
BRANCH  17  18
ATOM     18  C   UNL     1      -1.244  11.011  18.339  0.00  0.00    +0.000 C 
ATOM     19  F   UNL     1      -1.751   9.811  18.000  0.00  0.00    +0.000 F 
ATOM     20  F   UNL     1      -1.877  11.460  19.444  0.00  0.00    +0.000 F 
ATOM     21  F   UNL     1      -1.510  11.872  17.328  0.00  0.00    +0.000 F 
ENDBRANCH  17  18
ENDBRANCH  15  17
ENDBRANCH   3  11
BRANCH   1  22
ATOM     22  N   UNL     1       2.951   3.215  18.500  0.00  0.00    +0.000 N 
ATOM     23  H   UNL     1       1.956   3.106  18.660  0.00  0.00    +0.000 HD
BRANCH  22  24
ATOM     24  C   UNL     1       3.691   2.725  19.670  0.00  0.00    +0.000 C 
BRANCH  24  25
ATOM     25  C   UNL     1       2.837   2.864  20.939  0.00  0.00    +0.000 C 
BRANCH  25  26
ATOM     26  C   UNL     1       1.380   2.512  20.685  0.00  0.00    +0.000 C 
BRANCH  26  27
ATOM     27  N   UNL     1       0.620   3.733  20.439  0.00  0.00    +0.000 NA
ATOM     28  H   UNL     1      -0.376   3.519  20.450  0.00  0.00    +0.000 HD
ATOM     29  H   UNL     1       0.831   4.103  19.514  0.00  0.00    +0.000 HD
ENDBRANCH  26  27
ENDBRANCH  25  26
ENDBRANCH  24  25
ENDBRANCH  22  24
ENDBRANCH   1  22
TORSDOF 8
ENDMDL
MODEL 7
REMARK VINA RESULT:      -7.7      5.022      7.412
REMARK  Name = 
REMARK  8 active torsions:
REMARK  status: ('A' for Active; 'I' for Inactive)
REMARK    1  A    between atoms: N_1  and  C_2
REMARK    2  A    between atoms: C_2  and  C_3
REMARK    3  A    between atoms: C_3  and  C_4
REMARK    4  A    between atoms: C_4  and  N_5
REMARK    5  A    between atoms: N_5  and  C_6
REMARK    6  A    between atoms: C_8  and  C_9
REMARK    7  A    between atoms: C_13  and  O_14
REMARK    8  A    between atoms: O_14  and  C_15
REMARK                            x       y       z     vdW  Elec       q    Type
REMARK                         _______ _______ _______ _____ _____    ______ ____
ROOT
ATOM      1  C   UNL     1       2.742   6.263  19.965  0.00  0.00    +0.000 A 
ATOM      2  N   UNL     1       3.703   5.686  19.207  0.00  0.00    +0.000 NA
ATOM      3  C   UNL     1       4.118   6.315  18.085  0.00  0.00    +0.000 A 
ATOM      4  C   UNL     1       3.559   7.511  17.672  0.00  0.00    +0.000 A 
ATOM      5  C   UNL     1       2.556   8.098  18.404  0.00  0.00    +0.000 A 
ATOM      6  N   UNL     1       2.058   9.260  17.950  0.00  0.00    +0.000 NA
ATOM      7  C   UNL     1       1.084   9.859  18.663  0.00  0.00    +0.000 A 
ATOM      8  C   UNL     1       0.573   9.346  19.836  0.00  0.00    +0.000 A 
ATOM      9  C   UNL     1       1.086   8.139  20.296  0.00  0.00    +0.000 A 
ATOM     10  C   UNL     1       2.112   7.474  19.582  0.00  0.00    +0.000 A 
ENDROOT
BRANCH   3  11
ATOM     11  C   UNL     1       5.185   5.652  17.306  0.00  0.00    +0.000 A 
ATOM     12  C   UNL     1       6.305   5.083  17.945  0.00  0.00    +0.000 A 
ATOM     13  C   UNL     1       7.369   4.563  17.211  0.00  0.00    +0.000 A 
ATOM     14  C   UNL     1       7.315   4.573  15.822  0.00  0.00    +0.000 A 
ATOM     15  C   UNL     1       6.188   5.064  15.158  0.00  0.00    +0.000 A 
ATOM     16  C   UNL     1       5.142   5.620  15.897  0.00  0.00    +0.000 A 
BRANCH  15  17
ATOM     17  O   UNL     1       6.273   5.019  13.800  0.00  0.00    +0.000 OA
BRANCH  17  18
ATOM     18  C   UNL     1       5.966   3.813  13.118  0.00  0.00    +0.000 C 
ATOM     19  F   UNL     1       4.734   3.773  12.576  0.00  0.00    +0.000 F 
ATOM     20  F   UNL     1       6.881   3.605  12.147  0.00  0.00    +0.000 F 
ATOM     21  F   UNL     1       6.060   2.792  14.004  0.00  0.00    +0.000 F 
ENDBRANCH  17  18
ENDBRANCH  15  17
ENDBRANCH   3  11
BRANCH   1  22
ATOM     22  N   UNL     1       2.330   5.600  21.148  0.00  0.00    +0.000 N 
ATOM     23  H   UNL     1       3.000   5.769  21.889  0.00  0.00    +0.000 HD
BRANCH  22  24
ATOM     24  C   UNL     1       2.124   4.155  20.993  0.00  0.00    +0.000 C 
BRANCH  24  25
ATOM     25  C   UNL     1       0.889   3.881  20.123  0.00  0.00    +0.000 C 
BRANCH  25  26
ATOM     26  C   UNL     1       1.213   2.978  18.944  0.00  0.00    +0.000 C 
BRANCH  26  27
ATOM     27  N   UNL     1       1.527   3.793  17.776  0.00  0.00    +0.000 NA
ATOM     28  H   UNL     1       0.935   4.622  17.774  0.00  0.00    +0.000 HD
ATOM     29  H   UNL     1       1.321   3.282  16.920  0.00  0.00    +0.000 HD
ENDBRANCH  26  27
ENDBRANCH  25  26
ENDBRANCH  24  25
ENDBRANCH  22  24
ENDBRANCH   1  22
TORSDOF 8
ENDMDL
MODEL 8
REMARK VINA RESULT:      -7.7      1.944      2.469
REMARK  Name = 
REMARK  8 active torsions:
REMARK  status: ('A' for Active; 'I' for Inactive)
REMARK    1  A    between atoms: N_1  and  C_2
REMARK    2  A    between atoms: C_2  and  C_3
REMARK    3  A    between atoms: C_3  and  C_4
REMARK    4  A    between atoms: C_4  and  N_5
REMARK    5  A    between atoms: N_5  and  C_6
REMARK    6  A    between atoms: C_8  and  C_9
REMARK    7  A    between atoms: C_13  and  O_14
REMARK    8  A    between atoms: O_14  and  C_15
REMARK                            x       y       z     vdW  Elec       q    Type
REMARK                         _______ _______ _______ _____ _____    ______ ____
ROOT
ATOM      1  C   UNL     1       3.136   4.469  17.563  0.00  0.00    +0.000 A 
ATOM      2  N   UNL     1       2.478   5.445  18.230  0.00  0.00    +0.000 NA
ATOM      3  C   UNL     1       2.953   6.709  18.179  0.00  0.00    +0.000 A 
ATOM      4  C   UNL     1       4.114   7.023  17.494  0.00  0.00    +0.000 A 
ATOM      5  C   UNL     1       4.820   6.043  16.840  0.00  0.00    +0.000 A 
ATOM      6  N   UNL     1       5.937   6.415  16.192  0.00  0.00    +0.000 NA
ATOM      7  C   UNL     1       6.635   5.471  15.531  0.00  0.00    +0.000 A 
ATOM      8  C   UNL     1       6.264   4.145  15.479  0.00  0.00    +0.000 A 
ATOM      9  C   UNL     1       5.112   3.765  16.159  0.00  0.00    +0.000 A 
ATOM     10  C   UNL     1       4.345   4.722  16.866  0.00  0.00    +0.000 A 
ENDROOT
BRANCH   3  11
ATOM     11  C   UNL     1       2.185   7.740  18.907  0.00  0.00    +0.000 A 
ATOM     12  C   UNL     1       1.959   7.632  20.294  0.00  0.00    +0.000 A 
ATOM     13  C   UNL     1       1.137   8.536  20.965  0.00  0.00    +0.000 A 
ATOM     14  C   UNL     1       0.554   9.586  20.263  0.00  0.00    +0.000 A 
ATOM     15  C   UNL     1       0.816   9.763  18.902  0.00  0.00    +0.000 A 
ATOM     16  C   UNL     1       1.607   8.831  18.227  0.00  0.00    +0.000 A 
BRANCH  15  17
ATOM     17  O   UNL     1       0.175  10.824  18.341  0.00  0.00    +0.000 OA
BRANCH  17  18
ATOM     18  C   UNL     1      -1.176  10.687  17.926  0.00  0.00    +0.000 C 
ATOM     19  F   UNL     1      -1.651  11.725  17.210  0.00  0.00    +0.000 F 
ATOM     20  F   UNL     1      -1.305   9.556  17.200  0.00  0.00    +0.000 F 
ATOM     21  F   UNL     1      -1.947  10.563  19.032  0.00  0.00    +0.000 F 
ENDBRANCH  17  18
ENDBRANCH  15  17
ENDBRANCH   3  11
BRANCH   1  22
ATOM     22  N   UNL     1       2.617   3.152  17.612  0.00  0.00    +0.000 N 
ATOM     23  H   UNL     1       1.609   3.175  17.508  0.00  0.00    +0.000 HD
BRANCH  22  24
ATOM     24  C   UNL     1       2.966   2.406  18.828  0.00  0.00    +0.000 C 
BRANCH  24  25
ATOM     25  C   UNL     1       1.709   2.123  19.662  0.00  0.00    +0.000 C 
BRANCH  25  26
ATOM     26  C   UNL     1       1.519   3.146  20.770  0.00  0.00    +0.000 C 
BRANCH  26  27
ATOM     27  N   UNL     1       1.626   2.486  22.067  0.00  0.00    +0.000 NA
ATOM     28  H   UNL     1       1.359   1.508  21.972  0.00  0.00    +0.000 HD
ATOM     29  H   UNL     1       0.980   2.905  22.733  0.00  0.00    +0.000 HD
ENDBRANCH  26  27
ENDBRANCH  25  26
ENDBRANCH  24  25
ENDBRANCH  22  24
ENDBRANCH   1  22
TORSDOF 8
ENDMDL
MODEL 9
REMARK VINA RESULT:      -7.6      2.056      2.643
REMARK  Name = 
REMARK  8 active torsions:
REMARK  status: ('A' for Active; 'I' for Inactive)
REMARK    1  A    between atoms: N_1  and  C_2
REMARK    2  A    between atoms: C_2  and  C_3
REMARK    3  A    between atoms: C_3  and  C_4
REMARK    4  A    between atoms: C_4  and  N_5
REMARK    5  A    between atoms: N_5  and  C_6
REMARK    6  A    between atoms: C_8  and  C_9
REMARK    7  A    between atoms: C_13  and  O_14
REMARK    8  A    between atoms: O_14  and  C_15
REMARK                            x       y       z     vdW  Elec       q    Type
REMARK                         _______ _______ _______ _____ _____    ______ ____
ROOT
ATOM      1  C   UNL     1       3.129   4.548  17.299  0.00  0.00    +0.000 A 
ATOM      2  N   UNL     1       2.461   5.488  18.006  0.00  0.00    +0.000 NA
ATOM      3  C   UNL     1       3.011   6.714  18.149  0.00  0.00    +0.000 A 
ATOM      4  C   UNL     1       4.255   7.020  17.625  0.00  0.00    +0.000 A 
ATOM      5  C   UNL     1       4.969   6.070  16.936  0.00  0.00    +0.000 A 
ATOM      6  N   UNL     1       6.169   6.432  16.451  0.00  0.00    +0.000 NA
ATOM      7  C   UNL     1       6.878   5.519  15.758  0.00  0.00    +0.000 A 
ATOM      8  C   UNL     1       6.438   4.236  15.515  0.00  0.00    +0.000 A 
ATOM      9  C   UNL     1       5.200   3.865  16.028  0.00  0.00    +0.000 A 
ATOM     10  C   UNL     1       4.418   4.791  16.760  0.00  0.00    +0.000 A 
ENDROOT
BRANCH   3  11
ATOM     11  C   UNL     1       2.230   7.711  18.912  0.00  0.00    +0.000 A 
ATOM     12  C   UNL     1       1.963   7.529  20.284  0.00  0.00    +0.000 A 
ATOM     13  C   UNL     1       1.129   8.402  20.980  0.00  0.00    +0.000 A 
ATOM     14  C   UNL     1       0.576   9.494  20.321  0.00  0.00    +0.000 A 
ATOM     15  C   UNL     1       0.878   9.744  18.980  0.00  0.00    +0.000 A 
ATOM     16  C   UNL     1       1.681   8.844  18.278  0.00  0.00    +0.000 A 
BRANCH  15  17
ATOM     17  O   UNL     1       0.262  10.841  18.461  0.00  0.00    +0.000 OA
BRANCH  17  18
ATOM     18  C   UNL     1      -1.097  10.757  18.062  0.00  0.00    +0.000 C 
ATOM     19  F   UNL     1      -1.535  11.805  17.337  0.00  0.00    +0.000 F 
ATOM     20  F   UNL     1      -1.284   9.623  17.352  0.00  0.00    +0.000 F 
ATOM     21  F   UNL     1      -1.861  10.680  19.177  0.00  0.00    +0.000 F 
ENDBRANCH  17  18
ENDBRANCH  15  17
ENDBRANCH   3  11
BRANCH   1  22
ATOM     22  N   UNL     1       2.531   3.273  17.143  0.00  0.00    +0.000 N 
ATOM     23  H   UNL     1       1.670   3.358  16.616  0.00  0.00    +0.000 HD
BRANCH  22  24
ATOM     24  C   UNL     1       2.267   2.568  18.403  0.00  0.00    +0.000 C 
BRANCH  24  25
ATOM     25  C   UNL     1       3.488   1.731  18.814  0.00  0.00    +0.000 C 
BRANCH  25  26
ATOM     26  C   UNL     1       4.300   2.409  19.906  0.00  0.00    +0.000 C 
BRANCH  26  27
ATOM     27  N   UNL     1       5.257   1.459  20.463  0.00  0.00    +0.000 NA
ATOM     28  H   UNL     1       5.002   0.515  20.176  0.00  0.00    +0.000 HD
ATOM     29  H   UNL     1       5.224   1.477  21.480  0.00  0.00    +0.000 HD
ENDBRANCH  26  27
ENDBRANCH  25  26
ENDBRANCH  24  25
ENDBRANCH  22  24
ENDBRANCH   1  22
TORSDOF 8
ENDMDL
