MODEL 1
REMARK VINA RESULT:      -6.3      0.000      0.000
REMARK  Name = 
REMARK  13 active torsions:
REMARK  status: ('A' for Active; 'I' for Inactive)
REMARK    1  A    between atoms: C_1  and  O_2
REMARK    2  A    between atoms: O_2  and  C_3
REMARK    3  A    between atoms: C_3  and  C_4
REMARK    4  A    between atoms: C_3  and  O_20
REMARK    5  A    between atoms: C_4  and  C_5
REMARK    6  A    between atoms: C_7  and  C_8
REMARK    7  A    between atoms: C_8  and  O_9
REMARK    8  A    between atoms: C_8  and  C_10
REMARK    9  A    between atoms: C_10  and  C_11
REMARK   10  A    between atoms: C_10  and  O_12
REMARK   11  A    between atoms: O_12  and  C_13
REMARK   12  A    between atoms: C_13  and  C_14
REMARK   13  A    between atoms: O_20  and  C_21
REMARK                            x       y       z     vdW  Elec       q    Type
REMARK                         _______ _______ _______ _____ _____    ______ ____
ROOT
ATOM      1  C   UNL     1       1.355   3.151  19.108  0.00  0.00    +0.000 C 
ENDROOT
BRANCH   1   4
ATOM      2  C   UNL     1       3.752   2.800  17.935  0.00  0.00    +0.000 C 
ATOM      3  O   UNL     1       2.737   1.873  17.539  0.00  0.00    +0.000 OA
ATOM      4  C   UNL     1       2.635   2.397  18.879  0.00  0.00    +0.000 C 
BRANCH   2   5
ATOM      5  C   UNL     1       3.768   4.079  17.152  0.00  0.00    +0.000 C 
BRANCH   5   6
ATOM      6  C   UNL     1       5.210   4.567  16.914  0.00  0.00    +0.000 C 
BRANCH   6   8
ATOM      7  C   UNL     1       6.059   6.781  17.188  0.00  0.00    +0.000 C 
ATOM      8  O   UNL     1       5.266   5.899  16.409  0.00  0.00    +0.000 OA
ENDBRANCH   6   8
BRANCH   6   9
ATOM      9  O   UNL     1       5.799   3.663  15.975  0.00  0.00    +0.000 OA
ATOM     10  C   UNL     1       5.796   4.159  14.648  0.00  0.00    +0.000 C 
ENDBRANCH   6   9
ENDBRANCH   5   6
ENDBRANCH   2   5
ENDBRANCH   1   4
BRANCH   1  11
ATOM     11  O   UNL     1       0.295   2.256  18.734  0.00  0.00    +0.000 OA
ATOM     12  H   UNL     1      -0.093   1.895  19.543  0.00  0.00    +0.000 HD
ENDBRANCH   1  11
BRANCH   1  13
ATOM     13  C   UNL     1       1.157   3.624  20.580  0.00  0.00    +0.000 C 
ATOM     14  C   UNL     1       2.279   3.152  21.501  0.00  0.00    +0.000 C 
BRANCH  13  15
ATOM     15  O   UNL     1       1.146   5.065  20.709  0.00  0.00    +0.000 OA
BRANCH  15  16
ATOM     16  C   UNL     1       2.351   5.679  20.261  0.00  0.00    +0.000 C 
BRANCH  16  17
ATOM     17  C   UNL     1       2.157   7.030  19.624  0.00  0.00    +0.000 A 
ATOM     18  C   UNL     1       2.540   7.321  18.312  0.00  0.00    +0.000 A 
ATOM     19  C   UNL     1       2.248   8.568  17.758  0.00  0.00    +0.000 A 
ATOM     20  C   UNL     1       1.567   9.529  18.507  0.00  0.00    +0.000 A 
ATOM     21  C   UNL     1       1.179   9.249  19.814  0.00  0.00    +0.000 A 
ATOM     22  C   UNL     1       1.476   8.009  20.371  0.00  0.00    +0.000 A 
ENDBRANCH  16  17
ENDBRANCH  15  16
ENDBRANCH  13  15
ENDBRANCH   1  13
TORSDOF 10
ENDMDL
MODEL 2
REMARK VINA RESULT:      -6.3      0.805      1.758
REMARK  Name = 
REMARK  13 active torsions:
REMARK  status: ('A' for Active; 'I' for Inactive)
REMARK    1  A    between atoms: C_1  and  O_2
REMARK    2  A    between atoms: O_2  and  C_3
REMARK    3  A    between atoms: C_3  and  C_4
REMARK    4  A    between atoms: C_3  and  O_20
REMARK    5  A    between atoms: C_4  and  C_5
REMARK    6  A    between atoms: C_7  and  C_8
REMARK    7  A    between atoms: C_8  and  O_9
REMARK    8  A    between atoms: C_8  and  C_10
REMARK    9  A    between atoms: C_10  and  C_11
REMARK   10  A    between atoms: C_10  and  O_12
REMARK   11  A    between atoms: O_12  and  C_13
REMARK   12  A    between atoms: C_13  and  C_14
REMARK   13  A    between atoms: O_20  and  C_21
REMARK                            x       y       z     vdW  Elec       q    Type
REMARK                         _______ _______ _______ _____ _____    ______ ____
ROOT
ATOM      1  C   UNL     1       1.715   2.850  19.116  0.00  0.00    +0.000 C 
ENDROOT
BRANCH   1   4
ATOM      2  C   UNL     1       4.183   2.849  18.042  0.00  0.00    +0.000 C 
ATOM      3  O   UNL     1       3.417   1.663  17.811  0.00  0.00    +0.000 OA
ATOM      4  C   UNL     1       3.139   2.375  19.035  0.00  0.00    +0.000 C 
BRANCH   2   5
ATOM      5  C   UNL     1       3.955   3.944  17.043  0.00  0.00    +0.000 C 
BRANCH   5   6
ATOM      6  C   UNL     1       5.289   4.549  16.567  0.00  0.00    +0.000 C 
BRANCH   6   8
ATOM      7  C   UNL     1       6.047   4.001  14.371  0.00  0.00    +0.000 C 
ATOM      8  O   UNL     1       6.040   3.656  15.748  0.00  0.00    +0.000 OA
ENDBRANCH   6   8
BRANCH   6   9
ATOM      9  O   UNL     1       6.034   4.875  17.744  0.00  0.00    +0.000 OA
ATOM     10  C   UNL     1       7.424   4.638  17.606  0.00  0.00    +0.000 C 
ENDBRANCH   6   9
ENDBRANCH   5   6
ENDBRANCH   2   5
ENDBRANCH   1   4
BRANCH   1  11
ATOM     11  O   UNL     1       0.906   1.761  18.640  0.00  0.00    +0.000 OA
ATOM     12  H   UNL     1       0.351   2.093  17.920  0.00  0.00    +0.000 HD
ENDBRANCH   1  11
BRANCH   1  13
ATOM     13  C   UNL     1       1.268   3.257  20.553  0.00  0.00    +0.000 C 
ATOM     14  C   UNL     1       2.320   2.925  21.608  0.00  0.00    +0.000 C 
BRANCH  13  15
ATOM     15  O   UNL     1       1.037   4.678  20.687  0.00  0.00    +0.000 OA
BRANCH  15  16
ATOM     16  C   UNL     1       2.225   5.455  20.564  0.00  0.00    +0.000 C 
BRANCH  16  17
ATOM     17  C   UNL     1       2.046   6.745  19.806  0.00  0.00    +0.000 A 
ATOM     18  C   UNL     1       1.495   7.896  20.373  0.00  0.00    +0.000 A 
ATOM     19  C   UNL     1       1.443   9.082  19.639  0.00  0.00    +0.000 A 
ATOM     20  C   UNL     1       1.946   9.127  18.337  0.00  0.00    +0.000 A 
ATOM     21  C   UNL     1       2.500   7.986  17.765  0.00  0.00    +0.000 A 
ATOM     22  C   UNL     1       2.545   6.801  18.492  0.00  0.00    +0.000 A 
ENDBRANCH  16  17
ENDBRANCH  15  16
ENDBRANCH  13  15
ENDBRANCH   1  13
TORSDOF 10
ENDMDL
MODEL 3
REMARK VINA RESULT:      -6.2      2.846      5.245
REMARK  Name = 
REMARK  13 active torsions:
REMARK  status: ('A' for Active; 'I' for Inactive)
REMARK    1  A    between atoms: C_1  and  O_2
REMARK    2  A    between atoms: O_2  and  C_3
REMARK    3  A    between atoms: C_3  and  C_4
REMARK    4  A    between atoms: C_3  and  O_20
REMARK    5  A    between atoms: C_4  and  C_5
REMARK    6  A    between atoms: C_7  and  C_8
REMARK    7  A    between atoms: C_8  and  O_9
REMARK    8  A    between atoms: C_8  and  C_10
REMARK    9  A    between atoms: C_10  and  C_11
REMARK   10  A    between atoms: C_10  and  O_12
REMARK   11  A    between atoms: O_12  and  C_13
REMARK   12  A    between atoms: C_13  and  C_14
REMARK   13  A    between atoms: O_20  and  C_21
REMARK                            x       y       z     vdW  Elec       q    Type
REMARK                         _______ _______ _______ _____ _____    ______ ____
ROOT
ATOM      1  C   UNL     1       6.510   4.379  16.860  0.00  0.00    +0.000 C 
ENDROOT
BRANCH   1   4
ATOM      2  C   UNL     1       6.507   4.953  14.229  0.00  0.00    +0.000 C 
ATOM      3  O   UNL     1       7.730   5.239  14.916  0.00  0.00    +0.000 OA
ATOM      4  C   UNL     1       6.522   5.333  15.698  0.00  0.00    +0.000 C 
BRANCH   2   5
ATOM      5  C   UNL     1       6.389   3.544  13.729  0.00  0.00    +0.000 C 
BRANCH   5   6
ATOM      6  C   UNL     1       6.077   3.514  12.221  0.00  0.00    +0.000 C 
BRANCH   6   8
ATOM      7  C   UNL     1       4.011   3.359  11.035  0.00  0.00    +0.000 C 
ATOM      8  O   UNL     1       4.932   2.724  11.908  0.00  0.00    +0.000 OA
ENDBRANCH   6   8
BRANCH   6   9
ATOM      9  O   UNL     1       7.233   2.976  11.574  0.00  0.00    +0.000 OA
ATOM     10  C   UNL     1       7.046   1.648  11.115  0.00  0.00    +0.000 C 
ENDBRANCH   6   9
ENDBRANCH   5   6
ENDBRANCH   2   5
ENDBRANCH   1   4
BRANCH   1  11
ATOM     11  O   UNL     1       7.887   4.176  17.220  0.00  0.00    +0.000 OA
ATOM     12  H   UNL     1       8.304   5.044  17.308  0.00  0.00    +0.000 HD
ENDBRANCH   1  11
BRANCH   1  13
ATOM     13  C   UNL     1       5.708   4.896  18.092  0.00  0.00    +0.000 C 
ATOM     14  C   UNL     1       6.608   5.223  19.280  0.00  0.00    +0.000 C 
BRANCH  13  15
ATOM     15  O   UNL     1       4.989   6.121  17.817  0.00  0.00    +0.000 OA
BRANCH  15  16
ATOM     16  C   UNL     1       3.631   5.906  17.446  0.00  0.00    +0.000 C 
BRANCH  16  17
ATOM     17  C   UNL     1       2.796   5.243  18.510  0.00  0.00    +0.000 A 
ATOM     18  C   UNL     1       2.659   5.750  19.804  0.00  0.00    +0.000 A 
ATOM     19  C   UNL     1       1.797   5.132  20.711  0.00  0.00    +0.000 A 
ATOM     20  C   UNL     1       1.060   4.009  20.329  0.00  0.00    +0.000 A 
ATOM     21  C   UNL     1       1.187   3.498  19.041  0.00  0.00    +0.000 A 
ATOM     22  C   UNL     1       2.053   4.107  18.138  0.00  0.00    +0.000 A 
ENDBRANCH  16  17
ENDBRANCH  15  16
ENDBRANCH  13  15
ENDBRANCH   1  13
TORSDOF 10
ENDMDL
MODEL 4
REMARK VINA RESULT:      -6.2      3.071      5.504
REMARK  Name = 
REMARK  13 active torsions:
REMARK  status: ('A' for Active; 'I' for Inactive)
REMARK    1  A    between atoms: C_1  and  O_2
REMARK    2  A    between atoms: O_2  and  C_3
REMARK    3  A    between atoms: C_3  and  C_4
REMARK    4  A    between atoms: C_3  and  O_20
REMARK    5  A    between atoms: C_4  and  C_5
REMARK    6  A    between atoms: C_7  and  C_8
REMARK    7  A    between atoms: C_8  and  O_9
REMARK    8  A    between atoms: C_8  and  C_10
REMARK    9  A    between atoms: C_10  and  C_11
REMARK   10  A    between atoms: C_10  and  O_12
REMARK   11  A    between atoms: O_12  and  C_13
REMARK   12  A    between atoms: C_13  and  C_14
REMARK   13  A    between atoms: O_20  and  C_21
REMARK                            x       y       z     vdW  Elec       q    Type
REMARK                         _______ _______ _______ _____ _____    ______ ____
ROOT
ATOM      1  C   UNL     1       6.691   4.504  16.717  0.00  0.00    +0.000 C 
ENDROOT
BRANCH   1   4
ATOM      2  C   UNL     1       6.528   4.950  14.067  0.00  0.00    +0.000 C 
ATOM      3  O   UNL     1       7.821   5.162  14.643  0.00  0.00    +0.000 OA
ATOM      4  C   UNL     1       6.690   5.397  15.508  0.00  0.00    +0.000 C 
BRANCH   2   5
ATOM      5  C   UNL     1       6.255   3.534  13.654  0.00  0.00    +0.000 C 
BRANCH   5   6
ATOM      6  C   UNL     1       6.122   3.418  12.124  0.00  0.00    +0.000 C 
BRANCH   6   8
ATOM      7  C   UNL     1       3.907   3.387  11.233  0.00  0.00    +0.000 C 
ATOM      8  O   UNL     1       5.002   2.630  11.725  0.00  0.00    +0.000 OA
ENDBRANCH   6   8
BRANCH   6   9
ATOM      9  O   UNL     1       7.332   2.821  11.651  0.00  0.00    +0.000 OA
ATOM     10  C   UNL     1       7.131   1.549  11.059  0.00  0.00    +0.000 C 
ENDBRANCH   6   9
ENDBRANCH   5   6
ENDBRANCH   2   5
ENDBRANCH   1   4
BRANCH   1  11
ATOM     11  O   UNL     1       8.057   4.099  16.909  0.00  0.00    +0.000 OA
ATOM     12  H   UNL     1       8.060   3.303  17.458  0.00  0.00    +0.000 HD
ENDBRANCH   1  11
BRANCH   1  13
ATOM     13  C   UNL     1       6.153   5.192  18.008  0.00  0.00    +0.000 C 
ATOM     14  C   UNL     1       6.889   6.489  18.329  0.00  0.00    +0.000 C 
BRANCH  13  15
ATOM     15  O   UNL     1       4.760   5.566  17.904  0.00  0.00    +0.000 OA
BRANCH  15  16
ATOM     16  C   UNL     1       3.908   4.476  17.569  0.00  0.00    +0.000 C 
BRANCH  16  17
ATOM     17  C   UNL     1       2.867   4.159  18.612  0.00  0.00    +0.000 A 
ATOM     18  C   UNL     1       1.752   3.355  18.362  0.00  0.00    +0.000 A 
ATOM     19  C   UNL     1       0.877   3.031  19.399  0.00  0.00    +0.000 A 
ATOM     20  C   UNL     1       1.113   3.501  20.693  0.00  0.00    +0.000 A 
ATOM     21  C   UNL     1       2.223   4.300  20.952  0.00  0.00    +0.000 A 
ATOM     22  C   UNL     1       3.092   4.631  19.918  0.00  0.00    +0.000 A 
ENDBRANCH  16  17
ENDBRANCH  15  16
ENDBRANCH  13  15
ENDBRANCH   1  13
TORSDOF 10
ENDMDL
MODEL 5
REMARK VINA RESULT:      -6.1      1.170      1.819
REMARK  Name = 
REMARK  13 active torsions:
REMARK  status: ('A' for Active; 'I' for Inactive)
REMARK    1  A    between atoms: C_1  and  O_2
REMARK    2  A    between atoms: O_2  and  C_3
REMARK    3  A    between atoms: C_3  and  C_4
REMARK    4  A    between atoms: C_3  and  O_20
REMARK    5  A    between atoms: C_4  and  C_5
REMARK    6  A    between atoms: C_7  and  C_8
REMARK    7  A    between atoms: C_8  and  O_9
REMARK    8  A    between atoms: C_8  and  C_10
REMARK    9  A    between atoms: C_10  and  C_11
REMARK   10  A    between atoms: C_10  and  O_12
REMARK   11  A    between atoms: O_12  and  C_13
REMARK   12  A    between atoms: C_13  and  C_14
REMARK   13  A    between atoms: O_20  and  C_21
REMARK                            x       y       z     vdW  Elec       q    Type
REMARK                         _______ _______ _______ _____ _____    ______ ____
ROOT
ATOM      1  C   UNL     1       1.946   3.931  18.806  0.00  0.00    +0.000 C 
ENDROOT
BRANCH   1   4
ATOM      2  C   UNL     1       4.398   2.825  18.919  0.00  0.00    +0.000 C 
ATOM      3  O   UNL     1       3.651   2.534  17.733  0.00  0.00    +0.000 OA
ATOM      4  C   UNL     1       2.882   2.761  18.933  0.00  0.00    +0.000 C 
BRANCH   2   5
ATOM      5  C   UNL     1       5.183   4.101  18.864  0.00  0.00    +0.000 C 
BRANCH   5   6
ATOM      6  C   UNL     1       5.361   4.581  17.411  0.00  0.00    +0.000 C 
BRANCH   6   8
ATOM      7  C   UNL     1       7.709   4.650  17.836  0.00  0.00    +0.000 C 
ATOM      8  O   UNL     1       6.676   4.351  16.910  0.00  0.00    +0.000 OA
ENDBRANCH   6   8
BRANCH   6   9
ATOM      9  O   UNL     1       5.074   5.983  17.404  0.00  0.00    +0.000 OA
ATOM     10  C   UNL     1       5.031   6.536  16.100  0.00  0.00    +0.000 C 
ENDBRANCH   6   9
ENDBRANCH   5   6
ENDBRANCH   2   5
ENDBRANCH   1   4
BRANCH   1  11
ATOM     11  O   UNL     1       0.989   3.565  17.798  0.00  0.00    +0.000 OA
ATOM     12  H   UNL     1       1.159   2.648  17.542  0.00  0.00    +0.000 HD
ENDBRANCH   1  11
BRANCH   1  13
ATOM     13  C   UNL     1       1.210   4.294  20.132  0.00  0.00    +0.000 C 
ATOM     14  C   UNL     1       1.328   3.197  21.186  0.00  0.00    +0.000 C 
BRANCH  13  15
ATOM     15  O   UNL     1       1.746   5.480  20.762  0.00  0.00    +0.000 OA
BRANCH  15  16
ATOM     16  C   UNL     1       2.577   6.250  19.899  0.00  0.00    +0.000 C 
BRANCH  16  17
ATOM     17  C   UNL     1       2.009   7.596  19.531  0.00  0.00    +0.000 A 
ATOM     18  C   UNL     1       1.321   8.411  20.434  0.00  0.00    +0.000 A 
ATOM     19  C   UNL     1       0.901   9.685  20.048  0.00  0.00    +0.000 A 
ATOM     20  C   UNL     1       1.172  10.155  18.761  0.00  0.00    +0.000 A 
ATOM     21  C   UNL     1       1.858   9.353  17.856  0.00  0.00    +0.000 A 
ATOM     22  C   UNL     1       2.271   8.079  18.236  0.00  0.00    +0.000 A 
ENDBRANCH  16  17
ENDBRANCH  15  16
ENDBRANCH  13  15
ENDBRANCH   1  13
TORSDOF 10
ENDMDL
MODEL 6
REMARK VINA RESULT:      -6.0      1.595      2.576
REMARK  Name = 
REMARK  13 active torsions:
REMARK  status: ('A' for Active; 'I' for Inactive)
REMARK    1  A    between atoms: C_1  and  O_2
REMARK    2  A    between atoms: O_2  and  C_3
REMARK    3  A    between atoms: C_3  and  C_4
REMARK    4  A    between atoms: C_3  and  O_20
REMARK    5  A    between atoms: C_4  and  C_5
REMARK    6  A    between atoms: C_7  and  C_8
REMARK    7  A    between atoms: C_8  and  O_9
REMARK    8  A    between atoms: C_8  and  C_10
REMARK    9  A    between atoms: C_10  and  C_11
REMARK   10  A    between atoms: C_10  and  O_12
REMARK   11  A    between atoms: O_12  and  C_13
REMARK   12  A    between atoms: C_13  and  C_14
REMARK   13  A    between atoms: O_20  and  C_21
REMARK                            x       y       z     vdW  Elec       q    Type
REMARK                         _______ _______ _______ _____ _____    ______ ____
ROOT
ATOM      1  C   UNL     1       4.175   3.010  19.243  0.00  0.00    +0.000 C 
ENDROOT
BRANCH   1   4
ATOM      2  C   UNL     1       5.496   5.277  18.642  0.00  0.00    +0.000 C 
ATOM      3  O   UNL     1       6.318   4.184  19.063  0.00  0.00    +0.000 OA
ATOM      4  C   UNL     1       4.983   4.224  19.606  0.00  0.00    +0.000 C 
BRANCH   2   5
ATOM      5  C   UNL     1       5.184   5.295  17.176  0.00  0.00    +0.000 C 
BRANCH   5   6
ATOM      6  C   UNL     1       5.953   6.419  16.457  0.00  0.00    +0.000 C 
BRANCH   6   8
ATOM      7  C   UNL     1       7.059   4.592  15.391  0.00  0.00    +0.000 C 
ATOM      8  O   UNL     1       7.127   5.950  15.796  0.00  0.00    +0.000 OA
ENDBRANCH   6   8
BRANCH   6   9
ATOM      9  O   UNL     1       6.307   7.378  17.458  0.00  0.00    +0.000 OA
ATOM     10  C   UNL     1       7.663   7.781  17.388  0.00  0.00    +0.000 C 
ENDBRANCH   6   9
ENDBRANCH   5   6
ENDBRANCH   2   5
ENDBRANCH   1   4
BRANCH   1  11
ATOM     11  O   UNL     1       4.887   1.884  19.782  0.00  0.00    +0.000 OA
ATOM     12  H   UNL     1       4.431   1.596  20.584  0.00  0.00    +0.000 HD
ENDBRANCH   1  11
BRANCH   1  13
ATOM     13  C   UNL     1       2.718   3.033  19.798  0.00  0.00    +0.000 C 
ATOM     14  C   UNL     1       2.673   2.991  21.323  0.00  0.00    +0.000 C 
BRANCH  13  15
ATOM     15  O   UNL     1       2.000   4.235  19.434  0.00  0.00    +0.000 OA
BRANCH  15  16
ATOM     16  C   UNL     1       2.050   5.246  20.436  0.00  0.00    +0.000 C 
BRANCH  16  17
ATOM     17  C   UNL     1       1.957   6.652  19.903  0.00  0.00    +0.000 A 
ATOM     18  C   UNL     1       2.345   7.008  18.609  0.00  0.00    +0.000 A 
ATOM     19  C   UNL     1       2.147   8.311  18.152  0.00  0.00    +0.000 A 
ATOM     20  C   UNL     1       1.553   9.265  18.982  0.00  0.00    +0.000 A 
ATOM     21  C   UNL     1       1.160   8.920  20.271  0.00  0.00    +0.000 A 
ATOM     22  C   UNL     1       1.365   7.623  20.731  0.00  0.00    +0.000 A 
ENDBRANCH  16  17
ENDBRANCH  15  16
ENDBRANCH  13  15
ENDBRANCH   1  13
TORSDOF 10
ENDMDL
MODEL 7
REMARK VINA RESULT:      -6.0      2.508      5.331
REMARK  Name = 
REMARK  13 active torsions:
REMARK  status: ('A' for Active; 'I' for Inactive)
REMARK    1  A    between atoms: C_1  and  O_2
REMARK    2  A    between atoms: O_2  and  C_3
REMARK    3  A    between atoms: C_3  and  C_4
REMARK    4  A    between atoms: C_3  and  O_20
REMARK    5  A    between atoms: C_4  and  C_5
REMARK    6  A    between atoms: C_7  and  C_8
REMARK    7  A    between atoms: C_8  and  O_9
REMARK    8  A    between atoms: C_8  and  C_10
REMARK    9  A    between atoms: C_10  and  C_11
REMARK   10  A    between atoms: C_10  and  O_12
REMARK   11  A    between atoms: O_12  and  C_13
REMARK   12  A    between atoms: C_13  and  C_14
REMARK   13  A    between atoms: O_20  and  C_21
REMARK                            x       y       z     vdW  Elec       q    Type
REMARK                         _______ _______ _______ _____ _____    ______ ____
ROOT
ATOM      1  C   UNL     1       5.585   4.648  16.457  0.00  0.00    +0.000 C 
ENDROOT
BRANCH   1   4
ATOM      2  C   UNL     1       6.597   4.700  13.963  0.00  0.00    +0.000 C 
ATOM      3  O   UNL     1       7.566   4.707  15.015  0.00  0.00    +0.000 OA
ATOM      4  C   UNL     1       6.294   5.319  15.314  0.00  0.00    +0.000 C 
BRANCH   2   5
ATOM      5  C   UNL     1       6.140   3.333  13.546  0.00  0.00    +0.000 C 
BRANCH   5   6
ATOM      6  C   UNL     1       5.664   3.330  12.081  0.00  0.00    +0.000 C 
BRANCH   6   8
ATOM      7  C   UNL     1       3.678   3.111  10.775  0.00  0.00    +0.000 C 
ATOM      8  O   UNL     1       4.277   3.635  11.950  0.00  0.00    +0.000 OA
ENDBRANCH   6   8
BRANCH   6   9
ATOM      9  O   UNL     1       5.927   2.021  11.567  0.00  0.00    +0.000 OA
ATOM     10  C   UNL     1       7.254   1.864  11.096  0.00  0.00    +0.000 C 
ENDBRANCH   6   9
ENDBRANCH   5   6
ENDBRANCH   2   5
ENDBRANCH   1   4
BRANCH   1  11
ATOM     11  O   UNL     1       6.613   4.059  17.271  0.00  0.00    +0.000 OA
ATOM     12  H   UNL     1       7.033   4.766  17.781  0.00  0.00    +0.000 HD
ENDBRANCH   1  11
BRANCH   1  13
ATOM     13  C   UNL     1       4.716   5.617  17.315  0.00  0.00    +0.000 C 
ATOM     14  C   UNL     1       4.774   7.056  16.810  0.00  0.00    +0.000 C 
BRANCH  13  15
ATOM     15  O   UNL     1       3.312   5.271  17.301  0.00  0.00    +0.000 OA
BRANCH  15  16
ATOM     16  C   UNL     1       2.596   5.776  18.424  0.00  0.00    +0.000 C 
BRANCH  16  17
ATOM     17  C   UNL     1       2.070   4.713  19.353  0.00  0.00    +0.000 A 
ATOM     18  C   UNL     1       1.294   3.635  18.921  0.00  0.00    +0.000 A 
ATOM     19  C   UNL     1       0.916   2.639  19.824  0.00  0.00    +0.000 A 
ATOM     20  C   UNL     1       1.318   2.710  21.159  0.00  0.00    +0.000 A 
ATOM     21  C   UNL     1       2.094   3.779  21.598  0.00  0.00    +0.000 A 
ATOM     22  C   UNL     1       2.464   4.777  20.702  0.00  0.00    +0.000 A 
ENDBRANCH  16  17
ENDBRANCH  15  16
ENDBRANCH  13  15
ENDBRANCH   1  13
TORSDOF 10
ENDMDL
MODEL 8
REMARK VINA RESULT:      -6.0      3.162      5.623
REMARK  Name = 
REMARK  13 active torsions:
REMARK  status: ('A' for Active; 'I' for Inactive)
REMARK    1  A    between atoms: C_1  and  O_2
REMARK    2  A    between atoms: O_2  and  C_3
REMARK    3  A    between atoms: C_3  and  C_4
REMARK    4  A    between atoms: C_3  and  O_20
REMARK    5  A    between atoms: C_4  and  C_5
REMARK    6  A    between atoms: C_7  and  C_8
REMARK    7  A    between atoms: C_8  and  O_9
REMARK    8  A    between atoms: C_8  and  C_10
REMARK    9  A    between atoms: C_10  and  C_11
REMARK   10  A    between atoms: C_10  and  O_12
REMARK   11  A    between atoms: O_12  and  C_13
REMARK   12  A    between atoms: C_13  and  C_14
REMARK   13  A    between atoms: O_20  and  C_21
REMARK                            x       y       z     vdW  Elec       q    Type
REMARK                         _______ _______ _______ _____ _____    ______ ____
ROOT
ATOM      1  C   UNL     1       6.550   4.247  16.581  0.00  0.00    +0.000 C 
ENDROOT
BRANCH   1   4
ATOM      2  C   UNL     1       5.667   4.673  14.074  0.00  0.00    +0.000 C 
ATOM      3  O   UNL     1       6.674   5.582  14.529  0.00  0.00    +0.000 OA
ATOM      4  C   UNL     1       5.803   5.035  15.541  0.00  0.00    +0.000 C 
BRANCH   2   5
ATOM      5  C   UNL     1       6.197   3.407  13.469  0.00  0.00    +0.000 C 
BRANCH   5   6
ATOM      6  C   UNL     1       5.822   3.303  11.980  0.00  0.00    +0.000 C 
BRANCH   6   8
ATOM      7  C   UNL     1       3.662   3.026  11.001  0.00  0.00    +0.000 C 
ATOM      8  O   UNL     1       4.555   3.890  11.687  0.00  0.00    +0.000 OA
ENDBRANCH   6   8
BRANCH   6   9
ATOM      9  O   UNL     1       5.800   1.910  11.658  0.00  0.00    +0.000 OA
ATOM     10  C   UNL     1       6.981   1.469  11.011  0.00  0.00    +0.000 C 
ENDBRANCH   6   9
ENDBRANCH   5   6
ENDBRANCH   2   5
ENDBRANCH   1   4
BRANCH   1  11
ATOM     11  O   UNL     1       7.946   4.462  16.314  0.00  0.00    +0.000 OA
ATOM     12  H   UNL     1       8.276   5.111  16.951  0.00  0.00    +0.000 HD
ENDBRANCH   1  11
BRANCH   1  13
ATOM     13  C   UNL     1       6.217   4.665  18.046  0.00  0.00    +0.000 C 
ATOM     14  C   UNL     1       5.372   5.934  18.114  0.00  0.00    +0.000 C 
BRANCH  13  15
ATOM     15  O   UNL     1       5.448   3.664  18.752  0.00  0.00    +0.000 OA
BRANCH  15  16
ATOM     16  C   UNL     1       4.107   3.551  18.285  0.00  0.00    +0.000 C 
BRANCH  16  17
ATOM     17  C   UNL     1       3.098   3.258  19.365  0.00  0.00    +0.000 A 
ATOM     18  C   UNL     1       3.441   2.729  20.612  0.00  0.00    +0.000 A 
ATOM     19  C   UNL     1       2.465   2.568  21.596  0.00  0.00    +0.000 A 
ATOM     20  C   UNL     1       1.143   2.942  21.345  0.00  0.00    +0.000 A 
ATOM     21  C   UNL     1       0.792   3.472  20.107  0.00  0.00    +0.000 A 
ATOM     22  C   UNL     1       1.762   3.625  19.121  0.00  0.00    +0.000 A 
ENDBRANCH  16  17
ENDBRANCH  15  16
ENDBRANCH  13  15
ENDBRANCH   1  13
TORSDOF 10
ENDMDL
MODEL 9
REMARK VINA RESULT:      -5.9      3.029      5.165
REMARK  Name = 
REMARK  13 active torsions:
REMARK  status: ('A' for Active; 'I' for Inactive)
REMARK    1  A    between atoms: C_1  and  O_2
REMARK    2  A    between atoms: O_2  and  C_3
REMARK    3  A    between atoms: C_3  and  C_4
REMARK    4  A    between atoms: C_3  and  O_20
REMARK    5  A    between atoms: C_4  and  C_5
REMARK    6  A    between atoms: C_7  and  C_8
REMARK    7  A    between atoms: C_8  and  O_9
REMARK    8  A    between atoms: C_8  and  C_10
REMARK    9  A    between atoms: C_10  and  C_11
REMARK   10  A    between atoms: C_10  and  O_12
REMARK   11  A    between atoms: O_12  and  C_13
REMARK   12  A    between atoms: C_13  and  C_14
REMARK   13  A    between atoms: O_20  and  C_21
REMARK                            x       y       z     vdW  Elec       q    Type
REMARK                         _______ _______ _______ _____ _____    ______ ____
ROOT
ATOM      1  C   UNL     1       6.717   5.978  16.926  0.00  0.00    +0.000 C 
ENDROOT
BRANCH   1   4
ATOM      2  C   UNL     1       5.429   4.758  14.901  0.00  0.00    +0.000 C 
ATOM      3  O   UNL     1       5.463   6.187  14.830  0.00  0.00    +0.000 OA
ATOM      4  C   UNL     1       5.480   5.613  16.154  0.00  0.00    +0.000 C 
BRANCH   2   5
ATOM      5  C   UNL     1       6.622   4.076  14.302  0.00  0.00    +0.000 C 
BRANCH   5   6
ATOM      6  C   UNL     1       6.319   3.575  12.877  0.00  0.00    +0.000 C 
BRANCH   6   8
ATOM      7  C   UNL     1       7.862   5.327  12.379  0.00  0.00    +0.000 C 
ATOM      8  O   UNL     1       7.080   4.254  11.880  0.00  0.00    +0.000 OA
ENDBRANCH   6   8
BRANCH   6   9
ATOM      9  O   UNL     1       4.922   3.790  12.656  0.00  0.00    +0.000 OA
ATOM     10  C   UNL     1       4.440   3.151  11.486  0.00  0.00    +0.000 C 
ENDBRANCH   6   9
ENDBRANCH   5   6
ENDBRANCH   2   5
ENDBRANCH   1   4
BRANCH   1  11
ATOM     11  O   UNL     1       6.482   7.296  17.450  0.00  0.00    +0.000 OA
ATOM     12  H   UNL     1       6.909   7.933  16.861  0.00  0.00    +0.000 HD
ENDBRANCH   1  11
BRANCH   1  13
ATOM     13  C   UNL     1       7.047   4.994  18.089  0.00  0.00    +0.000 C 
ATOM     14  C   UNL     1       7.521   5.714  19.348  0.00  0.00    +0.000 C 
BRANCH  13  15
ATOM     15  O   UNL     1       5.900   4.220  18.509  0.00  0.00    +0.000 OA
BRANCH  15  16
ATOM     16  C   UNL     1       5.056   4.914  19.423  0.00  0.00    +0.000 C 
BRANCH  16  17
ATOM     17  C   UNL     1       3.690   4.302  19.592  0.00  0.00    +0.000 A 
ATOM     18  C   UNL     1       3.379   2.999  19.196  0.00  0.00    +0.000 A 
ATOM     19  C   UNL     1       2.117   2.467  19.465  0.00  0.00    +0.000 A 
ATOM     20  C   UNL     1       1.161   3.230  20.138  0.00  0.00    +0.000 A 
ATOM     21  C   UNL     1       1.462   4.528  20.540  0.00  0.00    +0.000 A 
ATOM     22  C   UNL     1       2.716   5.063  20.265  0.00  0.00    +0.000 A 
ENDBRANCH  16  17
ENDBRANCH  15  16
ENDBRANCH  13  15
ENDBRANCH   1  13
TORSDOF 10
ENDMDL
