MODEL 1
REMARK VINA RESULT:      -5.9      0.000      0.000
REMARK  Name = 
REMARK  2 active torsions:
REMARK  status: ('A' for Active; 'I' for Inactive)
REMARK    1  A    between atoms: O_1  and  C_2
REMARK    2  A    between atoms: C_5  and  C_6
REMARK                            x       y       z     vdW  Elec       q    Type
REMARK                         _______ _______ _______ _____ _____    ______ ____
ROOT
ATOM      1  C   UNL     1       5.805   4.992  19.148  0.00  0.00    +0.000 A 
ATOM      2  N   UNL     1       5.792   4.415  17.978  0.00  0.00    +0.000 NA
ATOM      3  N   UNL     1       4.457   4.275  17.665  0.00  0.00    +0.000 NA
ATOM      4  C   UNL     1       3.778   4.795  18.672  0.00  0.00    +0.000 A 
ATOM      5  O   UNL     1       4.587   5.267  19.674  0.00  0.00    +0.000 OA
ENDROOT
BRANCH   4   6
ATOM      6  C   UNL     1       2.308   5.031  18.754  0.00  0.00    +0.000 C 
ATOM      7  C   UNL     1       1.869   5.224  20.212  0.00  0.00    +0.000 C 
ATOM      8  C   UNL     1       1.556   3.907  20.914  0.00  0.00    +0.000 C 
ATOM      9  N   UNL     1       0.556   3.149  20.166  0.00  0.00    +0.000 NA
ATOM     10  C   UNL     1       1.075   2.775  18.853  0.00  0.00    +0.000 C 
ATOM     11  C   UNL     1       1.458   3.993  18.011  0.00  0.00    +0.000 C 
ATOM     12  H   UNL     1      -0.290   3.711  20.058  0.00  0.00    +0.000 HD
ENDBRANCH   4   6
BRANCH   1  13
ATOM     13  O   UNL     1       6.865   5.388  19.813  0.00  0.00    +0.000 OA
ATOM     14  H   UNL     1       6.979   4.666  20.454  0.00  0.00    +0.000 HD
ENDBRANCH   1  13
TORSDOF 2
ENDMDL
MODEL 2
REMARK VINA RESULT:      -5.8      2.263      2.710
REMARK  Name = 
REMARK  2 active torsions:
REMARK  status: ('A' for Active; 'I' for Inactive)
REMARK    1  A    between atoms: O_1  and  C_2
REMARK    2  A    between atoms: C_5  and  C_6
REMARK                            x       y       z     vdW  Elec       q    Type
REMARK                         _______ _______ _______ _____ _____    ______ ____
ROOT
ATOM      1  C   UNL     1       6.962   4.613  17.280  0.00  0.00    +0.000 A 
ATOM      2  N   UNL     1       7.511   4.748  18.456  0.00  0.00    +0.000 NA
ATOM      3  N   UNL     1       6.468   4.641  19.351  0.00  0.00    +0.000 NA
ATOM      4  C   UNL     1       5.378   4.434  18.634  0.00  0.00    +0.000 A 
ATOM      5  O   UNL     1       5.621   4.417  17.284  0.00  0.00    +0.000 OA
ENDROOT
BRANCH   4   6
ATOM      6  C   UNL     1       4.012   4.098  19.129  0.00  0.00    +0.000 C 
ATOM      7  C   UNL     1       3.972   2.667  19.683  0.00  0.00    +0.000 C 
ATOM      8  C   UNL     1       3.686   1.625  18.607  0.00  0.00    +0.000 C 
ATOM      9  N   UNL     1       2.450   1.943  17.896  0.00  0.00    +0.000 NA
ATOM     10  C   UNL     1       2.582   3.212  17.183  0.00  0.00    +0.000 C 
ATOM     11  C   UNL     1       2.888   4.378  18.124  0.00  0.00    +0.000 C 
ATOM     12  H   UNL     1       1.676   1.997  18.561  0.00  0.00    +0.000 HD
ENDBRANCH   4   6
BRANCH   1  13
ATOM     13  O   UNL     1       7.585   4.576  16.126  0.00  0.00    +0.000 OA
ATOM     14  H   UNL     1       7.415   5.468  15.779  0.00  0.00    +0.000 HD
ENDBRANCH   1  13
TORSDOF 2
ENDMDL
MODEL 3
REMARK VINA RESULT:      -5.8      2.823      5.076
REMARK  Name = 
REMARK  2 active torsions:
REMARK  status: ('A' for Active; 'I' for Inactive)
REMARK    1  A    between atoms: O_1  and  C_2
REMARK    2  A    between atoms: C_5  and  C_6
REMARK                            x       y       z     vdW  Elec       q    Type
REMARK                         _______ _______ _______ _____ _____    ______ ____
ROOT
ATOM      1  C   UNL     1       3.093   2.190  18.849  0.00  0.00    +0.000 A 
ATOM      2  N   UNL     1       3.932   2.158  19.848  0.00  0.00    +0.000 NA
ATOM      3  N   UNL     1       4.857   3.140  19.568  0.00  0.00    +0.000 NA
ATOM      4  C   UNL     1       4.486   3.692  18.426  0.00  0.00    +0.000 A 
ATOM      5  O   UNL     1       3.358   3.117  17.897  0.00  0.00    +0.000 OA
ENDROOT
BRANCH   4   6
ATOM      6  C   UNL     1       5.061   4.901  17.769  0.00  0.00    +0.000 C 
ATOM      7  C   UNL     1       5.051   4.745  16.242  0.00  0.00    +0.000 C 
ATOM      8  C   UNL     1       6.294   4.038  15.713  0.00  0.00    +0.000 C 
ATOM      9  N   UNL     1       7.505   4.721  16.158  0.00  0.00    +0.000 NA
ATOM     10  C   UNL     1       7.618   4.665  17.614  0.00  0.00    +0.000 C 
ATOM     11  C   UNL     1       6.430   5.326  18.314  0.00  0.00    +0.000 C 
ATOM     12  H   UNL     1       7.484   5.694  15.848  0.00  0.00    +0.000 HD
ENDBRANCH   4   6
BRANCH   1  13
ATOM     13  O   UNL     1       2.001   1.473  18.722  0.00  0.00    +0.000 OA
ATOM     14  H   UNL     1       2.258   0.640  19.152  0.00  0.00    +0.000 HD
ENDBRANCH   1  13
TORSDOF 2
ENDMDL
MODEL 4
REMARK VINA RESULT:      -5.8      1.378      1.386
REMARK  Name = 
REMARK  2 active torsions:
REMARK  status: ('A' for Active; 'I' for Inactive)
REMARK    1  A    between atoms: O_1  and  C_2
REMARK    2  A    between atoms: C_5  and  C_6
REMARK                            x       y       z     vdW  Elec       q    Type
REMARK                         _______ _______ _______ _____ _____    ______ ____
ROOT
ATOM      1  C   UNL     1       5.648   4.454  17.995  0.00  0.00    +0.000 A 
ATOM      2  N   UNL     1       5.903   4.803  19.226  0.00  0.00    +0.000 NA
ATOM      3  N   UNL     1       4.691   5.216  19.737  0.00  0.00    +0.000 NA
ATOM      4  C   UNL     1       3.804   5.065  18.770  0.00  0.00    +0.000 A 
ATOM      5  O   UNL     1       4.356   4.587  17.608  0.00  0.00    +0.000 OA
ENDROOT
BRANCH   4   6
ATOM      6  C   UNL     1       2.324   5.222  18.859  0.00  0.00    +0.000 C 
ATOM      7  C   UNL     1       1.869   5.269  20.323  0.00  0.00    +0.000 C 
ATOM      8  C   UNL     1       1.617   3.884  20.909  0.00  0.00    +0.000 C 
ATOM      9  N   UNL     1       0.659   3.144  20.090  0.00  0.00    +0.000 NA
ATOM     10  C   UNL     1       1.203   2.908  18.755  0.00  0.00    +0.000 C 
ATOM     11  C   UNL     1       1.529   4.210  18.022  0.00  0.00    +0.000 C 
ATOM     12  H   UNL     1      -0.213   3.672  20.022  0.00  0.00    +0.000 HD
ENDBRANCH   4   6
BRANCH   1  13
ATOM     13  O   UNL     1       6.494   3.927  17.141  0.00  0.00    +0.000 OA
ATOM     14  H   UNL     1       7.328   4.356  17.397  0.00  0.00    +0.000 HD
ENDBRANCH   1  13
TORSDOF 2
ENDMDL
MODEL 5
REMARK VINA RESULT:      -5.7      1.968      2.067
REMARK  Name = 
REMARK  2 active torsions:
REMARK  status: ('A' for Active; 'I' for Inactive)
REMARK    1  A    between atoms: O_1  and  C_2
REMARK    2  A    between atoms: C_5  and  C_6
REMARK                            x       y       z     vdW  Elec       q    Type
REMARK                         _______ _______ _______ _____ _____    ______ ____
ROOT
ATOM      1  C   UNL     1       6.990   4.557  17.848  0.00  0.00    +0.000 A 
ATOM      2  N   UNL     1       6.989   5.096  19.036  0.00  0.00    +0.000 NA
ATOM      3  N   UNL     1       5.657   5.256  19.353  0.00  0.00    +0.000 NA
ATOM      4  C   UNL     1       4.967   4.783  18.331  0.00  0.00    +0.000 A 
ATOM      5  O   UNL     1       5.766   4.325  17.314  0.00  0.00    +0.000 OA
ENDROOT
BRANCH   4   6
ATOM      6  C   UNL     1       3.493   4.582  18.242  0.00  0.00    +0.000 C 
ATOM      7  C   UNL     1       2.880   4.426  19.640  0.00  0.00    +0.000 C 
ATOM      8  C   UNL     1       2.905   2.985  20.138  0.00  0.00    +0.000 C 
ATOM      9  N   UNL     1       2.251   2.096  19.182  0.00  0.00    +0.000 NA
ATOM     10  C   UNL     1       2.980   2.082  17.916  0.00  0.00    +0.000 C 
ATOM     11  C   UNL     1       3.063   3.469  17.277  0.00  0.00    +0.000 C 
ATOM     12  H   UNL     1       1.290   2.407  19.025  0.00  0.00    +0.000 HD
ENDBRANCH   4   6
BRANCH   1  13
ATOM     13  O   UNL     1       8.041   4.159  17.170  0.00  0.00    +0.000 OA
ATOM     14  H   UNL     1       7.808   4.427  16.265  0.00  0.00    +0.000 HD
ENDBRANCH   1  13
TORSDOF 2
ENDMDL
MODEL 6
REMARK VINA RESULT:      -5.7      3.122      4.011
REMARK  Name = 
REMARK  2 active torsions:
REMARK  status: ('A' for Active; 'I' for Inactive)
REMARK    1  A    between atoms: O_1  and  C_2
REMARK    2  A    between atoms: C_5  and  C_6
REMARK                            x       y       z     vdW  Elec       q    Type
REMARK                         _______ _______ _______ _____ _____    ______ ____
ROOT
ATOM      1  C   UNL     1       6.530   4.455  14.826  0.00  0.00    +0.000 A 
ATOM      2  N   UNL     1       7.585   5.216  14.922  0.00  0.00    +0.000 NA
ATOM      3  N   UNL     1       7.334   6.040  15.998  0.00  0.00    +0.000 NA
ATOM      4  C   UNL     1       6.151   5.692  16.470  0.00  0.00    +0.000 A 
ATOM      5  O   UNL     1       5.566   4.680  15.751  0.00  0.00    +0.000 OA
ENDROOT
BRANCH   4   6
ATOM      6  C   UNL     1       5.491   6.170  17.719  0.00  0.00    +0.000 C 
ATOM      7  C   UNL     1       5.890   5.293  18.914  0.00  0.00    +0.000 C 
ATOM      8  C   UNL     1       4.993   4.070  19.074  0.00  0.00    +0.000 C 
ATOM      9  N   UNL     1       3.591   4.467  19.165  0.00  0.00    +0.000 NA
ATOM     10  C   UNL     1       3.158   5.105  17.924  0.00  0.00    +0.000 C 
ATOM     11  C   UNL     1       3.973   6.358  17.600  0.00  0.00    +0.000 C 
ATOM     12  H   UNL     1       3.466   5.111  19.949  0.00  0.00    +0.000 HD
ENDBRANCH   4   6
BRANCH   1  13
ATOM     13  O   UNL     1       6.353   3.466  13.982  0.00  0.00    +0.000 OA
ATOM     14  H   UNL     1       5.431   3.602  13.707  0.00  0.00    +0.000 HD
ENDBRANCH   1  13
TORSDOF 2
ENDMDL
MODEL 7
REMARK VINA RESULT:      -5.7      3.004      5.153
REMARK  Name = 
REMARK  2 active torsions:
REMARK  status: ('A' for Active; 'I' for Inactive)
REMARK    1  A    between atoms: O_1  and  C_2
REMARK    2  A    between atoms: C_5  and  C_6
REMARK                            x       y       z     vdW  Elec       q    Type
REMARK                         _______ _______ _______ _____ _____    ______ ____
ROOT
ATOM      1  C   UNL     1       3.667   2.311  18.537  0.00  0.00    +0.000 A 
ATOM      2  N   UNL     1       4.488   2.702  19.474  0.00  0.00    +0.000 NA
ATOM      3  N   UNL     1       5.106   3.823  18.961  0.00  0.00    +0.000 NA
ATOM      4  C   UNL     1       4.590   4.020  17.761  0.00  0.00    +0.000 A 
ATOM      5  O   UNL     1       3.662   3.071  17.415  0.00  0.00    +0.000 OA
ENDROOT
BRANCH   4   6
ATOM      6  C   UNL     1       4.806   5.186  16.857  0.00  0.00    +0.000 C 
ATOM      7  C   UNL     1       5.391   4.731  15.513  0.00  0.00    +0.000 C 
ATOM      8  C   UNL     1       6.913   4.641  15.531  0.00  0.00    +0.000 C 
ATOM      9  N   UNL     1       7.500   5.911  15.950  0.00  0.00    +0.000 NA
ATOM     10  C   UNL     1       7.113   6.225  17.324  0.00  0.00    +0.000 C 
ATOM     11  C   UNL     1       5.597   6.338  17.489  0.00  0.00    +0.000 C 
ATOM     12  H   UNL     1       7.189   6.656  15.323  0.00  0.00    +0.000 HD
ENDBRANCH   4   6
BRANCH   1  13
ATOM     13  O   UNL     1       2.814   1.316  18.610  0.00  0.00    +0.000 OA
ATOM     14  H   UNL     1       3.322   0.589  18.214  0.00  0.00    +0.000 HD
ENDBRANCH   1  13
TORSDOF 2
ENDMDL
MODEL 8
REMARK VINA RESULT:      -5.6      2.746      4.869
REMARK  Name = 
REMARK  2 active torsions:
REMARK  status: ('A' for Active; 'I' for Inactive)
REMARK    1  A    between atoms: O_1  and  C_2
REMARK    2  A    between atoms: C_5  and  C_6
REMARK                            x       y       z     vdW  Elec       q    Type
REMARK                         _______ _______ _______ _____ _____    ______ ____
ROOT
ATOM      1  C   UNL     1       4.491   2.880  19.063  0.00  0.00    +0.000 A 
ATOM      2  N   UNL     1       3.393   2.548  18.441  0.00  0.00    +0.000 NA
ATOM      3  N   UNL     1       3.243   3.495  17.452  0.00  0.00    +0.000 NA
ATOM      4  C   UNL     1       4.277   4.312  17.553  0.00  0.00    +0.000 A 
ATOM      5  O   UNL     1       5.120   3.981  18.584  0.00  0.00    +0.000 OA
ENDROOT
BRANCH   4   6
ATOM      6  C   UNL     1       4.666   5.409  16.621  0.00  0.00    +0.000 C 
ATOM      7  C   UNL     1       5.412   4.850  15.403  0.00  0.00    +0.000 C 
ATOM      8  C   UNL     1       6.912   4.711  15.642  0.00  0.00    +0.000 C 
ATOM      9  N   UNL     1       7.487   5.985  16.065  0.00  0.00    +0.000 NA
ATOM     10  C   UNL     1       6.926   6.399  17.349  0.00  0.00    +0.000 C 
ATOM     11  C   UNL     1       5.408   6.573  17.290  0.00  0.00    +0.000 C 
ATOM     12  H   UNL     1       7.299   6.698  15.357  0.00  0.00    +0.000 HD
ENDBRANCH   4   6
BRANCH   1  13
ATOM     13  O   UNL     1       5.069   2.219  20.039  0.00  0.00    +0.000 OA
ATOM     14  H   UNL     1       5.605   1.572  19.550  0.00  0.00    +0.000 HD
ENDBRANCH   1  13
TORSDOF 2
ENDMDL
MODEL 9
REMARK VINA RESULT:      -5.6      3.627      4.639
REMARK  Name = 
REMARK  2 active torsions:
REMARK  status: ('A' for Active; 'I' for Inactive)
REMARK    1  A    between atoms: O_1  and  C_2
REMARK    2  A    between atoms: C_5  and  C_6
REMARK                            x       y       z     vdW  Elec       q    Type
REMARK                         _______ _______ _______ _____ _____    ______ ____
ROOT
ATOM      1  C   UNL     1       6.502   4.313  13.994  0.00  0.00    +0.000 A 
ATOM      2  N   UNL     1       7.527   5.062  14.294  0.00  0.00    +0.000 NA
ATOM      3  N   UNL     1       7.125   5.795  15.390  0.00  0.00    +0.000 NA
ATOM      4  C   UNL     1       5.892   5.411  15.667  0.00  0.00    +0.000 A 
ATOM      5  O   UNL     1       5.419   4.463  14.795  0.00  0.00    +0.000 OA
ENDROOT
BRANCH   4   6
ATOM      6  C   UNL     1       5.065   5.786  16.849  0.00  0.00    +0.000 C 
ATOM      7  C   UNL     1       5.954   6.270  18.003  0.00  0.00    +0.000 C 
ATOM      8  C   UNL     1       6.448   5.129  18.885  0.00  0.00    +0.000 C 
ATOM      9  N   UNL     1       5.325   4.342  19.389  0.00  0.00    +0.000 NA
ATOM     10  C   UNL     1       4.616   3.699  18.285  0.00  0.00    +0.000 C 
ATOM     11  C   UNL     1       4.059   4.712  17.284  0.00  0.00    +0.000 C 
ATOM     12  H   UNL     1       4.686   4.948  19.906  0.00  0.00    +0.000 HD
ENDBRANCH   4   6
BRANCH   1  13
ATOM     13  O   UNL     1       6.450   3.396  13.056  0.00  0.00    +0.000 OA
ATOM     14  H   UNL     1       6.301   3.934  12.260  0.00  0.00    +0.000 HD
ENDBRANCH   1  13
TORSDOF 2
ENDMDL
