MODEL 1
REMARK VINA RESULT:      -7.8      0.000      0.000
REMARK  Name = 
REMARK  7 active torsions:
REMARK  status: ('A' for Active; 'I' for Inactive)
REMARK    1  A    between atoms: C_1  and  O_2
REMARK    2  A    between atoms: O_2  and  C_3
REMARK    3  A    between atoms: C_7  and  C_8
REMARK    4  A    between atoms: C_8  and  O_9
REMARK    5  A    between atoms: C_8  and  C_10
REMARK    6  A    between atoms: C_10  and  N_11
REMARK    7  A    between atoms: N_14  and  C_15
REMARK                            x       y       z     vdW  Elec       q    Type
REMARK                         _______ _______ _______ _____ _____    ______ ____
ROOT
ATOM      1  N   UNL     1       6.458   6.873  16.903  0.00  0.00    +0.000 NA
ATOM      2  C   UNL     1       6.569   5.655  17.737  0.00  0.00    +0.000 C 
ATOM      3  C   UNL     1       5.572   5.585  18.914  0.00  0.00    +0.000 C 
ATOM      4  N   UNL     1       4.185   5.795  18.458  0.00  0.00    +0.000 N 
ATOM      5  C   UNL     1       3.992   6.928  17.531  0.00  0.00    +0.000 C 
ATOM      6  C   UNL     1       5.056   6.941  16.411  0.00  0.00    +0.000 C 
ENDROOT
BRANCH   4   7
ATOM      7  C   UNL     1       3.180   4.836  18.703  0.00  0.00    +0.000 A 
ATOM      8  C   UNL     1       2.394   5.007  19.780  0.00  0.00    +0.000 A 
ATOM      9  C   UNL     1       1.282   4.266  20.297  0.00  0.00    +0.000 A 
ATOM     10  C   UNL     1       0.799   3.092  19.897  0.00  0.00    +0.000 A 
ATOM     11  C   UNL     1       1.268   2.258  18.832  0.00  0.00    +0.000 A 
ATOM     12  C   UNL     1       2.213   2.509  17.926  0.00  0.00    +0.000 A 
ATOM     13  C   UNL     1       3.096   3.679  17.723  0.00  0.00    +0.000 A 
ATOM     14  O   UNL     1       3.818   3.636  16.722  0.00  0.00    +0.000 OA
ENDBRANCH   4   7
BRANCH   1  15
ATOM     15  C   UNL     1       6.811   8.103  17.640  0.00  0.00    +0.000 C 
BRANCH  15  16
ATOM     16  C   UNL     1       8.311   8.293  17.989  0.00  0.00    +0.000 C 
BRANCH  16  21
ATOM     17  C   UNL     1       9.656  11.372  19.821  0.00  0.00    +0.000 A 
ATOM     18  C   UNL     1       9.272  12.388  18.945  0.00  0.00    +0.000 A 
ATOM     19  C   UNL     1       8.597  12.085  17.763  0.00  0.00    +0.000 A 
ATOM     20  C   UNL     1       8.305  10.759  17.448  0.00  0.00    +0.000 A 
ATOM     21  C   UNL     1       8.677   9.723  18.316  0.00  0.00    +0.000 A 
ATOM     22  C   UNL     1       9.353  10.046  19.504  0.00  0.00    +0.000 A 
BRANCH  17  24
ATOM     23  C   UNL     1       9.556  12.596  21.851  0.00  0.00    +0.000 C 
ATOM     24  O   UNL     1      10.306  11.783  20.953  0.00  0.00    +0.000 OA
ENDBRANCH  17  24
ENDBRANCH  16  21
BRANCH  16  25
ATOM     25  O   UNL     1       8.644   7.432  19.085  0.00  0.00    +0.000 OA
ATOM     26  H   UNL     1       8.564   7.950  19.901  0.00  0.00    +0.000 HD
ENDBRANCH  16  25
ENDBRANCH  15  16
ENDBRANCH   1  15
TORSDOF 6
ENDMDL
MODEL 2
REMARK VINA RESULT:      -7.8      1.083      1.653
REMARK  Name = 
REMARK  7 active torsions:
REMARK  status: ('A' for Active; 'I' for Inactive)
REMARK    1  A    between atoms: C_1  and  O_2
REMARK    2  A    between atoms: O_2  and  C_3
REMARK    3  A    between atoms: C_7  and  C_8
REMARK    4  A    between atoms: C_8  and  O_9
REMARK    5  A    between atoms: C_8  and  C_10
REMARK    6  A    between atoms: C_10  and  N_11
REMARK    7  A    between atoms: N_14  and  C_15
REMARK                            x       y       z     vdW  Elec       q    Type
REMARK                         _______ _______ _______ _____ _____    ______ ____
ROOT
ATOM      1  N   UNL     1       6.578   6.692  16.953  0.00  0.00    +0.000 NA
ATOM      2  C   UNL     1       6.643   5.555  17.899  0.00  0.00    +0.000 C 
ATOM      3  C   UNL     1       5.560   5.569  18.999  0.00  0.00    +0.000 C 
ATOM      4  N   UNL     1       4.208   5.709  18.424  0.00  0.00    +0.000 N 
ATOM      5  C   UNL     1       4.071   6.752  17.388  0.00  0.00    +0.000 C 
ATOM      6  C   UNL     1       5.218   6.688  16.353  0.00  0.00    +0.000 C 
ENDROOT
BRANCH   4   7
ATOM      7  C   UNL     1       3.201   4.756  18.678  0.00  0.00    +0.000 A 
ATOM      8  C   UNL     1       2.381   4.966  19.722  0.00  0.00    +0.000 A 
ATOM      9  C   UNL     1       1.257   4.241  20.236  0.00  0.00    +0.000 A 
ATOM     10  C   UNL     1       0.793   3.048  19.870  0.00  0.00    +0.000 A 
ATOM     11  C   UNL     1       1.298   2.174  18.856  0.00  0.00    +0.000 A 
ATOM     12  C   UNL     1       2.269   2.393  17.970  0.00  0.00    +0.000 A 
ATOM     13  C   UNL     1       3.153   3.558  17.746  0.00  0.00    +0.000 A 
ATOM     14  O   UNL     1       3.906   3.478  16.770  0.00  0.00    +0.000 OA
ENDBRANCH   4   7
BRANCH   1  15
ATOM     15  C   UNL     1       6.857   7.990  17.601  0.00  0.00    +0.000 C 
BRANCH  15  16
ATOM     16  C   UNL     1       8.329   8.252  18.017  0.00  0.00    +0.000 C 
BRANCH  16  21
ATOM     17  C   UNL     1       8.359  12.075  17.834  0.00  0.00    +0.000 A 
ATOM     18  C   UNL     1       9.226  12.382  18.883  0.00  0.00    +0.000 A 
ATOM     19  C   UNL     1       9.789  11.366  19.656  0.00  0.00    +0.000 A 
ATOM     20  C   UNL     1       9.481  10.035  19.386  0.00  0.00    +0.000 A 
ATOM     21  C   UNL     1       8.616   9.703  18.334  0.00  0.00    +0.000 A 
ATOM     22  C   UNL     1       8.062  10.738  17.563  0.00  0.00    +0.000 A 
BRANCH  17  24
ATOM     23  C   UNL     1       7.671  14.345  17.884  0.00  0.00    +0.000 C 
ATOM     24  O   UNL     1       7.871  13.148  17.138  0.00  0.00    +0.000 OA
ENDBRANCH  17  24
ENDBRANCH  16  21
BRANCH  16  25
ATOM     25  O   UNL     1       8.648   7.426  19.143  0.00  0.00    +0.000 OA
ATOM     26  H   UNL     1       7.903   6.821  19.284  0.00  0.00    +0.000 HD
ENDBRANCH  16  25
ENDBRANCH  15  16
ENDBRANCH   1  15
TORSDOF 6
ENDMDL
MODEL 3
REMARK VINA RESULT:      -7.7      0.956      1.528
REMARK  Name = 
REMARK  7 active torsions:
REMARK  status: ('A' for Active; 'I' for Inactive)
REMARK    1  A    between atoms: C_1  and  O_2
REMARK    2  A    between atoms: O_2  and  C_3
REMARK    3  A    between atoms: C_7  and  C_8
REMARK    4  A    between atoms: C_8  and  O_9
REMARK    5  A    between atoms: C_8  and  C_10
REMARK    6  A    between atoms: C_10  and  N_11
REMARK    7  A    between atoms: N_14  and  C_15
REMARK                            x       y       z     vdW  Elec       q    Type
REMARK                         _______ _______ _______ _____ _____    ______ ____
ROOT
ATOM      1  N   UNL     1       6.456   6.827  16.870  0.00  0.00    +0.000 NA
ATOM      2  C   UNL     1       6.635   5.587  17.657  0.00  0.00    +0.000 C 
ATOM      3  C   UNL     1       5.675   5.441  18.858  0.00  0.00    +0.000 C 
ATOM      4  N   UNL     1       4.268   5.617  18.449  0.00  0.00    +0.000 N 
ATOM      5  C   UNL     1       4.009   6.773  17.569  0.00  0.00    +0.000 C 
ATOM      6  C   UNL     1       5.040   6.862  16.420  0.00  0.00    +0.000 C 
ENDROOT
BRANCH   4   7
ATOM      7  C   UNL     1       3.305   4.615  18.688  0.00  0.00    +0.000 A 
ATOM      8  C   UNL     1       3.362   3.496  17.945  0.00  0.00    +0.000 A 
ATOM      9  C   UNL     1       2.585   2.292  17.942  0.00  0.00    +0.000 A 
ATOM     10  C   UNL     1       1.475   2.010  18.621  0.00  0.00    +0.000 A 
ATOM     11  C   UNL     1       0.764   2.845  19.541  0.00  0.00    +0.000 A 
ATOM     12  C   UNL     1       1.104   4.042  20.021  0.00  0.00    +0.000 A 
ATOM     13  C   UNL     1       2.273   4.910  19.762  0.00  0.00    +0.000 A 
ATOM     14  O   UNL     1       2.335   5.939  20.441  0.00  0.00    +0.000 OA
ENDBRANCH   4   7
BRANCH   1  15
ATOM     15  C   UNL     1       6.788   8.044  17.639  0.00  0.00    +0.000 C 
BRANCH  15  16
ATOM     16  C   UNL     1       8.284   8.252  17.992  0.00  0.00    +0.000 C 
BRANCH  16  21
ATOM     17  C   UNL     1       9.622  11.354  19.791  0.00  0.00    +0.000 A 
ATOM     18  C   UNL     1       9.199  12.363  18.925  0.00  0.00    +0.000 A 
ATOM     19  C   UNL     1       8.499  12.049  17.761  0.00  0.00    +0.000 A 
ATOM     20  C   UNL     1       8.222  10.719  17.453  0.00  0.00    +0.000 A 
ATOM     21  C   UNL     1       8.634   9.689  18.310  0.00  0.00    +0.000 A 
ATOM     22  C   UNL     1       9.334  10.024  19.481  0.00  0.00    +0.000 A 
BRANCH  17  24
ATOM     23  C   UNL     1       9.878  13.022  21.458  0.00  0.00    +0.000 C 
ATOM     24  O   UNL     1      10.294  11.777  20.906  0.00  0.00    +0.000 OA
ENDBRANCH  17  24
ENDBRANCH  16  21
BRANCH  16  25
ATOM     25  O   UNL     1       8.624   7.403  19.094  0.00  0.00    +0.000 OA
ATOM     26  H   UNL     1       8.633   6.489  18.770  0.00  0.00    +0.000 HD
ENDBRANCH  16  25
ENDBRANCH  15  16
ENDBRANCH   1  15
TORSDOF 6
ENDMDL
MODEL 4
REMARK VINA RESULT:      -7.6      4.442      7.629
REMARK  Name = 
REMARK  7 active torsions:
REMARK  status: ('A' for Active; 'I' for Inactive)
REMARK    1  A    between atoms: C_1  and  O_2
REMARK    2  A    between atoms: O_2  and  C_3
REMARK    3  A    between atoms: C_7  and  C_8
REMARK    4  A    between atoms: C_8  and  O_9
REMARK    5  A    between atoms: C_8  and  C_10
REMARK    6  A    between atoms: C_10  and  N_11
REMARK    7  A    between atoms: N_14  and  C_15
REMARK                            x       y       z     vdW  Elec       q    Type
REMARK                         _______ _______ _______ _____ _____    ______ ____
ROOT
ATOM      1  N   UNL     1       6.671   5.282  16.147  0.00  0.00    +0.000 NA
ATOM      2  C   UNL     1       5.834   6.090  17.062  0.00  0.00    +0.000 C 
ATOM      3  C   UNL     1       4.327   5.755  17.024  0.00  0.00    +0.000 C 
ATOM      4  N   UNL     1       4.091   4.311  17.219  0.00  0.00    +0.000 N 
ATOM      5  C   UNL     1       4.958   3.419  16.423  0.00  0.00    +0.000 C 
ATOM      6  C   UNL     1       6.441   3.853  16.487  0.00  0.00    +0.000 C 
ENDROOT
BRANCH   4   7
ATOM      7  C   UNL     1       3.270   3.837  18.262  0.00  0.00    +0.000 A 
ATOM      8  C   UNL     1       1.942   3.807  18.056  0.00  0.00    +0.000 A 
ATOM      9  C   UNL     1       0.844   3.365  18.863  0.00  0.00    +0.000 A 
ATOM     10  C   UNL     1       0.844   2.971  20.135  0.00  0.00    +0.000 A 
ATOM     11  C   UNL     1       1.956   2.881  21.033  0.00  0.00    +0.000 A 
ATOM     12  C   UNL     1       3.252   3.056  20.781  0.00  0.00    +0.000 A 
ATOM     13  C   UNL     1       3.974   3.419  19.541  0.00  0.00    +0.000 A 
ATOM     14  O   UNL     1       5.206   3.419  19.620  0.00  0.00    +0.000 OA
ENDBRANCH   4   7
BRANCH   1  15
ATOM     15  C   UNL     1       6.366   5.533  14.724  0.00  0.00    +0.000 C 
BRANCH  15  16
ATOM     16  C   UNL     1       7.189   4.722  13.688  0.00  0.00    +0.000 C 
BRANCH  16  21
ATOM     17  C   UNL     1       6.096   1.872  11.378  0.00  0.00    +0.000 A 
ATOM     18  C   UNL     1       4.777   2.239  11.114  0.00  0.00    +0.000 A 
ATOM     19  C   UNL     1       4.234   3.389  11.687  0.00  0.00    +0.000 A 
ATOM     20  C   UNL     1       5.010   4.178  12.533  0.00  0.00    +0.000 A 
ATOM     21  C   UNL     1       6.340   3.831  12.808  0.00  0.00    +0.000 A 
ATOM     22  C   UNL     1       6.872   2.672  12.220  0.00  0.00    +0.000 A 
BRANCH  17  24
ATOM     23  C   UNL     1       6.094  -0.499  11.331  0.00  0.00    +0.000 C 
ATOM     24  O   UNL     1       6.527   0.731  10.758  0.00  0.00    +0.000 OA
ENDBRANCH  17  24
ENDBRANCH  16  21
BRANCH  16  25
ATOM     25  O   UNL     1       7.950   5.632  12.885  0.00  0.00    +0.000 OA
ATOM     26  H   UNL     1       7.821   6.523  13.247  0.00  0.00    +0.000 HD
ENDBRANCH  16  25
ENDBRANCH  15  16
ENDBRANCH   1  15
TORSDOF 6
ENDMDL
MODEL 5
REMARK VINA RESULT:      -7.6      1.448      2.277
REMARK  Name = 
REMARK  7 active torsions:
REMARK  status: ('A' for Active; 'I' for Inactive)
REMARK    1  A    between atoms: C_1  and  O_2
REMARK    2  A    between atoms: O_2  and  C_3
REMARK    3  A    between atoms: C_7  and  C_8
REMARK    4  A    between atoms: C_8  and  O_9
REMARK    5  A    between atoms: C_8  and  C_10
REMARK    6  A    between atoms: C_10  and  N_11
REMARK    7  A    between atoms: N_14  and  C_15
REMARK                            x       y       z     vdW  Elec       q    Type
REMARK                         _______ _______ _______ _____ _____    ______ ____
ROOT
ATOM      1  N   UNL     1       6.727   6.550  16.874  0.00  0.00    +0.000 NA
ATOM      2  C   UNL     1       6.792   5.446  17.857  0.00  0.00    +0.000 C 
ATOM      3  C   UNL     1       5.675   5.464  18.923  0.00  0.00    +0.000 C 
ATOM      4  N   UNL     1       4.339   5.549  18.302  0.00  0.00    +0.000 N 
ATOM      5  C   UNL     1       4.207   6.555  17.229  0.00  0.00    +0.000 C 
ATOM      6  C   UNL     1       5.387   6.490  16.233  0.00  0.00    +0.000 C 
ENDROOT
BRANCH   4   7
ATOM      7  C   UNL     1       3.350   4.576  18.555  0.00  0.00    +0.000 A 
ATOM      8  C   UNL     1       3.375   3.447  17.826  0.00  0.00    +0.000 A 
ATOM      9  C   UNL     1       2.566   2.264  17.840  0.00  0.00    +0.000 A 
ATOM     10  C   UNL     1       1.450   2.021  18.523  0.00  0.00    +0.000 A 
ATOM     11  C   UNL     1       0.764   2.885  19.435  0.00  0.00    +0.000 A 
ATOM     12  C   UNL     1       1.137   4.078  19.899  0.00  0.00    +0.000 A 
ATOM     13  C   UNL     1       2.328   4.912  19.627  0.00  0.00    +0.000 A 
ATOM     14  O   UNL     1       2.420   5.948  20.294  0.00  0.00    +0.000 OA
ENDBRANCH   4   7
BRANCH   1  15
ATOM     15  C   UNL     1       6.950   7.875  17.488  0.00  0.00    +0.000 C 
BRANCH  15  16
ATOM     16  C   UNL     1       8.391   8.174  17.982  0.00  0.00    +0.000 C 
BRANCH  16  21
ATOM     17  C   UNL     1       8.345  11.992  17.731  0.00  0.00    +0.000 A 
ATOM     18  C   UNL     1       9.164  12.336  18.806  0.00  0.00    +0.000 A 
ATOM     19  C   UNL     1       9.718  11.347  19.619  0.00  0.00    +0.000 A 
ATOM     20  C   UNL     1       9.450  10.005  19.361  0.00  0.00    +0.000 A 
ATOM     21  C   UNL     1       8.634   9.636  18.283  0.00  0.00    +0.000 A 
ATOM     22  C   UNL     1       8.088  10.644  17.472  0.00  0.00    +0.000 A 
BRANCH  17  24
ATOM     23  C   UNL     1       7.131  14.030  17.716  0.00  0.00    +0.000 C 
ATOM     24  O   UNL     1       7.862  13.042  16.997  0.00  0.00    +0.000 OA
ENDBRANCH  17  24
ENDBRANCH  16  21
BRANCH  16  25
ATOM     25  O   UNL     1       8.658   7.377  19.142  0.00  0.00    +0.000 OA
ATOM     26  H   UNL     1       7.809   7.045  19.473  0.00  0.00    +0.000 HD
ENDBRANCH  16  25
ENDBRANCH  15  16
ENDBRANCH   1  15
TORSDOF 6
ENDMDL
MODEL 6
REMARK VINA RESULT:      -7.3      4.332      7.541
REMARK  Name = 
REMARK  7 active torsions:
REMARK  status: ('A' for Active; 'I' for Inactive)
REMARK    1  A    between atoms: C_1  and  O_2
REMARK    2  A    between atoms: O_2  and  C_3
REMARK    3  A    between atoms: C_7  and  C_8
REMARK    4  A    between atoms: C_8  and  O_9
REMARK    5  A    between atoms: C_8  and  C_10
REMARK    6  A    between atoms: C_10  and  N_11
REMARK    7  A    between atoms: N_14  and  C_15
REMARK                            x       y       z     vdW  Elec       q    Type
REMARK                         _______ _______ _______ _____ _____    ______ ____
ROOT
ATOM      1  N   UNL     1       6.948   5.356  15.843  0.00  0.00    +0.000 NA
ATOM      2  C   UNL     1       6.141   6.204  16.748  0.00  0.00    +0.000 C 
ATOM      3  C   UNL     1       4.621   5.932  16.702  0.00  0.00    +0.000 C 
ATOM      4  N   UNL     1       4.323   4.501  16.903  0.00  0.00    +0.000 N 
ATOM      5  C   UNL     1       5.158   3.569  16.119  0.00  0.00    +0.000 C 
ATOM      6  C   UNL     1       6.657   3.940  16.190  0.00  0.00    +0.000 C 
ENDROOT
BRANCH   4   7
ATOM      7  C   UNL     1       3.477   4.068  17.944  0.00  0.00    +0.000 A 
ATOM      8  C   UNL     1       2.162   3.963  17.685  0.00  0.00    +0.000 A 
ATOM      9  C   UNL     1       1.048   3.533  18.477  0.00  0.00    +0.000 A 
ATOM     10  C   UNL     1       1.008   3.233  19.773  0.00  0.00    +0.000 A 
ATOM     11  C   UNL     1       2.080   3.259  20.721  0.00  0.00    +0.000 A 
ATOM     12  C   UNL     1       3.378   3.474  20.511  0.00  0.00    +0.000 A 
ATOM     13  C   UNL     1       4.139   3.777  19.279  0.00  0.00    +0.000 A 
ATOM     14  O   UNL     1       5.366   3.838  19.409  0.00  0.00    +0.000 OA
ENDBRANCH   4   7
BRANCH   1  15
ATOM     15  C   UNL     1       6.664   5.611  14.416  0.00  0.00    +0.000 C 
BRANCH  15  16
ATOM     16  C   UNL     1       7.573   4.885  13.390  0.00  0.00    +0.000 C 
BRANCH  16  21
ATOM     17  C   UNL     1       4.763   3.035  11.564  0.00  0.00    +0.000 A 
ATOM     18  C   UNL     1       5.466   1.959  11.022  0.00  0.00    +0.000 A 
ATOM     19  C   UNL     1       6.839   1.834  11.229  0.00  0.00    +0.000 A 
ATOM     20  C   UNL     1       7.520   2.791  11.978  0.00  0.00    +0.000 A 
ATOM     21  C   UNL     1       6.833   3.878  12.536  0.00  0.00    +0.000 A 
ATOM     22  C   UNL     1       5.449   3.987  12.321  0.00  0.00    +0.000 A 
BRANCH  17  24
ATOM     23  C   UNL     1       3.028   3.590  10.045  0.00  0.00    +0.000 C 
ATOM     24  O   UNL     1       3.419   3.054  11.305  0.00  0.00    +0.000 OA
ENDBRANCH  17  24
ENDBRANCH  16  21
BRANCH  16  25
ATOM     25  O   UNL     1       8.212   5.863  12.562  0.00  0.00    +0.000 OA
ATOM     26  H   UNL     1       8.417   6.631  13.118  0.00  0.00    +0.000 HD
ENDBRANCH  16  25
ENDBRANCH  15  16
ENDBRANCH   1  15
TORSDOF 6
ENDMDL
MODEL 7
REMARK VINA RESULT:      -7.3      4.310      6.631
REMARK  Name = 
REMARK  7 active torsions:
REMARK  status: ('A' for Active; 'I' for Inactive)
REMARK    1  A    between atoms: C_1  and  O_2
REMARK    2  A    between atoms: O_2  and  C_3
REMARK    3  A    between atoms: C_7  and  C_8
REMARK    4  A    between atoms: C_8  and  O_9
REMARK    5  A    between atoms: C_8  and  C_10
REMARK    6  A    between atoms: C_10  and  N_11
REMARK    7  A    between atoms: N_14  and  C_15
REMARK                            x       y       z     vdW  Elec       q    Type
REMARK                         _______ _______ _______ _____ _____    ______ ____
ROOT
ATOM      1  N   UNL     1       1.757   4.012  18.945  0.00  0.00    +0.000 NA
ATOM      2  C   UNL     1       1.162   4.483  20.215  0.00  0.00    +0.000 C 
ATOM      3  C   UNL     1       1.890   5.680  20.865  0.00  0.00    +0.000 C 
ATOM      4  N   UNL     1       2.058   6.792  19.910  0.00  0.00    +0.000 N 
ATOM      5  C   UNL     1       2.547   6.403  18.572  0.00  0.00    +0.000 C 
ATOM      6  C   UNL     1       1.790   5.174  18.018  0.00  0.00    +0.000 C 
ENDROOT
BRANCH   4   7
ATOM      7  C   UNL     1       1.555   8.080  20.188  0.00  0.00    +0.000 A 
ATOM      8  C   UNL     1       1.206   8.360  21.456  0.00  0.00    +0.000 A 
ATOM      9  C   UNL     1       0.706   9.546  22.085  0.00  0.00    +0.000 A 
ATOM     10  C   UNL     1       0.319  10.690  21.527  0.00  0.00    +0.000 A 
ATOM     11  C   UNL     1       0.306  11.038  20.139  0.00  0.00    +0.000 A 
ATOM     12  C   UNL     1       0.781  10.353  19.099  0.00  0.00    +0.000 A 
ATOM     13  C   UNL     1       1.437   9.030  19.010  0.00  0.00    +0.000 A 
ATOM     14  O   UNL     1       1.843   8.709  17.888  0.00  0.00    +0.000 OA
ENDBRANCH   4   7
BRANCH   1  15
ATOM     15  C   UNL     1       3.112   3.451  19.123  0.00  0.00    +0.000 C 
BRANCH  15  16
ATOM     16  C   UNL     1       3.926   3.188  17.828  0.00  0.00    +0.000 C 
BRANCH  16  21
ATOM     17  C   UNL     1       6.917   5.055  16.338  0.00  0.00    +0.000 A 
ATOM     18  C   UNL     1       7.459   5.639  17.483  0.00  0.00    +0.000 A 
ATOM     19  C   UNL     1       6.859   5.447  18.728  0.00  0.00    +0.000 A 
ATOM     20  C   UNL     1       5.707   4.670  18.832  0.00  0.00    +0.000 A 
ATOM     21  C   UNL     1       5.148   4.070  17.695  0.00  0.00    +0.000 A 
ATOM     22  C   UNL     1       5.767   4.271  16.451  0.00  0.00    +0.000 A 
BRANCH  17  24
ATOM     23  C   UNL     1       7.002   4.788  13.983  0.00  0.00    +0.000 C 
ATOM     24  O   UNL     1       7.591   5.304  15.173  0.00  0.00    +0.000 OA
ENDBRANCH  17  24
ENDBRANCH  16  21
BRANCH  16  25
ATOM     25  O   UNL     1       4.305   1.807  17.790  0.00  0.00    +0.000 OA
ATOM     26  H   UNL     1       3.494   1.278  17.853  0.00  0.00    +0.000 HD
ENDBRANCH  16  25
ENDBRANCH  15  16
ENDBRANCH   1  15
TORSDOF 6
ENDMDL
MODEL 8
REMARK VINA RESULT:      -7.2      4.125      6.696
REMARK  Name = 
REMARK  7 active torsions:
REMARK  status: ('A' for Active; 'I' for Inactive)
REMARK    1  A    between atoms: C_1  and  O_2
REMARK    2  A    between atoms: O_2  and  C_3
REMARK    3  A    between atoms: C_7  and  C_8
REMARK    4  A    between atoms: C_8  and  O_9
REMARK    5  A    between atoms: C_8  and  C_10
REMARK    6  A    between atoms: C_10  and  N_11
REMARK    7  A    between atoms: N_14  and  C_15
REMARK                            x       y       z     vdW  Elec       q    Type
REMARK                         _______ _______ _______ _____ _____    ______ ____
ROOT
ATOM      1  N   UNL     1       2.191   4.482  19.308  0.00  0.00    +0.000 NA
ATOM      2  C   UNL     1       1.284   5.040  20.336  0.00  0.00    +0.000 C 
ATOM      3  C   UNL     1       1.734   6.394  20.926  0.00  0.00    +0.000 C 
ATOM      4  N   UNL     1       2.007   7.381  19.863  0.00  0.00    +0.000 N 
ATOM      5  C   UNL     1       2.818   6.881  18.735  0.00  0.00    +0.000 C 
ATOM      6  C   UNL     1       2.322   5.505  18.236  0.00  0.00    +0.000 C 
ENDROOT
BRANCH   4   7
ATOM      7  C   UNL     1       1.337   8.621  19.825  0.00  0.00    +0.000 A 
ATOM      8  C   UNL     1       0.965   9.100  18.625  0.00  0.00    +0.000 A 
ATOM      9  C   UNL     1       0.254  10.279  18.229  0.00  0.00    +0.000 A 
ATOM     10  C   UNL     1      -0.126  11.317  18.970  0.00  0.00    +0.000 A 
ATOM     11  C   UNL     1       0.075  11.524  20.373  0.00  0.00    +0.000 A 
ATOM     12  C   UNL     1       0.580  10.687  21.279  0.00  0.00    +0.000 A 
ATOM     13  C   UNL     1       1.116   9.313  21.158  0.00  0.00    +0.000 A 
ATOM     14  O   UNL     1       1.435   8.768  22.220  0.00  0.00    +0.000 OA
ENDBRANCH   4   7
BRANCH   1  15
ATOM     15  C   UNL     1       3.517   4.123  19.849  0.00  0.00    +0.000 C 
BRANCH  15  16
ATOM     16  C   UNL     1       4.515   3.470  18.856  0.00  0.00    +0.000 C 
BRANCH  16  21
ATOM     17  C   UNL     1       6.930   5.319  16.532  0.00  0.00    +0.000 A 
ATOM     18  C   UNL     1       7.593   6.142  17.443  0.00  0.00    +0.000 A 
ATOM     19  C   UNL     1       7.257   6.114  18.797  0.00  0.00    +0.000 A 
ATOM     20  C   UNL     1       6.249   5.264  19.246  0.00  0.00    +0.000 A 
ATOM     21  C   UNL     1       5.573   4.426  18.349  0.00  0.00    +0.000 A 
ATOM     22  C   UNL     1       5.926   4.463  16.991  0.00  0.00    +0.000 A 
BRANCH  17  24
ATOM     23  C   UNL     1       6.654   4.615  14.284  0.00  0.00    +0.000 C 
ATOM     24  O   UNL     1       7.345   5.423  15.232  0.00  0.00    +0.000 OA
ENDBRANCH  17  24
ENDBRANCH  16  21
BRANCH  16  25
ATOM     25  O   UNL     1       5.129   2.341  19.489  0.00  0.00    +0.000 OA
ATOM     26  H   UNL     1       5.834   2.023  18.905  0.00  0.00    +0.000 HD
ENDBRANCH  16  25
ENDBRANCH  15  16
ENDBRANCH   1  15
TORSDOF 6
ENDMDL
MODEL 9
REMARK VINA RESULT:      -7.2      3.296      6.299
REMARK  Name = 
REMARK  7 active torsions:
REMARK  status: ('A' for Active; 'I' for Inactive)
REMARK    1  A    between atoms: C_1  and  O_2
REMARK    2  A    between atoms: O_2  and  C_3
REMARK    3  A    between atoms: C_7  and  C_8
REMARK    4  A    between atoms: C_8  and  O_9
REMARK    5  A    between atoms: C_8  and  C_10
REMARK    6  A    between atoms: C_10  and  N_11
REMARK    7  A    between atoms: N_14  and  C_15
REMARK                            x       y       z     vdW  Elec       q    Type
REMARK                         _______ _______ _______ _____ _____    ______ ____
ROOT
ATOM      1  N   UNL     1       1.733   3.757  18.990  0.00  0.00    +0.000 NA
ATOM      2  C   UNL     1       1.267   4.343  20.267  0.00  0.00    +0.000 C 
ATOM      3  C   UNL     1       2.075   5.568  20.747  0.00  0.00    +0.000 C 
ATOM      4  N   UNL     1       2.174   6.596  19.693  0.00  0.00    +0.000 N 
ATOM      5  C   UNL     1       2.529   6.089  18.352  0.00  0.00    +0.000 C 
ATOM      6  C   UNL     1       1.701   4.841  17.972  0.00  0.00    +0.000 C 
ENDROOT
BRANCH   4   7
ATOM      7  C   UNL     1       1.724   7.915  19.910  0.00  0.00    +0.000 A 
ATOM      8  C   UNL     1       1.267   8.231  21.134  0.00  0.00    +0.000 A 
ATOM      9  C   UNL     1       0.777   9.452  21.702  0.00  0.00    +0.000 A 
ATOM     10  C   UNL     1       0.517  10.611  21.099  0.00  0.00    +0.000 A 
ATOM     11  C   UNL     1       0.665  10.941  19.714  0.00  0.00    +0.000 A 
ATOM     12  C   UNL     1       1.200  10.215  18.733  0.00  0.00    +0.000 A 
ATOM     13  C   UNL     1       1.782   8.855  18.719  0.00  0.00    +0.000 A 
ATOM     14  O   UNL     1       2.279   8.496  17.647  0.00  0.00    +0.000 OA
ENDBRANCH   4   7
BRANCH   1  15
ATOM     15  C   UNL     1       3.088   3.176  19.088  0.00  0.00    +0.000 C 
BRANCH  15  16
ATOM     16  C   UNL     1       3.768   2.781  17.751  0.00  0.00    +0.000 C 
BRANCH  16  21
ATOM     17  C   UNL     1       6.703   5.228  17.975  0.00  0.00    +0.000 A 
ATOM     18  C   UNL     1       6.964   5.450  16.623  0.00  0.00    +0.000 A 
ATOM     19  C   UNL     1       6.211   4.806  15.641  0.00  0.00    +0.000 A 
ATOM     20  C   UNL     1       5.192   3.930  16.009  0.00  0.00    +0.000 A 
ATOM     21  C   UNL     1       4.909   3.695  17.362  0.00  0.00    +0.000 A 
ATOM     22  C   UNL     1       5.675   4.355  18.337  0.00  0.00    +0.000 A 
BRANCH  17  24
ATOM     23  C   UNL     1       8.022   7.156  18.385  0.00  0.00    +0.000 C 
ATOM     24  O   UNL     1       7.497   5.917  18.851  0.00  0.00    +0.000 OA
ENDBRANCH  17  24
ENDBRANCH  16  21
BRANCH  16  25
ATOM     25  O   UNL     1       4.227   1.427  17.846  0.00  0.00    +0.000 OA
ATOM     26  H   UNL     1       4.945   1.314  17.204  0.00  0.00    +0.000 HD
ENDBRANCH  16  25
ENDBRANCH  15  16
ENDBRANCH   1  15
TORSDOF 6
ENDMDL
