MODEL 1
REMARK VINA RESULT:      -8.8      0.000      0.000
REMARK  Name = 
REMARK  9 active torsions:
REMARK  status: ('A' for Active; 'I' for Inactive)
REMARK    1  A    between atoms: C_2  and  C_3
REMARK    2  A    between atoms: C_2  and  C_26
REMARK    3  A    between atoms: C_3  and  S_4
REMARK    4  A    between atoms: S_4  and  C_5
REMARK    5  A    between atoms: C_8  and  C_9
REMARK    6  A    between atoms: C_9  and  C_10
REMARK    7  A    between atoms: C_15  and  N_16
REMARK    8  A    between atoms: N_16  and  C_17
REMARK    9  A    between atoms: C_29  and  O_30
REMARK                            x       y       z     vdW  Elec       q    Type
REMARK                         _______ _______ _______ _____ _____    ______ ____
ROOT
ATOM      1  C   UNL     1       8.542   9.110  18.406  0.00  0.00    +0.000 A 
ATOM      2  N   UNL     1       7.732   9.165  17.367  0.00  0.00    +0.000 NA
ATOM      3  N   UNL     1       7.260   7.878  17.165  0.00  0.00    +0.000 NA
ATOM      4  C   UNL     1       7.826   7.126  18.089  0.00  0.00    +0.000 A 
ATOM      5  O   UNL     1       8.656   7.839  18.911  0.00  0.00    +0.000 OA
ENDROOT
BRANCH   1   6
ATOM      6  S   UNL     1       9.441  10.455  19.049  0.00  0.00    +0.000 S 
BRANCH   6   7
ATOM      7  C   UNL     1       8.754  11.859  18.118  0.00  0.00    +0.000 C 
BRANCH   7   9
ATOM      8  O   UNL     1      10.925  12.556  17.263  0.00  0.00    +0.000 OA
ATOM      9  C   UNL     1       9.815  12.862  17.694  0.00  0.00    +0.000 C 
BRANCH   9  10
ATOM     10  C   UNL     1       9.497  14.313  17.826  0.00  0.00    +0.000 A 
ATOM     11  C   UNL     1      10.489  15.304  17.823  0.00  0.00    +0.000 A 
ATOM     12  C   UNL     1      10.134  16.649  17.979  0.00  0.00    +0.000 A 
ATOM     13  C   UNL     1       8.794  16.995  18.131  0.00  0.00    +0.000 A 
ATOM     14  C   UNL     1       7.804  16.024  18.144  0.00  0.00    +0.000 A 
ATOM     15  C   UNL     1       8.154  14.673  17.997  0.00  0.00    +0.000 A 
BRANCH  13  16
ATOM     16  O   UNL     1       8.405  18.293  18.280  0.00  0.00    +0.000 OA
ATOM     17  H   UNL     1       8.921  18.853  17.678  0.00  0.00    +0.000 HD
ENDBRANCH  13  16
ENDBRANCH   9  10
ENDBRANCH   7   9
ENDBRANCH   6   7
ENDBRANCH   1   6
BRANCH   4  18
ATOM     18  C   UNL     1       7.648   5.667  18.372  0.00  0.00    +0.000 C 
BRANCH  18  19
ATOM     19  C   UNL     1       6.648   4.979  17.456  0.00  0.00    +0.000 A 
ATOM     20  C   UNL     1       7.077   4.710  16.136  0.00  0.00    +0.000 A 
ATOM     21  C   UNL     1       6.270   4.021  15.233  0.00  0.00    +0.000 A 
ATOM     22  C   UNL     1       5.029   3.556  15.640  0.00  0.00    +0.000 A 
ATOM     23  C   UNL     1       4.571   3.848  16.924  0.00  0.00    +0.000 A 
ATOM     24  C   UNL     1       5.328   4.622  17.825  0.00  0.00    +0.000 A 
BRANCH  24  25
ATOM     25  N   UNL     1       4.734   5.018  19.042  0.00  0.00    +0.000 N 
ATOM     26  H   UNL     1       4.833   6.002  19.264  0.00  0.00    +0.000 HD
BRANCH  25  27
ATOM     27  C   UNL     1       3.586   4.506  19.727  0.00  0.00    +0.000 A 
ATOM     28  C   UNL     1       2.454   5.348  19.855  0.00  0.00    +0.000 A 
ATOM     29 CL   UNL     1       2.520   7.010  19.362  0.00  0.00    +0.000 Cl
ATOM     30  C   UNL     1       1.236   4.886  20.371  0.00  0.00    +0.000 A 
ATOM     31  C   UNL     1       1.115   3.568  20.792  0.00  0.00    +0.000 A 
ATOM     32  C   UNL     1       2.218   2.724  20.714  0.00  0.00    +0.000 A 
ATOM     33  C   UNL     1       3.437   3.175  20.179  0.00  0.00    +0.000 A 
ATOM     34 CL   UNL     1       4.660   1.958  20.024  0.00  0.00    +0.000 Cl
ENDBRANCH  25  27
ENDBRANCH  24  25
ENDBRANCH  18  19
ENDBRANCH   4  18
TORSDOF 9
ENDMDL
MODEL 2
REMARK VINA RESULT:      -8.5      6.525      9.173
REMARK  Name = 
REMARK  9 active torsions:
REMARK  status: ('A' for Active; 'I' for Inactive)
REMARK    1  A    between atoms: C_2  and  C_3
REMARK    2  A    between atoms: C_2  and  C_26
REMARK    3  A    between atoms: C_3  and  S_4
REMARK    4  A    between atoms: S_4  and  C_5
REMARK    5  A    between atoms: C_8  and  C_9
REMARK    6  A    between atoms: C_9  and  C_10
REMARK    7  A    between atoms: C_15  and  N_16
REMARK    8  A    between atoms: N_16  and  C_17
REMARK    9  A    between atoms: C_29  and  O_30
REMARK                            x       y       z     vdW  Elec       q    Type
REMARK                         _______ _______ _______ _____ _____    ______ ____
ROOT
ATOM      1  C   UNL     1       0.956   9.510  18.491  0.00  0.00    +0.000 A 
ATOM      2  N   UNL     1       1.714   9.266  17.440  0.00  0.00    +0.000 NA
ATOM      3  N   UNL     1       2.507   8.179  17.767  0.00  0.00    +0.000 NA
ATOM      4  C   UNL     1       2.185   7.842  19.001  0.00  0.00    +0.000 A 
ATOM      5  O   UNL     1       1.209   8.645  19.527  0.00  0.00    +0.000 OA
ENDROOT
BRANCH   1   6
ATOM      6  S   UNL     1      -0.193  10.811  18.620  0.00  0.00    +0.000 S 
BRANCH   6   7
ATOM      7  C   UNL     1      -1.754   9.995  18.164  0.00  0.00    +0.000 C 
BRANCH   7   9
ATOM      8  O   UNL     1      -2.325  10.982  16.012  0.00  0.00    +0.000 OA
ATOM      9  C   UNL     1      -2.592  10.822  17.201  0.00  0.00    +0.000 C 
BRANCH   9  10
ATOM     10  C   UNL     1      -3.808  11.497  17.738  0.00  0.00    +0.000 A 
ATOM     11  C   UNL     1      -4.943  11.739  16.950  0.00  0.00    +0.000 A 
ATOM     12  C   UNL     1      -6.046  12.404  17.500  0.00  0.00    +0.000 A 
ATOM     13  C   UNL     1      -6.011  12.816  18.829  0.00  0.00    +0.000 A 
ATOM     14  C   UNL     1      -4.891  12.590  19.616  0.00  0.00    +0.000 A 
ATOM     15  C   UNL     1      -3.779  11.933  19.068  0.00  0.00    +0.000 A 
BRANCH  13  16
ATOM     16  O   UNL     1      -7.065  13.460  19.405  0.00  0.00    +0.000 OA
ATOM     17  H   UNL     1      -6.818  14.382  19.584  0.00  0.00    +0.000 HD
ENDBRANCH  13  16
ENDBRANCH   9  10
ENDBRANCH   7   9
ENDBRANCH   6   7
ENDBRANCH   1   6
BRANCH   4  18
ATOM     18  C   UNL     1       2.692   6.715  19.845  0.00  0.00    +0.000 C 
BRANCH  18  19
ATOM     19  C   UNL     1       2.184   5.347  19.416  0.00  0.00    +0.000 A 
ATOM     20  C   UNL     1       1.279   4.703  20.290  0.00  0.00    +0.000 A 
ATOM     21  C   UNL     1       0.696   3.480  19.966  0.00  0.00    +0.000 A 
ATOM     22  C   UNL     1       0.980   2.889  18.744  0.00  0.00    +0.000 A 
ATOM     23  C   UNL     1       1.903   3.487  17.887  0.00  0.00    +0.000 A 
ATOM     24  C   UNL     1       2.575   4.676  18.232  0.00  0.00    +0.000 A 
BRANCH  24  25
ATOM     25  N   UNL     1       3.615   5.133  17.394  0.00  0.00    +0.000 N 
ATOM     26  H   UNL     1       3.319   5.749  16.646  0.00  0.00    +0.000 HD
BRANCH  25  27
ATOM     27  C   UNL     1       4.995   5.384  17.678  0.00  0.00    +0.000 A 
ATOM     28  C   UNL     1       5.661   6.381  16.924  0.00  0.00    +0.000 A 
ATOM     29 CL   UNL     1       4.884   7.146  15.575  0.00  0.00    +0.000 Cl
ATOM     30  C   UNL     1       6.962   6.801  17.230  0.00  0.00    +0.000 A 
ATOM     31  C   UNL     1       7.647   6.226  18.293  0.00  0.00    +0.000 A 
ATOM     32  C   UNL     1       7.036   5.218  19.031  0.00  0.00    +0.000 A 
ATOM     33  C   UNL     1       5.723   4.805  18.743  0.00  0.00    +0.000 A 
ATOM     34 CL   UNL     1       5.064   3.645  19.847  0.00  0.00    +0.000 Cl
ENDBRANCH  25  27
ENDBRANCH  24  25
ENDBRANCH  18  19
ENDBRANCH   4  18
TORSDOF 9
ENDMDL
MODEL 3
REMARK VINA RESULT:      -8.5      1.382      1.529
REMARK  Name = 
REMARK  9 active torsions:
REMARK  status: ('A' for Active; 'I' for Inactive)
REMARK    1  A    between atoms: C_2  and  C_3
REMARK    2  A    between atoms: C_2  and  C_26
REMARK    3  A    between atoms: C_3  and  S_4
REMARK    4  A    between atoms: S_4  and  C_5
REMARK    5  A    between atoms: C_8  and  C_9
REMARK    6  A    between atoms: C_9  and  C_10
REMARK    7  A    between atoms: C_15  and  N_16
REMARK    8  A    between atoms: N_16  and  C_17
REMARK    9  A    between atoms: C_29  and  O_30
REMARK                            x       y       z     vdW  Elec       q    Type
REMARK                         _______ _______ _______ _____ _____    ______ ____
ROOT
ATOM      1  C   UNL     1       8.552   9.043  18.509  0.00  0.00    +0.000 A 
ATOM      2  N   UNL     1       7.831   9.119  17.407  0.00  0.00    +0.000 NA
ATOM      3  N   UNL     1       7.364   7.840  17.151  0.00  0.00    +0.000 NA
ATOM      4  C   UNL     1       7.843   7.071  18.109  0.00  0.00    +0.000 A 
ATOM      5  O   UNL     1       8.609   7.764  19.007  0.00  0.00    +0.000 OA
ENDROOT
BRANCH   1   6
ATOM      6  S   UNL     1       9.408  10.369  19.241  0.00  0.00    +0.000 S 
BRANCH   6   7
ATOM      7  C   UNL     1       9.278  11.663  17.969  0.00  0.00    +0.000 C 
BRANCH   7   9
ATOM      8  O   UNL     1      10.516  13.561  18.858  0.00  0.00    +0.000 OA
ATOM      9  C   UNL     1       9.439  13.066  18.534  0.00  0.00    +0.000 C 
BRANCH   9  10
ATOM     10  C   UNL     1       8.209  13.887  18.724  0.00  0.00    +0.000 A 
ATOM     11  C   UNL     1       7.926  14.549  19.928  0.00  0.00    +0.000 A 
ATOM     12  C   UNL     1       6.741  15.283  20.060  0.00  0.00    +0.000 A 
ATOM     13  C   UNL     1       5.853  15.356  18.990  0.00  0.00    +0.000 A 
ATOM     14  C   UNL     1       6.118  14.699  17.798  0.00  0.00    +0.000 A 
ATOM     15  C   UNL     1       7.299  13.954  17.662  0.00  0.00    +0.000 A 
BRANCH  13  16
ATOM     16  O   UNL     1       4.692  16.065  19.075  0.00  0.00    +0.000 OA
ATOM     17  H   UNL     1       3.955  15.509  18.771  0.00  0.00    +0.000 HD
ENDBRANCH  13  16
ENDBRANCH   9  10
ENDBRANCH   7   9
ENDBRANCH   6   7
ENDBRANCH   1   6
BRANCH   4  18
ATOM     18  C   UNL     1       7.625   5.611  18.359  0.00  0.00    +0.000 C 
BRANCH  18  19
ATOM     19  C   UNL     1       6.626   4.966  17.412  0.00  0.00    +0.000 A 
ATOM     20  C   UNL     1       7.096   4.637  16.120  0.00  0.00    +0.000 A 
ATOM     21  C   UNL     1       6.289   3.979  15.195  0.00  0.00    +0.000 A 
ATOM     22  C   UNL     1       5.002   3.605  15.553  0.00  0.00    +0.000 A 
ATOM     23  C   UNL     1       4.505   3.958  16.807  0.00  0.00    +0.000 A 
ATOM     24  C   UNL     1       5.270   4.704  17.725  0.00  0.00    +0.000 A 
BRANCH  24  25
ATOM     25  N   UNL     1       4.647   5.169  18.904  0.00  0.00    +0.000 N 
ATOM     26  H   UNL     1       4.642   6.176  19.014  0.00  0.00    +0.000 HD
BRANCH  25  27
ATOM     27  C   UNL     1       3.568   4.616  19.665  0.00  0.00    +0.000 A 
ATOM     28  C   UNL     1       2.426   5.425  19.886  0.00  0.00    +0.000 A 
ATOM     29 CL   UNL     1       2.410   7.093  19.411  0.00  0.00    +0.000 Cl
ATOM     30  C   UNL     1       1.263   4.924  20.485  0.00  0.00    +0.000 A 
ATOM     31  C   UNL     1       1.209   3.598  20.898  0.00  0.00    +0.000 A 
ATOM     32  C   UNL     1       2.326   2.786  20.728  0.00  0.00    +0.000 A 
ATOM     33  C   UNL     1       3.489   3.277  20.110  0.00  0.00    +0.000 A 
ATOM     34 CL   UNL     1       4.730   2.097  19.849  0.00  0.00    +0.000 Cl
ENDBRANCH  25  27
ENDBRANCH  24  25
ENDBRANCH  18  19
ENDBRANCH   4  18
TORSDOF 9
ENDMDL
MODEL 4
REMARK VINA RESULT:      -8.5      6.134      8.248
REMARK  Name = 
REMARK  9 active torsions:
REMARK  status: ('A' for Active; 'I' for Inactive)
REMARK    1  A    between atoms: C_2  and  C_3
REMARK    2  A    between atoms: C_2  and  C_26
REMARK    3  A    between atoms: C_3  and  S_4
REMARK    4  A    between atoms: S_4  and  C_5
REMARK    5  A    between atoms: C_8  and  C_9
REMARK    6  A    between atoms: C_9  and  C_10
REMARK    7  A    between atoms: C_15  and  N_16
REMARK    8  A    between atoms: N_16  and  C_17
REMARK    9  A    between atoms: C_29  and  O_30
REMARK                            x       y       z     vdW  Elec       q    Type
REMARK                         _______ _______ _______ _____ _____    ______ ____
ROOT
ATOM      1  C   UNL     1       1.123   9.530  18.764  0.00  0.00    +0.000 A 
ATOM      2  N   UNL     1       1.477   9.094  17.571  0.00  0.00    +0.000 NA
ATOM      3  N   UNL     1       2.152   7.900  17.770  0.00  0.00    +0.000 NA
ATOM      4  C   UNL     1       2.171   7.698  19.073  0.00  0.00    +0.000 A 
ATOM      5  O   UNL     1       1.541   8.693  19.769  0.00  0.00    +0.000 OA
ENDROOT
BRANCH   1   6
ATOM      6  S   UNL     1       0.288  11.024  19.079  0.00  0.00    +0.000 S 
BRANCH   6   7
ATOM      7  C   UNL     1       0.043  10.958  20.880  0.00  0.00    +0.000 C 
BRANCH   7   9
ATOM      8  O   UNL     1       1.117  13.067  21.451  0.00  0.00    +0.000 OA
ATOM      9  C   UNL     1       0.142  12.324  21.540  0.00  0.00    +0.000 C 
BRANCH   9  10
ATOM     10  C   UNL     1      -1.010  12.785  22.367  0.00  0.00    +0.000 A 
ATOM     11  C   UNL     1      -0.934  13.909  23.202  0.00  0.00    +0.000 A 
ATOM     12  C   UNL     1      -2.040  14.279  23.978  0.00  0.00    +0.000 A 
ATOM     13  C   UNL     1      -3.211  13.531  23.909  0.00  0.00    +0.000 A 
ATOM     14  C   UNL     1      -3.296  12.413  23.092  0.00  0.00    +0.000 A 
ATOM     15  C   UNL     1      -2.189  12.031  22.320  0.00  0.00    +0.000 A 
BRANCH  13  16
ATOM     16  O   UNL     1      -4.312  13.860  24.642  0.00  0.00    +0.000 OA
ATOM     17  H   UNL     1      -4.043  14.053  25.555  0.00  0.00    +0.000 HD
ENDBRANCH  13  16
ENDBRANCH   9  10
ENDBRANCH   7   9
ENDBRANCH   6   7
ENDBRANCH   1   6
BRANCH   4  18
ATOM     18  C   UNL     1       2.727   6.546  19.851  0.00  0.00    +0.000 C 
BRANCH  18  19
ATOM     19  C   UNL     1       2.208   5.190  19.399  0.00  0.00    +0.000 A 
ATOM     20  C   UNL     1       1.299   4.538  20.264  0.00  0.00    +0.000 A 
ATOM     21  C   UNL     1       0.706   3.325  19.919  0.00  0.00    +0.000 A 
ATOM     22  C   UNL     1       0.983   2.753  18.687  0.00  0.00    +0.000 A 
ATOM     23  C   UNL     1       1.909   3.358  17.839  0.00  0.00    +0.000 A 
ATOM     24  C   UNL     1       2.591   4.536  18.203  0.00  0.00    +0.000 A 
BRANCH  24  25
ATOM     25  N   UNL     1       3.634   4.999  17.371  0.00  0.00    +0.000 N 
ATOM     26  H   UNL     1       3.334   5.577  16.595  0.00  0.00    +0.000 HD
BRANCH  25  27
ATOM     27  C   UNL     1       4.998   5.308  17.676  0.00  0.00    +0.000 A 
ATOM     28  C   UNL     1       5.607   6.385  16.986  0.00  0.00    +0.000 A 
ATOM     29 CL   UNL     1       4.790   7.186  15.683  0.00  0.00    +0.000 Cl
ATOM     30  C   UNL     1       6.883   6.858  17.322  0.00  0.00    +0.000 A 
ATOM     31  C   UNL     1       7.598   6.258  18.351  0.00  0.00    +0.000 A 
ATOM     32  C   UNL     1       7.044   5.175  19.025  0.00  0.00    +0.000 A 
ATOM     33  C   UNL     1       5.756   4.707  18.706  0.00  0.00    +0.000 A 
ATOM     34 CL   UNL     1       5.163   3.447  19.735  0.00  0.00    +0.000 Cl
ENDBRANCH  25  27
ENDBRANCH  24  25
ENDBRANCH  18  19
ENDBRANCH   4  18
TORSDOF 9
ENDMDL
MODEL 5
REMARK VINA RESULT:      -8.4      1.643      1.868
REMARK  Name = 
REMARK  9 active torsions:
REMARK  status: ('A' for Active; 'I' for Inactive)
REMARK    1  A    between atoms: C_2  and  C_3
REMARK    2  A    between atoms: C_2  and  C_26
REMARK    3  A    between atoms: C_3  and  S_4
REMARK    4  A    between atoms: S_4  and  C_5
REMARK    5  A    between atoms: C_8  and  C_9
REMARK    6  A    between atoms: C_9  and  C_10
REMARK    7  A    between atoms: C_15  and  N_16
REMARK    8  A    between atoms: N_16  and  C_17
REMARK    9  A    between atoms: C_29  and  O_30
REMARK                            x       y       z     vdW  Elec       q    Type
REMARK                         _______ _______ _______ _____ _____    ______ ____
ROOT
ATOM      1  C   UNL     1       8.533   9.184  18.471  0.00  0.00    +0.000 A 
ATOM      2  N   UNL     1       7.745   9.234  17.415  0.00  0.00    +0.000 NA
ATOM      3  N   UNL     1       7.298   7.942  17.193  0.00  0.00    +0.000 NA
ATOM      4  C   UNL     1       7.854   7.192  18.123  0.00  0.00    +0.000 A 
ATOM      5  O   UNL     1       8.655   7.910  18.969  0.00  0.00    +0.000 OA
ENDROOT
BRANCH   1   6
ATOM      6  S   UNL     1       9.397  10.537  19.144  0.00  0.00    +0.000 S 
BRANCH   6   7
ATOM      7  C   UNL     1       9.118  11.832  17.898  0.00  0.00    +0.000 C 
BRANCH   7   9
ATOM      8  O   UNL     1      10.685  13.659  17.529  0.00  0.00    +0.000 OA
ATOM      9  C   UNL     1       9.824  13.136  18.233  0.00  0.00    +0.000 C 
BRANCH   9  10
ATOM     10  C   UNL     1       9.463  13.817  19.510  0.00  0.00    +0.000 A 
ATOM     11  C   UNL     1       8.163  14.268  19.779  0.00  0.00    +0.000 A 
ATOM     12  C   UNL     1       7.887  14.927  20.983  0.00  0.00    +0.000 A 
ATOM     13  C   UNL     1       8.906  15.125  21.910  0.00  0.00    +0.000 A 
ATOM     14  C   UNL     1      10.198  14.691  21.652  0.00  0.00    +0.000 A 
ATOM     15  C   UNL     1      10.483  14.038  20.443  0.00  0.00    +0.000 A 
BRANCH  13  16
ATOM     16  O   UNL     1       8.679  15.756  23.097  0.00  0.00    +0.000 OA
ATOM     17  H   UNL     1       8.887  15.149  23.826  0.00  0.00    +0.000 HD
ENDBRANCH  13  16
ENDBRANCH   9  10
ENDBRANCH   7   9
ENDBRANCH   6   7
ENDBRANCH   1   6
BRANCH   4  18
ATOM     18  C   UNL     1       7.692   5.728  18.391  0.00  0.00    +0.000 C 
BRANCH  18  19
ATOM     19  C   UNL     1       6.692   5.041  17.474  0.00  0.00    +0.000 A 
ATOM     20  C   UNL     1       7.091   4.846  16.132  0.00  0.00    +0.000 A 
ATOM     21  C   UNL     1       6.285   4.165  15.222  0.00  0.00    +0.000 A 
ATOM     22  C   UNL     1       5.076   3.634  15.643  0.00  0.00    +0.000 A 
ATOM     23  C   UNL     1       4.645   3.852  16.951  0.00  0.00    +0.000 A 
ATOM     24  C   UNL     1       5.399   4.615  17.864  0.00  0.00    +0.000 A 
BRANCH  24  25
ATOM     25  N   UNL     1       4.826   4.935  19.114  0.00  0.00    +0.000 N 
ATOM     26  H   UNL     1       5.002   5.880  19.434  0.00  0.00    +0.000 HD
BRANCH  25  27
ATOM     27  C   UNL     1       3.635   4.451  19.741  0.00  0.00    +0.000 A 
ATOM     28  C   UNL     1       2.510   5.311  19.789  0.00  0.00    +0.000 A 
ATOM     29 CL   UNL     1       2.627   6.962  19.270  0.00  0.00    +0.000 Cl
ATOM     30  C   UNL     1       1.258   4.876  20.244  0.00  0.00    +0.000 A 
ATOM     31  C   UNL     1       1.094   3.567  20.682  0.00  0.00    +0.000 A 
ATOM     32  C   UNL     1       2.187   2.707  20.683  0.00  0.00    +0.000 A 
ATOM     33  C   UNL     1       3.441   3.131  20.209  0.00  0.00    +0.000 A 
ATOM     34 CL   UNL     1       4.653   1.896  20.146  0.00  0.00    +0.000 Cl
ENDBRANCH  25  27
ENDBRANCH  24  25
ENDBRANCH  18  19
ENDBRANCH   4  18
TORSDOF 9
ENDMDL
MODEL 6
REMARK VINA RESULT:      -8.3      6.157      8.002
REMARK  Name = 
REMARK  9 active torsions:
REMARK  status: ('A' for Active; 'I' for Inactive)
REMARK    1  A    between atoms: C_2  and  C_3
REMARK    2  A    between atoms: C_2  and  C_26
REMARK    3  A    between atoms: C_3  and  S_4
REMARK    4  A    between atoms: S_4  and  C_5
REMARK    5  A    between atoms: C_8  and  C_9
REMARK    6  A    between atoms: C_9  and  C_10
REMARK    7  A    between atoms: C_15  and  N_16
REMARK    8  A    between atoms: N_16  and  C_17
REMARK    9  A    between atoms: C_29  and  O_30
REMARK                            x       y       z     vdW  Elec       q    Type
REMARK                         _______ _______ _______ _____ _____    ______ ____
ROOT
ATOM      1  C   UNL     1       1.560   9.048  19.200  0.00  0.00    +0.000 A 
ATOM      2  N   UNL     1       1.534   9.003  17.882  0.00  0.00    +0.000 NA
ATOM      3  N   UNL     1       2.262   7.885  17.510  0.00  0.00    +0.000 NA
ATOM      4  C   UNL     1       2.691   7.332  18.627  0.00  0.00    +0.000 A 
ATOM      5  O   UNL     1       2.288   8.017  19.742  0.00  0.00    +0.000 OA
ENDROOT
BRANCH   1   6
ATOM      6  S   UNL     1       0.833  10.292  20.176  0.00  0.00    +0.000 S 
BRANCH   6   7
ATOM      7  C   UNL     1      -0.943  10.003  19.910  0.00  0.00    +0.000 C 
BRANCH   7   9
ATOM      8  O   UNL     1      -1.644  12.310  19.572  0.00  0.00    +0.000 OA
ATOM      9  C   UNL     1      -1.625  11.147  19.176  0.00  0.00    +0.000 C 
BRANCH   9  10
ATOM     10  C   UNL     1      -2.331  10.834  17.900  0.00  0.00    +0.000 A 
ATOM     11  C   UNL     1      -1.813   9.939  16.954  0.00  0.00    +0.000 A 
ATOM     12  C   UNL     1      -2.506   9.705  15.760  0.00  0.00    +0.000 A 
ATOM     13  C   UNL     1      -3.711  10.360  15.523  0.00  0.00    +0.000 A 
ATOM     14  C   UNL     1      -4.230  11.255  16.448  0.00  0.00    +0.000 A 
ATOM     15  C   UNL     1      -3.536  11.500  17.641  0.00  0.00    +0.000 A 
BRANCH  13  16
ATOM     16  O   UNL     1      -4.421  10.157  14.377  0.00  0.00    +0.000 OA
ATOM     17  H   UNL     1      -4.096  10.760  13.688  0.00  0.00    +0.000 HD
ENDBRANCH  13  16
ENDBRANCH   9  10
ENDBRANCH   7   9
ENDBRANCH   6   7
ENDBRANCH   1   6
BRANCH   4  18
ATOM     18  C   UNL     1       3.486   6.080  18.828  0.00  0.00    +0.000 C 
BRANCH  18  19
ATOM     19  C   UNL     1       4.227   5.614  17.585  0.00  0.00    +0.000 A 
ATOM     20  C   UNL     1       4.792   6.620  16.768  0.00  0.00    +0.000 A 
ATOM     21  C   UNL     1       5.552   6.305  15.643  0.00  0.00    +0.000 A 
ATOM     22  C   UNL     1       5.791   4.976  15.328  0.00  0.00    +0.000 A 
ATOM     23  C   UNL     1       5.208   3.970  16.097  0.00  0.00    +0.000 A 
ATOM     24  C   UNL     1       4.361   4.262  17.183  0.00  0.00    +0.000 A 
BRANCH  24  25
ATOM     25  N   UNL     1       3.673   3.200  17.811  0.00  0.00    +0.000 N 
ATOM     26  H   UNL     1       4.073   2.283  17.654  0.00  0.00    +0.000 HD
BRANCH  25  27
ATOM     27  C   UNL     1       2.917   3.172  19.025  0.00  0.00    +0.000 A 
ATOM     28  C   UNL     1       1.555   3.561  18.972  0.00  0.00    +0.000 A 
ATOM     29 CL   UNL     1       0.874   4.224  17.522  0.00  0.00    +0.000 Cl
ATOM     30  C   UNL     1       0.698   3.422  20.071  0.00  0.00    +0.000 A 
ATOM     31  C   UNL     1       1.179   2.904  21.268  0.00  0.00    +0.000 A 
ATOM     32  C   UNL     1       2.520   2.548  21.365  0.00  0.00    +0.000 A 
ATOM     33  C   UNL     1       3.381   2.665  20.260  0.00  0.00    +0.000 A 
ATOM     34 CL   UNL     1       4.978   2.044  20.511  0.00  0.00    +0.000 Cl
ENDBRANCH  25  27
ENDBRANCH  24  25
ENDBRANCH  18  19
ENDBRANCH   4  18
TORSDOF 9
ENDMDL
MODEL 7
REMARK VINA RESULT:      -8.2      6.035      7.669
REMARK  Name = 
REMARK  9 active torsions:
REMARK  status: ('A' for Active; 'I' for Inactive)
REMARK    1  A    between atoms: C_2  and  C_3
REMARK    2  A    between atoms: C_2  and  C_26
REMARK    3  A    between atoms: C_3  and  S_4
REMARK    4  A    between atoms: S_4  and  C_5
REMARK    5  A    between atoms: C_8  and  C_9
REMARK    6  A    between atoms: C_9  and  C_10
REMARK    7  A    between atoms: C_15  and  N_16
REMARK    8  A    between atoms: N_16  and  C_17
REMARK    9  A    between atoms: C_29  and  O_30
REMARK                            x       y       z     vdW  Elec       q    Type
REMARK                         _______ _______ _______ _____ _____    ______ ____
ROOT
ATOM      1  C   UNL     1       2.225   8.028  18.782  0.00  0.00    +0.000 A 
ATOM      2  N   UNL     1       1.830   7.511  19.929  0.00  0.00    +0.000 NA
ATOM      3  N   UNL     1       2.706   6.478  20.220  0.00  0.00    +0.000 NA
ATOM      4  C   UNL     1       3.568   6.431  19.224  0.00  0.00    +0.000 A 
ATOM      5  O   UNL     1       3.324   7.383  18.271  0.00  0.00    +0.000 OA
ENDROOT
BRANCH   1   6
ATOM      6  S   UNL     1       1.431   9.330  17.942  0.00  0.00    +0.000 S 
BRANCH   6   7
ATOM      7  C   UNL     1       0.369  10.036  19.240  0.00  0.00    +0.000 C 
BRANCH   7   9
ATOM      8  O   UNL     1       0.284  12.422  18.761  0.00  0.00    +0.000 OA
ATOM      9  C   UNL     1      -0.293  11.338  18.817  0.00  0.00    +0.000 C 
BRANCH   9  10
ATOM     10  C   UNL     1      -1.742  11.302  18.466  0.00  0.00    +0.000 A 
ATOM     11  C   UNL     1      -2.705  12.041  19.169  0.00  0.00    +0.000 A 
ATOM     12  C   UNL     1      -4.055  11.946  18.813  0.00  0.00    +0.000 A 
ATOM     13  C   UNL     1      -4.433  11.122  17.757  0.00  0.00    +0.000 A 
ATOM     14  C   UNL     1      -3.492  10.380  17.059  0.00  0.00    +0.000 A 
ATOM     15  C   UNL     1      -2.138  10.463  17.417  0.00  0.00    +0.000 A 
BRANCH  13  16
ATOM     16  O   UNL     1      -5.736  11.005  17.373  0.00  0.00    +0.000 OA
ATOM     17  H   UNL     1      -5.862  10.156  16.919  0.00  0.00    +0.000 HD
ENDBRANCH  13  16
ENDBRANCH   9  10
ENDBRANCH   7   9
ENDBRANCH   6   7
ENDBRANCH   1   6
BRANCH   4  18
ATOM     18  C   UNL     1       4.757   5.542  19.032  0.00  0.00    +0.000 C 
BRANCH  18  19
ATOM     19  C   UNL     1       4.952   5.075  17.598  0.00  0.00    +0.000 A 
ATOM     20  C   UNL     1       5.423   6.036  16.675  0.00  0.00    +0.000 A 
ATOM     21  C   UNL     1       5.704   5.702  15.352  0.00  0.00    +0.000 A 
ATOM     22  C   UNL     1       5.553   4.390  14.931  0.00  0.00    +0.000 A 
ATOM     23  C   UNL     1       5.051   3.436  15.814  0.00  0.00    +0.000 A 
ATOM     24  C   UNL     1       4.671   3.768  17.129  0.00  0.00    +0.000 A 
BRANCH  24  25
ATOM     25  N   UNL     1       4.016   2.793  17.912  0.00  0.00    +0.000 N 
ATOM     26  H   UNL     1       4.492   1.901  17.968  0.00  0.00    +0.000 HD
BRANCH  25  27
ATOM     27  C   UNL     1       3.171   2.936  19.058  0.00  0.00    +0.000 A 
ATOM     28  C   UNL     1       1.863   3.445  18.863  0.00  0.00    +0.000 A 
ATOM     29 CL   UNL     1       1.362   4.047  17.315  0.00  0.00    +0.000 Cl
ATOM     30  C   UNL     1       0.915   3.478  19.894  0.00  0.00    +0.000 A 
ATOM     31  C   UNL     1       1.251   3.018  21.162  0.00  0.00    +0.000 A 
ATOM     32  C   UNL     1       2.538   2.547  21.397  0.00  0.00    +0.000 A 
ATOM     33  C   UNL     1       3.488   2.492  20.362  0.00  0.00    +0.000 A 
ATOM     34 CL   UNL     1       4.991   1.746  20.791  0.00  0.00    +0.000 Cl
ENDBRANCH  25  27
ENDBRANCH  24  25
ENDBRANCH  18  19
ENDBRANCH   4  18
TORSDOF 9
ENDMDL
MODEL 8
REMARK VINA RESULT:      -8.2      5.852      8.347
REMARK  Name = 
REMARK  9 active torsions:
REMARK  status: ('A' for Active; 'I' for Inactive)
REMARK    1  A    between atoms: C_2  and  C_3
REMARK    2  A    between atoms: C_2  and  C_26
REMARK    3  A    between atoms: C_3  and  S_4
REMARK    4  A    between atoms: S_4  and  C_5
REMARK    5  A    between atoms: C_8  and  C_9
REMARK    6  A    between atoms: C_9  and  C_10
REMARK    7  A    between atoms: C_15  and  N_16
REMARK    8  A    between atoms: N_16  and  C_17
REMARK    9  A    between atoms: C_29  and  O_30
REMARK                            x       y       z     vdW  Elec       q    Type
REMARK                         _______ _______ _______ _____ _____    ______ ____
ROOT
ATOM      1  C   UNL     1       1.375   9.542  18.660  0.00  0.00    +0.000 A 
ATOM      2  N   UNL     1       1.710   9.081  17.471  0.00  0.00    +0.000 NA
ATOM      3  N   UNL     1       2.331   7.861  17.679  0.00  0.00    +0.000 NA
ATOM      4  C   UNL     1       2.341   7.667  18.983  0.00  0.00    +0.000 A 
ATOM      5  O   UNL     1       1.754   8.694  19.672  0.00  0.00    +0.000 OA
ENDROOT
BRANCH   1   6
ATOM      6  S   UNL     1       0.607  11.074  18.963  0.00  0.00    +0.000 S 
BRANCH   6   7
ATOM      7  C   UNL     1       0.776  11.240  20.767  0.00  0.00    +0.000 C 
BRANCH   7   9
ATOM      8  O   UNL     1      -0.519   9.497  21.867  0.00  0.00    +0.000 OA
ATOM      9  C   UNL     1      -0.413  10.673  21.527  0.00  0.00    +0.000 C 
BRANCH   9  10
ATOM     10  C   UNL     1      -1.532  11.599  21.864  0.00  0.00    +0.000 A 
ATOM     11  C   UNL     1      -2.131  12.434  20.910  0.00  0.00    +0.000 A 
ATOM     12  C   UNL     1      -3.159  13.305  21.290  0.00  0.00    +0.000 A 
ATOM     13  C   UNL     1      -3.585  13.331  22.615  0.00  0.00    +0.000 A 
ATOM     14  C   UNL     1      -2.995  12.517  23.570  0.00  0.00    +0.000 A 
ATOM     15  C   UNL     1      -1.958  11.649  23.197  0.00  0.00    +0.000 A 
BRANCH  13  16
ATOM     16  O   UNL     1      -4.587  14.160  23.025  0.00  0.00    +0.000 OA
ATOM     17  H   UNL     1      -5.140  13.695  23.674  0.00  0.00    +0.000 HD
ENDBRANCH  13  16
ENDBRANCH   9  10
ENDBRANCH   7   9
ENDBRANCH   6   7
ENDBRANCH   1   6
BRANCH   4  18
ATOM     18  C   UNL     1       2.844   6.498  19.770  0.00  0.00    +0.000 C 
BRANCH  18  19
ATOM     19  C   UNL     1       2.276   5.161  19.319  0.00  0.00    +0.000 A 
ATOM     20  C   UNL     1       1.333   4.550  20.176  0.00  0.00    +0.000 A 
ATOM     21  C   UNL     1       0.695   3.360  19.831  0.00  0.00    +0.000 A 
ATOM     22  C   UNL     1       0.962   2.772  18.605  0.00  0.00    +0.000 A 
ATOM     23  C   UNL     1       1.921   3.336  17.763  0.00  0.00    +0.000 A 
ATOM     24  C   UNL     1       2.645   4.486  18.130  0.00  0.00    +0.000 A 
BRANCH  24  25
ATOM     25  N   UNL     1       3.714   4.904  17.307  0.00  0.00    +0.000 N 
ATOM     26  H   UNL     1       3.438   5.426  16.483  0.00  0.00    +0.000 HD
BRANCH  25  27
ATOM     27  C   UNL     1       5.063   5.246  17.639  0.00  0.00    +0.000 A 
ATOM     28  C   UNL     1       5.673   6.315  16.936  0.00  0.00    +0.000 A 
ATOM     29 CL   UNL     1       4.876   7.066  15.591  0.00  0.00    +0.000 Cl
ATOM     30  C   UNL     1       6.930   6.820  17.293  0.00  0.00    +0.000 A 
ATOM     31  C   UNL     1       7.628   6.259  18.356  0.00  0.00    +0.000 A 
ATOM     32  C   UNL     1       7.075   5.184  19.044  0.00  0.00    +0.000 A 
ATOM     33  C   UNL     1       5.805   4.686  18.704  0.00  0.00    +0.000 A 
ATOM     34 CL   UNL     1       5.206   3.442  19.750  0.00  0.00    +0.000 Cl
ENDBRANCH  25  27
ENDBRANCH  24  25
ENDBRANCH  18  19
ENDBRANCH   4  18
TORSDOF 9
ENDMDL
MODEL 9
REMARK VINA RESULT:      -8.2      6.144      7.704
REMARK  Name = 
REMARK  9 active torsions:
REMARK  status: ('A' for Active; 'I' for Inactive)
REMARK    1  A    between atoms: C_2  and  C_3
REMARK    2  A    between atoms: C_2  and  C_26
REMARK    3  A    between atoms: C_3  and  S_4
REMARK    4  A    between atoms: S_4  and  C_5
REMARK    5  A    between atoms: C_8  and  C_9
REMARK    6  A    between atoms: C_9  and  C_10
REMARK    7  A    between atoms: C_15  and  N_16
REMARK    8  A    between atoms: N_16  and  C_17
REMARK    9  A    between atoms: C_29  and  O_30
REMARK                            x       y       z     vdW  Elec       q    Type
REMARK                         _______ _______ _______ _____ _____    ______ ____
ROOT
ATOM      1  C   UNL     1       1.845   7.843  19.924  0.00  0.00    +0.000 A 
ATOM      2  N   UNL     1       1.931   8.243  18.670  0.00  0.00    +0.000 NA
ATOM      3  N   UNL     1       2.959   7.516  18.092  0.00  0.00    +0.000 NA
ATOM      4  C   UNL     1       3.435   6.731  19.037  0.00  0.00    +0.000 A 
ATOM      5  O   UNL     1       2.780   6.885  20.229  0.00  0.00    +0.000 OA
ENDROOT
BRANCH   1   6
ATOM      6  S   UNL     1       0.738   8.479  21.106  0.00  0.00    +0.000 S 
BRANCH   6   7
ATOM      7  C   UNL     1       0.044   9.925  20.247  0.00  0.00    +0.000 C 
BRANCH   7   9
ATOM      8  O   UNL     1       1.061  11.773  21.464  0.00  0.00    +0.000 OA
ATOM      9  C   UNL     1       0.046  11.180  21.107  0.00  0.00    +0.000 C 
BRANCH   9  10
ATOM     10  C   UNL     1      -1.270  11.715  21.562  0.00  0.00    +0.000 A 
ATOM     11  C   UNL     1      -2.152  12.377  20.697  0.00  0.00    +0.000 A 
ATOM     12  C   UNL     1      -3.362  12.885  21.186  0.00  0.00    +0.000 A 
ATOM     13  C   UNL     1      -3.683  12.722  22.530  0.00  0.00    +0.000 A 
ATOM     14  C   UNL     1      -2.816  12.076  23.399  0.00  0.00    +0.000 A 
ATOM     15  C   UNL     1      -1.598  11.574  22.916  0.00  0.00    +0.000 A 
BRANCH  13  16
ATOM     16  O   UNL     1      -4.853  13.195  23.046  0.00  0.00    +0.000 OA
ATOM     17  H   UNL     1      -5.575  12.588  22.813  0.00  0.00    +0.000 HD
ENDBRANCH  13  16
ENDBRANCH   9  10
ENDBRANCH   7   9
ENDBRANCH   6   7
ENDBRANCH   1   6
BRANCH   4  18
ATOM     18  C   UNL     1       4.520   5.702  18.966  0.00  0.00    +0.000 C 
BRANCH  18  19
ATOM     19  C   UNL     1       4.794   5.191  17.560  0.00  0.00    +0.000 A 
ATOM     20  C   UNL     1       5.191   6.152  16.602  0.00  0.00    +0.000 A 
ATOM     21  C   UNL     1       5.535   5.787  15.302  0.00  0.00    +0.000 A 
ATOM     22  C   UNL     1       5.523   4.448  14.941  0.00  0.00    +0.000 A 
ATOM     23  C   UNL     1       5.094   3.490  15.859  0.00  0.00    +0.000 A 
ATOM     24  C   UNL     1       4.653   3.844  17.149  0.00  0.00    +0.000 A 
BRANCH  24  25
ATOM     25  N   UNL     1       4.076   2.845  17.964  0.00  0.00    +0.000 N 
ATOM     26  H   UNL     1       4.684   2.062  18.173  0.00  0.00    +0.000 HD
BRANCH  25  27
ATOM     27  C   UNL     1       3.082   2.943  18.989  0.00  0.00    +0.000 A 
ATOM     28  C   UNL     1       3.426   2.512  20.294  0.00  0.00    +0.000 A 
ATOM     29 CL   UNL     1       4.938   1.722  20.603  0.00  0.00    +0.000 Cl
ATOM     30  C   UNL     1       2.576   2.708  21.391  0.00  0.00    +0.000 A 
ATOM     31  C   UNL     1       1.345   3.328  21.215  0.00  0.00    +0.000 A 
ATOM     32  C   UNL     1       0.961   3.730  19.940  0.00  0.00    +0.000 A 
ATOM     33  C   UNL     1       1.817   3.554  18.838  0.00  0.00    +0.000 A 
ATOM     34 CL   UNL     1       1.244   4.239  17.354  0.00  0.00    +0.000 Cl
ENDBRANCH  25  27
ENDBRANCH  24  25
ENDBRANCH  18  19
ENDBRANCH   4  18
TORSDOF 9
ENDMDL
