MODEL 1
REMARK VINA RESULT:      -8.5      0.000      0.000
REMARK  Name = 
REMARK  6 active torsions:
REMARK  status: ('A' for Active; 'I' for Inactive)
REMARK    1  A    between atoms: C_1  and  N_2
REMARK    2  A    between atoms: C_6  and  S_7
REMARK    3  A    between atoms: S_7  and  C_8
REMARK    4  A    between atoms: C_15  and  C_16
REMARK    5  A    between atoms: C_20  and  S_21
REMARK    6  A    between atoms: S_21  and  C_22
REMARK                            x       y       z     vdW  Elec       q    Type
REMARK                         _______ _______ _______ _____ _____    ______ ____
ROOT
ATOM      1  C   UNL     1       4.572   4.532  19.521  0.00  0.00    +0.000 A 
ATOM      2  N   UNL     1       5.320   3.404  19.565  0.00  0.00    +0.000 NA
ATOM      3  C   UNL     1       4.749   2.267  19.965  0.00  0.00    +0.000 A 
ATOM      4  N   UNL     1       3.503   2.118  20.383  0.00  0.00    +0.000 NA
ATOM      5  C   UNL     1       2.782   3.249  20.324  0.00  0.00    +0.000 A 
ATOM      6  S   UNL     1       1.162   3.194  20.827  0.00  0.00    +0.000 S 
ATOM      7  C   UNL     1       0.933   4.825  20.429  0.00  0.00    +0.000 A 
ATOM      8  C   UNL     1       2.073   5.446  19.934  0.00  0.00    +0.000 A 
ATOM      9  C   UNL     1       3.203   4.506  19.887  0.00  0.00    +0.000 A 
ENDROOT
BRANCH   8  10
ATOM     10  C   UNL     1       1.959   6.862  19.536  0.00  0.00    +0.000 A 
ATOM     11  C   UNL     1       2.297   7.286  18.248  0.00  0.00    +0.000 A 
ATOM     12  C   UNL     1       2.221   8.633  17.877  0.00  0.00    +0.000 A 
ATOM     13  C   UNL     1       1.687   9.569  18.754  0.00  0.00    +0.000 A 
ATOM     14  C   UNL     1       1.256   9.149  20.010  0.00  0.00    +0.000 A 
ATOM     15  C   UNL     1       1.416   7.817  20.415  0.00  0.00    +0.000 A 
BRANCH  14  16
ATOM     16  S   UNL     1       0.365  10.278  21.055  0.00  0.00    +0.000 S 
ATOM     17  C   UNL     1      -0.103   9.290  22.444  0.00  0.00    +0.000 C 
ATOM     18  O   UNL     1       1.306  11.282  21.510  0.00  0.00    +0.000 OA
ATOM     19  O   UNL     1      -0.838  10.665  20.345  0.00  0.00    +0.000 OA
ENDBRANCH  14  16
ENDBRANCH   8  10
BRANCH   1  20
ATOM     20  S   UNL     1       5.443   5.927  18.883  0.00  0.00    +0.000 S 
BRANCH  20  26
ATOM     21  C   UNL     1       5.277   5.919  15.574  0.00  0.00    +0.000 C 
ATOM     22  N   UNL     1       6.293   5.274  16.356  0.00  0.00    +0.000 N 
ATOM     23  N   UNL     1       7.329   4.666  15.748  0.00  0.00    +0.000 NA
ATOM     24  N   UNL     1       8.098   4.218  16.733  0.00  0.00    +0.000 NA
ATOM     25  N   UNL     1       7.561   4.529  17.958  0.00  0.00    +0.000 NA
ATOM     26  C   UNL     1       6.443   5.170  17.708  0.00  0.00    +0.000 A 
ENDBRANCH  20  26
ENDBRANCH   1  20
TORSDOF 4
ENDMDL
MODEL 2
REMARK VINA RESULT:      -8.3      0.837      1.156
REMARK  Name = 
REMARK  6 active torsions:
REMARK  status: ('A' for Active; 'I' for Inactive)
REMARK    1  A    between atoms: C_1  and  N_2
REMARK    2  A    between atoms: C_6  and  S_7
REMARK    3  A    between atoms: S_7  and  C_8
REMARK    4  A    between atoms: C_15  and  C_16
REMARK    5  A    between atoms: C_20  and  S_21
REMARK    6  A    between atoms: S_21  and  C_22
REMARK                            x       y       z     vdW  Elec       q    Type
REMARK                         _______ _______ _______ _____ _____    ______ ____
ROOT
ATOM      1  C   UNL     1       4.637   4.492  19.488  0.00  0.00    +0.000 A 
ATOM      2  N   UNL     1       5.371   3.356  19.558  0.00  0.00    +0.000 NA
ATOM      3  C   UNL     1       4.795   2.243  20.014  0.00  0.00    +0.000 A 
ATOM      4  N   UNL     1       3.557   2.127  20.465  0.00  0.00    +0.000 NA
ATOM      5  C   UNL     1       2.850   3.265  20.380  0.00  0.00    +0.000 A 
ATOM      6  S   UNL     1       1.241   3.251  20.921  0.00  0.00    +0.000 S 
ATOM      7  C   UNL     1       1.024   4.869  20.466  0.00  0.00    +0.000 A 
ATOM      8  C   UNL     1       2.160   5.455  19.922  0.00  0.00    +0.000 A 
ATOM      9  C   UNL     1       3.277   4.498  19.885  0.00  0.00    +0.000 A 
ENDROOT
BRANCH   8  10
ATOM     10  C   UNL     1       2.055   6.855  19.474  0.00  0.00    +0.000 A 
ATOM     11  C   UNL     1       2.329   7.220  18.152  0.00  0.00    +0.000 A 
ATOM     12  C   UNL     1       2.261   8.552  17.730  0.00  0.00    +0.000 A 
ATOM     13  C   UNL     1       1.798   9.536  18.596  0.00  0.00    +0.000 A 
ATOM     14  C   UNL     1       1.431   9.177  19.891  0.00  0.00    +0.000 A 
ATOM     15  C   UNL     1       1.585   7.858  20.341  0.00  0.00    +0.000 A 
BRANCH  14  16
ATOM     16  S   UNL     1       0.627  10.367  20.936  0.00  0.00    +0.000 S 
ATOM     17  C   UNL     1       1.242  11.921  20.362  0.00  0.00    +0.000 C 
ATOM     18  O   UNL     1      -0.793  10.309  20.647  0.00  0.00    +0.000 OA
ATOM     19  O   UNL     1       1.113  10.156  22.286  0.00  0.00    +0.000 OA
ENDBRANCH  14  16
ENDBRANCH   8  10
BRANCH   1  20
ATOM     20  S   UNL     1       5.511   5.850  18.777  0.00  0.00    +0.000 S 
BRANCH  20  26
ATOM     21  C   UNL     1       4.299   4.268  16.131  0.00  0.00    +0.000 C 
ATOM     22  N   UNL     1       5.692   4.478  16.406  0.00  0.00    +0.000 N 
ATOM     23  N   UNL     1       6.623   4.090  15.515  0.00  0.00    +0.000 NA
ATOM     24  N   UNL     1       7.784   4.462  16.039  0.00  0.00    +0.000 NA
ATOM     25  N   UNL     1       7.603   5.076  17.254  0.00  0.00    +0.000 NA
ATOM     26  C   UNL     1       6.308   5.068  17.471  0.00  0.00    +0.000 A 
ENDBRANCH  20  26
ENDBRANCH   1  20
TORSDOF 4
ENDMDL
MODEL 3
REMARK VINA RESULT:      -8.3      1.328      1.565
REMARK  Name = 
REMARK  6 active torsions:
REMARK  status: ('A' for Active; 'I' for Inactive)
REMARK    1  A    between atoms: C_1  and  N_2
REMARK    2  A    between atoms: C_6  and  S_7
REMARK    3  A    between atoms: S_7  and  C_8
REMARK    4  A    between atoms: C_15  and  C_16
REMARK    5  A    between atoms: C_20  and  S_21
REMARK    6  A    between atoms: S_21  and  C_22
REMARK                            x       y       z     vdW  Elec       q    Type
REMARK                         _______ _______ _______ _____ _____    ______ ____
ROOT
ATOM      1  C   UNL     1       3.624   3.764  18.086  0.00  0.00    +0.000 A 
ATOM      2  N   UNL     1       4.035   2.526  17.726  0.00  0.00    +0.000 NA
ATOM      3  C   UNL     1       3.518   1.467  18.351  0.00  0.00    +0.000 A 
ATOM      4  N   UNL     1       2.651   1.491  19.349  0.00  0.00    +0.000 NA
ATOM      5  C   UNL     1       2.255   2.729  19.682  0.00  0.00    +0.000 A 
ATOM      6  S   UNL     1       1.136   2.899  20.947  0.00  0.00    +0.000 S 
ATOM      7  C   UNL     1       1.087   4.581  20.742  0.00  0.00    +0.000 A 
ATOM      8  C   UNL     1       1.926   5.046  19.737  0.00  0.00    +0.000 A 
ATOM      9  C   UNL     1       2.653   3.935  19.104  0.00  0.00    +0.000 A 
ENDROOT
BRANCH   8  10
ATOM     10  C   UNL     1       1.929   6.497  19.471  0.00  0.00    +0.000 A 
ATOM     11  C   UNL     1       2.215   7.003  18.199  0.00  0.00    +0.000 A 
ATOM     12  C   UNL     1       2.250   8.380  17.950  0.00  0.00    +0.000 A 
ATOM     13  C   UNL     1       1.879   9.279  18.943  0.00  0.00    +0.000 A 
ATOM     14  C   UNL     1       1.500   8.788  20.190  0.00  0.00    +0.000 A 
ATOM     15  C   UNL     1       1.552   7.415  20.468  0.00  0.00    +0.000 A 
BRANCH  14  16
ATOM     16  S   UNL     1       0.808   9.896  21.395  0.00  0.00    +0.000 S 
ATOM     17  C   UNL     1       1.074  11.499  20.701  0.00  0.00    +0.000 C 
ATOM     18  O   UNL     1      -0.621   9.652  21.437  0.00  0.00    +0.000 OA
ATOM     19  O   UNL     1       1.610   9.782  22.598  0.00  0.00    +0.000 OA
ENDBRANCH  14  16
ENDBRANCH   8  10
BRANCH   1  20
ATOM     20  S   UNL     1       4.327   5.051  17.105  0.00  0.00    +0.000 S 
BRANCH  20  26
ATOM     21  C   UNL     1       6.574   4.304  14.788  0.00  0.00    +0.000 C 
ATOM     22  N   UNL     1       6.838   4.422  16.194  0.00  0.00    +0.000 N 
ATOM     23  N   UNL     1       8.098   4.305  16.657  0.00  0.00    +0.000 NA
ATOM     24  N   UNL     1       8.008   4.506  17.966  0.00  0.00    +0.000 NA
ATOM     25  N   UNL     1       6.709   4.745  18.340  0.00  0.00    +0.000 NA
ATOM     26  C   UNL     1       5.999   4.677  17.239  0.00  0.00    +0.000 A 
ENDBRANCH  20  26
ENDBRANCH   1  20
TORSDOF 4
ENDMDL
MODEL 4
REMARK VINA RESULT:      -8.2      1.714      1.984
REMARK  Name = 
REMARK  6 active torsions:
REMARK  status: ('A' for Active; 'I' for Inactive)
REMARK    1  A    between atoms: C_1  and  N_2
REMARK    2  A    between atoms: C_6  and  S_7
REMARK    3  A    between atoms: S_7  and  C_8
REMARK    4  A    between atoms: C_15  and  C_16
REMARK    5  A    between atoms: C_20  and  S_21
REMARK    6  A    between atoms: S_21  and  C_22
REMARK                            x       y       z     vdW  Elec       q    Type
REMARK                         _______ _______ _______ _____ _____    ______ ____
ROOT
ATOM      1  C   UNL     1       3.943   3.987  18.041  0.00  0.00    +0.000 A 
ATOM      2  N   UNL     1       4.478   2.836  17.571  0.00  0.00    +0.000 NA
ATOM      3  C   UNL     1       3.952   1.674  17.960  0.00  0.00    +0.000 A 
ATOM      4  N   UNL     1       2.959   1.510  18.818  0.00  0.00    +0.000 NA
ATOM      5  C   UNL     1       2.442   2.666  19.264  0.00  0.00    +0.000 A 
ATOM      6  S   UNL     1       1.155   2.595  20.368  0.00  0.00    +0.000 S 
ATOM      7  C   UNL     1       1.026   4.285  20.398  0.00  0.00    +0.000 A 
ATOM      8  C   UNL     1       1.960   4.932  19.599  0.00  0.00    +0.000 A 
ATOM      9  C   UNL     1       2.835   3.961  18.924  0.00  0.00    +0.000 A 
ENDROOT
BRANCH   8  10
ATOM     10  C   UNL     1       1.904   6.404  19.544  0.00  0.00    +0.000 A 
ATOM     11  C   UNL     1       2.143   7.098  18.354  0.00  0.00    +0.000 A 
ATOM     12  C   UNL     1       2.123   8.497  18.304  0.00  0.00    +0.000 A 
ATOM     13  C   UNL     1       1.742   9.229  19.422  0.00  0.00    +0.000 A 
ATOM     14  C   UNL     1       1.409   8.551  20.592  0.00  0.00    +0.000 A 
ATOM     15  C   UNL     1       1.516   7.155  20.669  0.00  0.00    +0.000 A 
BRANCH  14  16
ATOM     16  S   UNL     1       0.704   9.447  21.955  0.00  0.00    +0.000 S 
ATOM     17  C   UNL     1       0.356  11.043  21.279  0.00  0.00    +0.000 C 
ATOM     18  O   UNL     1      -0.557   8.812  22.285  0.00  0.00    +0.000 OA
ATOM     19  O   UNL     1       1.740   9.593  22.959  0.00  0.00    +0.000 OA
ENDBRANCH  14  16
ENDBRANCH   8  10
BRANCH   1  20
ATOM     20  S   UNL     1       4.686   5.436  17.362  0.00  0.00    +0.000 S 
BRANCH  20  26
ATOM     21  C   UNL     1       7.415   7.279  17.005  0.00  0.00    +0.000 C 
ATOM     22  N   UNL     1       7.149   6.393  18.103  0.00  0.00    +0.000 N 
ATOM     23  N   UNL     1       8.008   6.323  19.138  0.00  0.00    +0.000 NA
ATOM     24  N   UNL     1       7.460   5.464  19.988  0.00  0.00    +0.000 NA
ATOM     25  N   UNL     1       6.267   4.985  19.505  0.00  0.00    +0.000 NA
ATOM     26  C   UNL     1       6.096   5.559  18.337  0.00  0.00    +0.000 A 
ENDBRANCH  20  26
ENDBRANCH   1  20
TORSDOF 4
ENDMDL
MODEL 5
REMARK VINA RESULT:      -8.1      1.328      1.748
REMARK  Name = 
REMARK  6 active torsions:
REMARK  status: ('A' for Active; 'I' for Inactive)
REMARK    1  A    between atoms: C_1  and  N_2
REMARK    2  A    between atoms: C_6  and  S_7
REMARK    3  A    between atoms: S_7  and  C_8
REMARK    4  A    between atoms: C_15  and  C_16
REMARK    5  A    between atoms: C_20  and  S_21
REMARK    6  A    between atoms: S_21  and  C_22
REMARK                            x       y       z     vdW  Elec       q    Type
REMARK                         _______ _______ _______ _____ _____    ______ ____
ROOT
ATOM      1  C   UNL     1       3.632   3.857  17.961  0.00  0.00    +0.000 A 
ATOM      2  N   UNL     1       4.046   2.628  17.573  0.00  0.00    +0.000 NA
ATOM      3  C   UNL     1       3.609   1.559  18.241  0.00  0.00    +0.000 A 
ATOM      4  N   UNL     1       2.825   1.565  19.306  0.00  0.00    +0.000 NA
ATOM      5  C   UNL     1       2.425   2.795  19.667  0.00  0.00    +0.000 A 
ATOM      6  S   UNL     1       1.409   2.942  21.018  0.00  0.00    +0.000 S 
ATOM      7  C   UNL     1       1.299   4.621  20.812  0.00  0.00    +0.000 A 
ATOM      8  C   UNL     1       2.041   5.103  19.741  0.00  0.00    +0.000 A 
ATOM      9  C   UNL     1       2.743   4.007  19.054  0.00  0.00    +0.000 A 
ENDROOT
BRANCH   8  10
ATOM     10  C   UNL     1       1.983   6.551  19.471  0.00  0.00    +0.000 A 
ATOM     11  C   UNL     1       2.401   7.081  18.247  0.00  0.00    +0.000 A 
ATOM     12  C   UNL     1       2.378   8.458  17.998  0.00  0.00    +0.000 A 
ATOM     13  C   UNL     1       1.821   9.326  18.929  0.00  0.00    +0.000 A 
ATOM     14  C   UNL     1       1.314   8.807  20.118  0.00  0.00    +0.000 A 
ATOM     15  C   UNL     1       1.418   7.439  20.406  0.00  0.00    +0.000 A 
BRANCH  14  16
ATOM     16  S   UNL     1       0.397   9.861  21.215  0.00  0.00    +0.000 S 
ATOM     17  C   UNL     1      -0.638  10.801  20.135  0.00  0.00    +0.000 C 
ATOM     18  O   UNL     1      -0.452   9.010  22.026  0.00  0.00    +0.000 OA
ATOM     19  O   UNL     1       1.344  10.764  21.839  0.00  0.00    +0.000 OA
ENDBRANCH  14  16
ENDBRANCH   8  10
BRANCH   1  20
ATOM     20  S   UNL     1       4.219   5.157  16.923  0.00  0.00    +0.000 S 
BRANCH  20  26
ATOM     21  C   UNL     1       6.336   5.414  19.457  0.00  0.00    +0.000 C 
ATOM     22  N   UNL     1       6.679   4.991  18.129  0.00  0.00    +0.000 N 
ATOM     23  N   UNL     1       7.931   4.581  17.852  0.00  0.00    +0.000 NA
ATOM     24  N   UNL     1       7.906   4.222  16.574  0.00  0.00    +0.000 NA
ATOM     25  N   UNL     1       6.656   4.404  16.035  0.00  0.00    +0.000 NA
ATOM     26  C   UNL     1       5.915   4.889  17.003  0.00  0.00    +0.000 A 
ENDBRANCH  20  26
ENDBRANCH   1  20
TORSDOF 4
ENDMDL
MODEL 6
REMARK VINA RESULT:      -8.0      1.138      1.158
REMARK  Name = 
REMARK  6 active torsions:
REMARK  status: ('A' for Active; 'I' for Inactive)
REMARK    1  A    between atoms: C_1  and  N_2
REMARK    2  A    between atoms: C_6  and  S_7
REMARK    3  A    between atoms: S_7  and  C_8
REMARK    4  A    between atoms: C_15  and  C_16
REMARK    5  A    between atoms: C_20  and  S_21
REMARK    6  A    between atoms: S_21  and  C_22
REMARK                            x       y       z     vdW  Elec       q    Type
REMARK                         _______ _______ _______ _____ _____    ______ ____
ROOT
ATOM      1  C   UNL     1       3.548   3.850  18.018  0.00  0.00    +0.000 A 
ATOM      2  N   UNL     1       3.920   2.591  17.687  0.00  0.00    +0.000 NA
ATOM      3  C   UNL     1       3.474   1.571  18.423  0.00  0.00    +0.000 A 
ATOM      4  N   UNL     1       2.720   1.656  19.506  0.00  0.00    +0.000 NA
ATOM      5  C   UNL     1       2.361   2.914  19.809  0.00  0.00    +0.000 A 
ATOM      6  S   UNL     1       1.385   3.161  21.175  0.00  0.00    +0.000 S 
ATOM      7  C   UNL     1       1.312   4.828  20.881  0.00  0.00    +0.000 A 
ATOM      8  C   UNL     1       2.037   5.232  19.766  0.00  0.00    +0.000 A 
ATOM      9  C   UNL     1       2.693   4.083  19.123  0.00  0.00    +0.000 A 
ENDROOT
BRANCH   8  10
ATOM     10  C   UNL     1       2.010   6.665  19.419  0.00  0.00    +0.000 A 
ATOM     11  C   UNL     1       2.451   7.121  18.174  0.00  0.00    +0.000 A 
ATOM     12  C   UNL     1       2.457   8.483  17.852  0.00  0.00    +0.000 A 
ATOM     13  C   UNL     1       1.905   9.409  18.729  0.00  0.00    +0.000 A 
ATOM     14  C   UNL     1       1.374   8.963  19.937  0.00  0.00    +0.000 A 
ATOM     15  C   UNL     1       1.450   7.611  20.298  0.00  0.00    +0.000 A 
BRANCH  14  16
ATOM     16  S   UNL     1       0.464  10.090  20.965  0.00  0.00    +0.000 S 
ATOM     17  C   UNL     1       0.037   9.123  22.381  0.00  0.00    +0.000 C 
ATOM     18  O   UNL     1       1.382  11.129  21.388  0.00  0.00    +0.000 OA
ATOM     19  O   UNL     1      -0.757  10.429  20.260  0.00  0.00    +0.000 OA
ENDBRANCH  14  16
ENDBRANCH   8  10
BRANCH   1  20
ATOM     20  S   UNL     1       4.141   5.075  16.895  0.00  0.00    +0.000 S 
BRANCH  20  26
ATOM     21  C   UNL     1       6.227   4.213  14.471  0.00  0.00    +0.000 C 
ATOM     22  N   UNL     1       6.593   4.437  15.841  0.00  0.00    +0.000 N 
ATOM     23  N   UNL     1       7.886   4.382  16.213  0.00  0.00    +0.000 NA
ATOM     24  N   UNL     1       7.889   4.674  17.508  0.00  0.00    +0.000 NA
ATOM     25  N   UNL     1       6.616   4.910  17.963  0.00  0.00    +0.000 NA
ATOM     26  C   UNL     1       5.827   4.748  16.926  0.00  0.00    +0.000 A 
ENDBRANCH  20  26
ENDBRANCH   1  20
TORSDOF 4
ENDMDL
MODEL 7
REMARK VINA RESULT:      -7.9      1.295      1.720
REMARK  Name = 
REMARK  6 active torsions:
REMARK  status: ('A' for Active; 'I' for Inactive)
REMARK    1  A    between atoms: C_1  and  N_2
REMARK    2  A    between atoms: C_6  and  S_7
REMARK    3  A    between atoms: S_7  and  C_8
REMARK    4  A    between atoms: C_15  and  C_16
REMARK    5  A    between atoms: C_20  and  S_21
REMARK    6  A    between atoms: S_21  and  C_22
REMARK                            x       y       z     vdW  Elec       q    Type
REMARK                         _______ _______ _______ _____ _____    ______ ____
ROOT
ATOM      1  C   UNL     1       3.971   4.942  18.059  0.00  0.00    +0.000 A 
ATOM      2  N   UNL     1       4.554   3.764  17.735  0.00  0.00    +0.000 NA
ATOM      3  C   UNL     1       4.275   2.683  18.465  0.00  0.00    +0.000 A 
ATOM      4  N   UNL     1       3.501   2.638  19.537  0.00  0.00    +0.000 NA
ATOM      5  C   UNL     1       2.931   3.817  19.833  0.00  0.00    +0.000 A 
ATOM      6  S   UNL     1       1.907   3.894  21.185  0.00  0.00    +0.000 S 
ATOM      7  C   UNL     1       1.560   5.527  20.887  0.00  0.00    +0.000 A 
ATOM      8  C   UNL     1       2.223   6.048  19.784  0.00  0.00    +0.000 A 
ATOM      9  C   UNL     1       3.072   5.026  19.151  0.00  0.00    +0.000 A 
ENDROOT
BRANCH   8  10
ATOM     10  C   UNL     1       1.960   7.456  19.435  0.00  0.00    +0.000 A 
ATOM     11  C   UNL     1       2.165   7.936  18.138  0.00  0.00    +0.000 A 
ATOM     12  C   UNL     1       1.948   9.279  17.810  0.00  0.00    +0.000 A 
ATOM     13  C   UNL     1       1.402  10.146  18.748  0.00  0.00    +0.000 A 
ATOM     14  C   UNL     1       1.104   9.664  20.020  0.00  0.00    +0.000 A 
ATOM     15  C   UNL     1       1.405   8.342  20.376  0.00  0.00    +0.000 A 
BRANCH  14  16
ATOM     16  S   UNL     1       0.200  10.689  21.157  0.00  0.00    +0.000 S 
ATOM     17  C   UNL     1      -1.122  11.341  20.183  0.00  0.00    +0.000 C 
ATOM     18  O   UNL     1      -0.369   9.818  22.167  0.00  0.00    +0.000 OA
ATOM     19  O   UNL     1       1.070  11.785  21.536  0.00  0.00    +0.000 OA
ENDBRANCH  14  16
ENDBRANCH   8  10
BRANCH   1  20
ATOM     20  S   UNL     1       4.365   6.251  16.944  0.00  0.00    +0.000 S 
BRANCH  20  26
ATOM     21  C   UNL     1       7.521   5.823  17.855  0.00  0.00    +0.000 C 
ATOM     22  N   UNL     1       6.954   5.406  16.604  0.00  0.00    +0.000 N 
ATOM     23  N   UNL     1       7.698   4.712  15.722  0.00  0.00    +0.000 NA
ATOM     24  N   UNL     1       6.882   4.445  14.710  0.00  0.00    +0.000 NA
ATOM     25  N   UNL     1       5.632   4.965  14.935  0.00  0.00    +0.000 NA
ATOM     26  C   UNL     1       5.696   5.563  16.101  0.00  0.00    +0.000 A 
ENDBRANCH  20  26
ENDBRANCH   1  20
TORSDOF 4
ENDMDL
MODEL 8
REMARK VINA RESULT:      -7.9      1.461      1.926
REMARK  Name = 
REMARK  6 active torsions:
REMARK  status: ('A' for Active; 'I' for Inactive)
REMARK    1  A    between atoms: C_1  and  N_2
REMARK    2  A    between atoms: C_6  and  S_7
REMARK    3  A    between atoms: S_7  and  C_8
REMARK    4  A    between atoms: C_15  and  C_16
REMARK    5  A    between atoms: C_20  and  S_21
REMARK    6  A    between atoms: S_21  and  C_22
REMARK                            x       y       z     vdW  Elec       q    Type
REMARK                         _______ _______ _______ _____ _____    ______ ____
ROOT
ATOM      1  C   UNL     1       3.917   4.645  17.819  0.00  0.00    +0.000 A 
ATOM      2  N   UNL     1       4.504   3.578  17.227  0.00  0.00    +0.000 NA
ATOM      3  C   UNL     1       4.135   2.351  17.595  0.00  0.00    +0.000 A 
ATOM      4  N   UNL     1       3.261   2.044  18.540  0.00  0.00    +0.000 NA
ATOM      5  C   UNL     1       2.689   3.118  19.107  0.00  0.00    +0.000 A 
ATOM      6  S   UNL     1       1.543   2.862  20.331  0.00  0.00    +0.000 S 
ATOM      7  C   UNL     1       1.258   4.527  20.478  0.00  0.00    +0.000 A 
ATOM      8  C   UNL     1       2.034   5.305  19.628  0.00  0.00    +0.000 A 
ATOM      9  C   UNL     1       2.920   4.462  18.809  0.00  0.00    +0.000 A 
ENDROOT
BRANCH   8  10
ATOM     10  C   UNL     1       1.834   6.765  19.670  0.00  0.00    +0.000 A 
ATOM     11  C   UNL     1       1.993   7.555  18.527  0.00  0.00    +0.000 A 
ATOM     12  C   UNL     1       1.835   8.945  18.569  0.00  0.00    +0.000 A 
ATOM     13  C   UNL     1       1.395   9.562  19.734  0.00  0.00    +0.000 A 
ATOM     14  C   UNL     1       1.142   8.780  20.858  0.00  0.00    +0.000 A 
ATOM     15  C   UNL     1       1.386   7.400  20.843  0.00  0.00    +0.000 A 
BRANCH  14  16
ATOM     16  S   UNL     1       0.366   9.512  22.279  0.00  0.00    +0.000 S 
ATOM     17  C   UNL     1      -0.033  11.150  21.748  0.00  0.00    +0.000 C 
ATOM     18  O   UNL     1      -0.874   8.798  22.512  0.00  0.00    +0.000 OA
ATOM     19  O   UNL     1       1.370   9.603  23.321  0.00  0.00    +0.000 OA
ENDBRANCH  14  16
ENDBRANCH   8  10
BRANCH   1  20
ATOM     20  S   UNL     1       4.442   6.193  17.157  0.00  0.00    +0.000 S 
BRANCH  20  26
ATOM     21  C   UNL     1       7.416   5.217  18.241  0.00  0.00    +0.000 C 
ATOM     22  N   UNL     1       7.017   5.289  16.864  0.00  0.00    +0.000 N 
ATOM     23  N   UNL     1       7.851   4.866  15.895  0.00  0.00    +0.000 NA
ATOM     24  N   UNL     1       7.177   5.022  14.762  0.00  0.00    +0.000 NA
ATOM     25  N   UNL     1       5.929   5.542  14.998  0.00  0.00    +0.000 NA
ATOM     26  C   UNL     1       5.850   5.712  16.297  0.00  0.00    +0.000 A 
ENDBRANCH  20  26
ENDBRANCH   1  20
TORSDOF 4
ENDMDL
MODEL 9
REMARK VINA RESULT:      -7.9      0.651      1.205
REMARK  Name = 
REMARK  6 active torsions:
REMARK  status: ('A' for Active; 'I' for Inactive)
REMARK    1  A    between atoms: C_1  and  N_2
REMARK    2  A    between atoms: C_6  and  S_7
REMARK    3  A    between atoms: S_7  and  C_8
REMARK    4  A    between atoms: C_15  and  C_16
REMARK    5  A    between atoms: C_20  and  S_21
REMARK    6  A    between atoms: S_21  and  C_22
REMARK                            x       y       z     vdW  Elec       q    Type
REMARK                         _______ _______ _______ _____ _____    ______ ____
ROOT
ATOM      1  C   UNL     1       4.542   4.631  19.371  0.00  0.00    +0.000 A 
ATOM      2  N   UNL     1       5.297   3.508  19.385  0.00  0.00    +0.000 NA
ATOM      3  C   UNL     1       4.768   2.381  19.864  0.00  0.00    +0.000 A 
ATOM      4  N   UNL     1       3.562   2.241  20.388  0.00  0.00    +0.000 NA
ATOM      5  C   UNL     1       2.832   3.367  20.356  0.00  0.00    +0.000 A 
ATOM      6  S   UNL     1       1.259   3.321  20.993  0.00  0.00    +0.000 S 
ATOM      7  C   UNL     1       0.988   4.939  20.567  0.00  0.00    +0.000 A 
ATOM      8  C   UNL     1       2.080   5.549  19.962  0.00  0.00    +0.000 A 
ATOM      9  C   UNL     1       3.208   4.611  19.849  0.00  0.00    +0.000 A 
ENDROOT
BRANCH   8  10
ATOM     10  C   UNL     1       1.925   6.951  19.534  0.00  0.00    +0.000 A 
ATOM     11  C   UNL     1       2.221   7.352  18.228  0.00  0.00    +0.000 A 
ATOM     12  C   UNL     1       2.106   8.687  17.827  0.00  0.00    +0.000 A 
ATOM     13  C   UNL     1       1.574   9.633  18.695  0.00  0.00    +0.000 A 
ATOM     14  C   UNL     1       1.185   9.235  19.972  0.00  0.00    +0.000 A 
ATOM     15  C   UNL     1       1.384   7.916  20.404  0.00  0.00    +0.000 A 
BRANCH  14  16
ATOM     16  S   UNL     1       0.297  10.369  21.012  0.00  0.00    +0.000 S 
ATOM     17  C   UNL     1      -0.253   9.366  22.360  0.00  0.00    +0.000 C 
ATOM     18  O   UNL     1       1.256  11.328  21.525  0.00  0.00    +0.000 OA
ATOM     19  O   UNL     1      -0.866  10.815  20.271  0.00  0.00    +0.000 OA
ENDBRANCH  14  16
ENDBRANCH   8  10
BRANCH   1  20
ATOM     20  S   UNL     1       5.349   6.010  18.622  0.00  0.00    +0.000 S 
BRANCH  20  26
ATOM     21  C   UNL     1       8.004   4.404  17.463  0.00  0.00    +0.000 C 
ATOM     22  N   UNL     1       6.814   4.690  16.713  0.00  0.00    +0.000 N 
ATOM     23  N   UNL     1       6.679   4.225  15.457  0.00  0.00    +0.000 NA
ATOM     24  N   UNL     1       5.473   4.617  15.067  0.00  0.00    +0.000 NA
ATOM     25  N   UNL     1       4.841   5.328  16.058  0.00  0.00    +0.000 NA
ATOM     26  C   UNL     1       5.686   5.374  17.061  0.00  0.00    +0.000 A 
ENDBRANCH  20  26
ENDBRANCH   1  20
TORSDOF 4
ENDMDL
