MODEL 1
REMARK VINA RESULT:      -7.7      0.000      0.000
REMARK  Name = 
REMARK  7 active torsions:
REMARK  status: ('A' for Active; 'I' for Inactive)
REMARK    1  A    between atoms: C_1  and  O_2
REMARK    2  A    between atoms: O_2  and  C_3
REMARK    3  A    between atoms: C_9  and  C_10
REMARK    4  A    between atoms: C_10  and  O_11
REMARK    5  A    between atoms: O_11  and  C_12
REMARK    6  A    between atoms: C_19  and  C_20
REMARK    7  A    between atoms: C_20  and  O_22
REMARK                            x       y       z     vdW  Elec       q    Type
REMARK                         _______ _______ _______ _____ _____    ______ ____
ROOT
ATOM      1  C   UNL     1       1.847   4.511  20.442  0.00  0.00    +0.000 A 
ATOM      2  C   UNL     1       1.372   3.522  21.282  0.00  0.00    +0.000 A 
ATOM      3  C   UNL     1       2.329   2.501  21.253  0.00  0.00    +0.000 A 
ATOM      4  N   UNL     1       3.358   2.787  20.458  0.00  0.00    +0.000 NA
ATOM      5  N   UNL     1       3.010   3.972  19.860  0.00  0.00    +0.000 N 
ATOM      6  C   UNL     1       3.847   4.495  18.821  0.00  0.00    +0.000 A 
ATOM      7  C   UNL     1       5.205   4.210  18.855  0.00  0.00    +0.000 A 
ATOM      8  C   UNL     1       6.047   4.936  18.006  0.00  0.00    +0.000 A 
ATOM      9  C   UNL     1       5.521   5.915  17.164  0.00  0.00    +0.000 A 
ATOM     10  C   UNL     1       4.154   6.061  17.125  0.00  0.00    +0.000 A 
ATOM     11  N   UNL     1       3.321   5.343  17.906  0.00  0.00    +0.000 NA
ENDROOT
BRANCH   8  12
ATOM     12  C   UNL     1       7.516   4.772  18.039  0.00  0.00    +0.000 C 
ATOM     13  O   UNL     1       8.178   4.987  19.039  0.00  0.00    +0.000 OA
BRANCH  12  14
ATOM     14  O   UNL     1       8.049   4.416  16.855  0.00  0.00    +0.000 OA
ATOM     15  H   UNL     1       8.116   3.456  16.692  0.00  0.00    +0.000 HD
ENDBRANCH  12  14
ENDBRANCH   8  12
BRANCH   1  16
ATOM     16  O   UNL     1       1.297   5.731  20.289  0.00  0.00    +0.000 OA
BRANCH  16  17
ATOM     17  C   UNL     1       1.998   6.874  20.784  0.00  0.00    +0.000 C 
BRANCH  17  24
ATOM     18  C   UNL     1       0.944   9.169  21.046  0.00  0.00    +0.000 A 
ATOM     19  C   UNL     1       0.657  10.433  20.528  0.00  0.00    +0.000 A 
ATOM     20  C   UNL     1       0.948  10.719  19.198  0.00  0.00    +0.000 A 
ATOM     21 CL   UNL     1       0.623  12.288  18.569  0.00  0.00    +0.000 Cl
ATOM     22  C   UNL     1       1.525   9.758  18.368  0.00  0.00    +0.000 A 
ATOM     23  C   UNL     1       1.812   8.497  18.877  0.00  0.00    +0.000 A 
ATOM     24  C   UNL     1       1.513   8.185  20.211  0.00  0.00    +0.000 A 
BRANCH  18  26
ATOM     25  C   UNL     1      -0.136   9.612  23.124  0.00  0.00    +0.000 C 
ATOM     26  O   UNL     1       0.780   8.827  22.367  0.00  0.00    +0.000 OA
ENDBRANCH  18  26
ENDBRANCH  17  24
ENDBRANCH  16  17
ENDBRANCH   1  16
TORSDOF 6
ENDMDL
MODEL 2
REMARK VINA RESULT:      -7.5      1.842      2.559
REMARK  Name = 
REMARK  7 active torsions:
REMARK  status: ('A' for Active; 'I' for Inactive)
REMARK    1  A    between atoms: C_1  and  O_2
REMARK    2  A    between atoms: O_2  and  C_3
REMARK    3  A    between atoms: C_9  and  C_10
REMARK    4  A    between atoms: C_10  and  O_11
REMARK    5  A    between atoms: O_11  and  C_12
REMARK    6  A    between atoms: C_19  and  C_20
REMARK    7  A    between atoms: C_20  and  O_22
REMARK                            x       y       z     vdW  Elec       q    Type
REMARK                         _______ _______ _______ _____ _____    ______ ____
ROOT
ATOM      1  C   UNL     1       2.109   5.522  19.942  0.00  0.00    +0.000 A 
ATOM      2  C   UNL     1       1.227   4.616  20.498  0.00  0.00    +0.000 A 
ATOM      3  C   UNL     1       1.432   3.411  19.815  0.00  0.00    +0.000 A 
ATOM      4  N   UNL     1       2.375   3.508  18.880  0.00  0.00    +0.000 NA
ATOM      5  N   UNL     1       2.711   4.838  18.869  0.00  0.00    +0.000 N 
ATOM      6  C   UNL     1       3.611   5.316  17.861  0.00  0.00    +0.000 A 
ATOM      7  C   UNL     1       4.567   4.445  17.356  0.00  0.00    +0.000 A 
ATOM      8  C   UNL     1       5.600   4.986  16.584  0.00  0.00    +0.000 A 
ATOM      9  C   UNL     1       5.655   6.358  16.344  0.00  0.00    +0.000 A 
ATOM     10  C   UNL     1       4.613   7.131  16.801  0.00  0.00    +0.000 A 
ATOM     11  N   UNL     1       3.586   6.624  17.513  0.00  0.00    +0.000 NA
ENDROOT
BRANCH   8  12
ATOM     12  C   UNL     1       6.716   4.154  16.084  0.00  0.00    +0.000 C 
ATOM     13  O   UNL     1       7.836   4.202  16.562  0.00  0.00    +0.000 OA
BRANCH  12  14
ATOM     14  O   UNL     1       6.388   3.385  15.028  0.00  0.00    +0.000 OA
ATOM     15  H   UNL     1       6.751   3.670  14.168  0.00  0.00    +0.000 HD
ENDBRANCH  12  14
ENDBRANCH   8  12
BRANCH   1  16
ATOM     16  O   UNL     1       2.335   6.768  20.401  0.00  0.00    +0.000 OA
BRANCH  16  17
ATOM     17  C   UNL     1       1.778   7.879  19.695  0.00  0.00    +0.000 C 
BRANCH  17  24
ATOM     18  C   UNL     1       0.269   9.894  20.021  0.00  0.00    +0.000 A 
ATOM     19  C   UNL     1      -0.515  10.693  20.854  0.00  0.00    +0.000 A 
ATOM     20  C   UNL     1      -0.520  10.468  22.227  0.00  0.00    +0.000 A 
ATOM     21 CL   UNL     1      -1.512  11.434  23.250  0.00  0.00    +0.000 Cl
ATOM     22  C   UNL     1       0.248   9.449  22.789  0.00  0.00    +0.000 A 
ATOM     23  C   UNL     1       1.032   8.650  21.966  0.00  0.00    +0.000 A 
ATOM     24  C   UNL     1       1.062   8.871  20.581  0.00  0.00    +0.000 A 
BRANCH  18  26
ATOM     25  C   UNL     1      -0.992  10.233  18.028  0.00  0.00    +0.000 C 
ATOM     26  O   UNL     1       0.265   9.980  18.650  0.00  0.00    +0.000 OA
ENDBRANCH  18  26
ENDBRANCH  17  24
ENDBRANCH  16  17
ENDBRANCH   1  16
TORSDOF 6
ENDMDL
MODEL 3
REMARK VINA RESULT:      -7.5      1.165      2.005
REMARK  Name = 
REMARK  7 active torsions:
REMARK  status: ('A' for Active; 'I' for Inactive)
REMARK    1  A    between atoms: C_1  and  O_2
REMARK    2  A    between atoms: O_2  and  C_3
REMARK    3  A    between atoms: C_9  and  C_10
REMARK    4  A    between atoms: C_10  and  O_11
REMARK    5  A    between atoms: O_11  and  C_12
REMARK    6  A    between atoms: C_19  and  C_20
REMARK    7  A    between atoms: C_20  and  O_22
REMARK                            x       y       z     vdW  Elec       q    Type
REMARK                         _______ _______ _______ _____ _____    ______ ____
ROOT
ATOM      1  C   UNL     1       1.707   4.700  20.151  0.00  0.00    +0.000 A 
ATOM      2  C   UNL     1       1.099   3.650  20.812  0.00  0.00    +0.000 A 
ATOM      3  C   UNL     1       1.986   2.570  20.716  0.00  0.00    +0.000 A 
ATOM      4  N   UNL     1       3.094   2.878  20.045  0.00  0.00    +0.000 NA
ATOM      5  N   UNL     1       2.876   4.153  19.589  0.00  0.00    +0.000 N 
ATOM      6  C   UNL     1       3.830   4.741  18.695  0.00  0.00    +0.000 A 
ATOM      7  C   UNL     1       5.159   4.350  18.791  0.00  0.00    +0.000 A 
ATOM      8  C   UNL     1       6.114   5.113  18.112  0.00  0.00    +0.000 A 
ATOM      9  C   UNL     1       5.727   6.231  17.374  0.00  0.00    +0.000 A 
ATOM     10  C   UNL     1       4.380   6.485  17.254  0.00  0.00    +0.000 A 
ATOM     11  N   UNL     1       3.440   5.738  17.867  0.00  0.00    +0.000 NA
ENDROOT
BRANCH   8  12
ATOM     12  C   UNL     1       7.562   4.834  18.232  0.00  0.00    +0.000 C 
ATOM     13  O   UNL     1       8.227   5.208  19.182  0.00  0.00    +0.000 OA
BRANCH  12  14
ATOM     14  O   UNL     1       8.077   4.178  17.174  0.00  0.00    +0.000 OA
ATOM     15  H   UNL     1       7.451   3.615  16.680  0.00  0.00    +0.000 HD
ENDBRANCH  12  14
ENDBRANCH   8  12
BRANCH   1  16
ATOM     16  O   UNL     1       1.254   5.968  20.125  0.00  0.00    +0.000 OA
BRANCH  16  17
ATOM     17  C   UNL     1       1.965   6.974  20.850  0.00  0.00    +0.000 C 
BRANCH  17  24
ATOM     18  C   UNL     1       1.054   9.108  19.822  0.00  0.00    +0.000 A 
ATOM     19  C   UNL     1       0.230  10.232  19.903  0.00  0.00    +0.000 A 
ATOM     20  C   UNL     1      -0.422  10.529  21.095  0.00  0.00    +0.000 A 
ATOM     21 CL   UNL     1      -1.462  11.898  21.184  0.00  0.00    +0.000 Cl
ATOM     22  C   UNL     1      -0.267   9.717  22.218  0.00  0.00    +0.000 A 
ATOM     23  C   UNL     1       0.552   8.596  22.145  0.00  0.00    +0.000 A 
ATOM     24  C   UNL     1       1.229   8.289  20.956  0.00  0.00    +0.000 A 
BRANCH  18  26
ATOM     25  C   UNL     1       2.154   9.696  17.791  0.00  0.00    +0.000 C 
ATOM     26  O   UNL     1       1.660   8.684  18.664  0.00  0.00    +0.000 OA
ENDBRANCH  18  26
ENDBRANCH  17  24
ENDBRANCH  16  17
ENDBRANCH   1  16
TORSDOF 6
ENDMDL
MODEL 4
REMARK VINA RESULT:      -7.4      2.727      6.454
REMARK  Name = 
REMARK  7 active torsions:
REMARK  status: ('A' for Active; 'I' for Inactive)
REMARK    1  A    between atoms: C_1  and  O_2
REMARK    2  A    between atoms: O_2  and  C_3
REMARK    3  A    between atoms: C_9  and  C_10
REMARK    4  A    between atoms: C_10  and  O_11
REMARK    5  A    between atoms: O_11  and  C_12
REMARK    6  A    between atoms: C_19  and  C_20
REMARK    7  A    between atoms: C_20  and  O_22
REMARK                            x       y       z     vdW  Elec       q    Type
REMARK                         _______ _______ _______ _____ _____    ______ ____
ROOT
ATOM      1  C   UNL     1       2.636   4.128  19.108  0.00  0.00    +0.000 A 
ATOM      2  C   UNL     1       2.514   3.193  20.118  0.00  0.00    +0.000 A 
ATOM      3  C   UNL     1       2.059   3.897  21.240  0.00  0.00    +0.000 A 
ATOM      4  N   UNL     1       1.892   5.195  20.996  0.00  0.00    +0.000 NA
ATOM      5  N   UNL     1       2.361   5.367  19.718  0.00  0.00    +0.000 N 
ATOM      6  C   UNL     1       2.459   6.696  19.191  0.00  0.00    +0.000 A 
ATOM      7  C   UNL     1       1.568   7.658  19.643  0.00  0.00    +0.000 A 
ATOM      8  C   UNL     1       1.493   8.863  18.937  0.00  0.00    +0.000 A 
ATOM      9  C   UNL     1       2.292   9.070  17.813  0.00  0.00    +0.000 A 
ATOM     10  C   UNL     1       3.216   8.101  17.495  0.00  0.00    +0.000 A 
ATOM     11  N   UNL     1       3.332   6.950  18.188  0.00  0.00    +0.000 NA
ENDROOT
BRANCH   8  12
ATOM     12  C   UNL     1       0.507   9.909  19.283  0.00  0.00    +0.000 C 
ATOM     13  O   UNL     1       0.029  10.018  20.399  0.00  0.00    +0.000 OA
BRANCH  12  14
ATOM     14  O   UNL     1       0.155  10.688  18.242  0.00  0.00    +0.000 OA
ATOM     15  H   UNL     1       0.538  11.586  18.237  0.00  0.00    +0.000 HD
ENDBRANCH  12  14
ENDBRANCH   8  12
BRANCH   1  16
ATOM     16  O   UNL     1       2.914   3.849  17.820  0.00  0.00    +0.000 OA
BRANCH  16  17
ATOM     17  C   UNL     1       4.197   3.311  17.490  0.00  0.00    +0.000 C 
BRANCH  17  24
ATOM     18  C   UNL     1       5.770   5.086  16.584  0.00  0.00    +0.000 A 
ATOM     19  C   UNL     1       6.704   6.098  16.805  0.00  0.00    +0.000 A 
ATOM     20  C   UNL     1       7.189   6.325  18.089  0.00  0.00    +0.000 A 
ATOM     21 CL   UNL     1       8.318   7.595  18.366  0.00  0.00    +0.000 Cl
ATOM     22  C   UNL     1       6.754   5.554  19.166  0.00  0.00    +0.000 A 
ATOM     23  C   UNL     1       5.824   4.543  18.953  0.00  0.00    +0.000 A 
ATOM     24  C   UNL     1       5.334   4.290  17.663  0.00  0.00    +0.000 A 
BRANCH  18  26
ATOM     25  C   UNL     1       5.954   4.208  14.375  0.00  0.00    +0.000 C 
ATOM     26  O   UNL     1       5.165   4.852  15.372  0.00  0.00    +0.000 OA
ENDBRANCH  18  26
ENDBRANCH  17  24
ENDBRANCH  16  17
ENDBRANCH   1  16
TORSDOF 6
ENDMDL
MODEL 5
REMARK VINA RESULT:      -7.4      1.138      1.409
REMARK  Name = 
REMARK  7 active torsions:
REMARK  status: ('A' for Active; 'I' for Inactive)
REMARK    1  A    between atoms: C_1  and  O_2
REMARK    2  A    between atoms: O_2  and  C_3
REMARK    3  A    between atoms: C_9  and  C_10
REMARK    4  A    between atoms: C_10  and  O_11
REMARK    5  A    between atoms: O_11  and  C_12
REMARK    6  A    between atoms: C_19  and  C_20
REMARK    7  A    between atoms: C_20  and  O_22
REMARK                            x       y       z     vdW  Elec       q    Type
REMARK                         _______ _______ _______ _____ _____    ______ ____
ROOT
ATOM      1  C   UNL     1       2.228   5.774  20.119  0.00  0.00    +0.000 A 
ATOM      2  C   UNL     1       1.394   4.828  20.684  0.00  0.00    +0.000 A 
ATOM      3  C   UNL     1       1.782   3.599  20.137  0.00  0.00    +0.000 A 
ATOM      4  N   UNL     1       2.792   3.718  19.278  0.00  0.00    +0.000 NA
ATOM      5  N   UNL     1       2.992   5.071  19.170  0.00  0.00    +0.000 N 
ATOM      6  C   UNL     1       3.929   5.556  18.199  0.00  0.00    +0.000 A 
ATOM      7  C   UNL     1       5.010   4.754  17.860  0.00  0.00    +0.000 A 
ATOM      8  C   UNL     1       6.050   5.336  17.128  0.00  0.00    +0.000 A 
ATOM      9  C   UNL     1       5.988   6.681  16.765  0.00  0.00    +0.000 A 
ATOM     10  C   UNL     1       4.836   7.372  17.058  0.00  0.00    +0.000 A 
ATOM     11  N   UNL     1       3.804   6.819  17.728  0.00  0.00    +0.000 NA
ENDROOT
BRANCH   8  12
ATOM     12  C   UNL     1       7.285   4.591  16.803  0.00  0.00    +0.000 C 
ATOM     13  O   UNL     1       7.696   4.465  15.662  0.00  0.00    +0.000 OA
BRANCH  12  14
ATOM     14  O   UNL     1       7.877   4.027  17.874  0.00  0.00    +0.000 OA
ATOM     15  H   UNL     1       8.387   3.215  17.697  0.00  0.00    +0.000 HD
ENDBRANCH  12  14
ENDBRANCH   8  12
BRANCH   1  16
ATOM     16  O   UNL     1       2.284   7.072  20.476  0.00  0.00    +0.000 OA
BRANCH  16  17
ATOM     17  C   UNL     1       1.083   7.733  20.879  0.00  0.00    +0.000 C 
BRANCH  17  24
ATOM     18  C   UNL     1       0.751  10.226  21.224  0.00  0.00    +0.000 A 
ATOM     19  C   UNL     1       0.798  11.530  20.730  0.00  0.00    +0.000 A 
ATOM     20  C   UNL     1       1.054  11.751  19.381  0.00  0.00    +0.000 A 
ATOM     21 CL   UNL     1       1.143  13.362  18.779  0.00  0.00    +0.000 Cl
ATOM     22  C   UNL     1       1.266  10.686  18.507  0.00  0.00    +0.000 A 
ATOM     23  C   UNL     1       1.220   9.384  18.992  0.00  0.00    +0.000 A 
ATOM     24  C   UNL     1       0.949   9.140  20.347  0.00  0.00    +0.000 A 
BRANCH  18  26
ATOM     25  C   UNL     1      -0.675  10.174  23.133  0.00  0.00    +0.000 C 
ATOM     26  O   UNL     1       0.601   9.915  22.554  0.00  0.00    +0.000 OA
ENDBRANCH  18  26
ENDBRANCH  17  24
ENDBRANCH  16  17
ENDBRANCH   1  16
TORSDOF 6
ENDMDL
MODEL 6
REMARK VINA RESULT:      -7.3      1.284      2.181
REMARK  Name = 
REMARK  7 active torsions:
REMARK  status: ('A' for Active; 'I' for Inactive)
REMARK    1  A    between atoms: C_1  and  O_2
REMARK    2  A    between atoms: O_2  and  C_3
REMARK    3  A    between atoms: C_9  and  C_10
REMARK    4  A    between atoms: C_10  and  O_11
REMARK    5  A    between atoms: O_11  and  C_12
REMARK    6  A    between atoms: C_19  and  C_20
REMARK    7  A    between atoms: C_20  and  O_22
REMARK                            x       y       z     vdW  Elec       q    Type
REMARK                         _______ _______ _______ _____ _____    ______ ____
ROOT
ATOM      1  C   UNL     1       2.408   4.951  20.530  0.00  0.00    +0.000 A 
ATOM      2  C   UNL     1       1.848   3.902  21.234  0.00  0.00    +0.000 A 
ATOM      3  C   UNL     1       2.472   2.743  20.758  0.00  0.00    +0.000 A 
ATOM      4  N   UNL     1       3.373   2.999  19.812  0.00  0.00    +0.000 NA
ATOM      5  N   UNL     1       3.253   4.346  19.580  0.00  0.00    +0.000 N 
ATOM      6  C   UNL     1       3.992   4.931  18.500  0.00  0.00    +0.000 A 
ATOM      7  C   UNL     1       5.204   4.360  18.139  0.00  0.00    +0.000 A 
ATOM      8  C   UNL     1       6.037   5.084  17.280  0.00  0.00    +0.000 A 
ATOM      9  C   UNL     1       5.648   6.341  16.817  0.00  0.00    +0.000 A 
ATOM     10  C   UNL     1       4.389   6.784  17.147  0.00  0.00    +0.000 A 
ATOM     11  N   UNL     1       3.554   6.083  17.941  0.00  0.00    +0.000 NA
ENDROOT
BRANCH   8  12
ATOM     12  C   UNL     1       7.387   4.603  16.916  0.00  0.00    +0.000 C 
ATOM     13  O   UNL     1       7.811   4.637  15.773  0.00  0.00    +0.000 OA
BRANCH  12  14
ATOM     14  O   UNL     1       8.076   4.084  17.950  0.00  0.00    +0.000 OA
ATOM     15  H   UNL     1       7.889   4.477  18.824  0.00  0.00    +0.000 HD
ENDBRANCH  12  14
ENDBRANCH   8  12
BRANCH   1  16
ATOM     16  O   UNL     1       2.189   6.257  20.775  0.00  0.00    +0.000 OA
BRANCH  16  17
ATOM     17  C   UNL     1       0.844   6.741  20.803  0.00  0.00    +0.000 C 
BRANCH  17  24
ATOM     18  C   UNL     1       1.088   9.181  20.145  0.00  0.00    +0.000 A 
ATOM     19  C   UNL     1       0.819  10.529  20.385  0.00  0.00    +0.000 A 
ATOM     20  C   UNL     1       0.188  10.911  21.564  0.00  0.00    +0.000 A 
ATOM     21 CL   UNL     1      -0.171  12.571  21.845  0.00  0.00    +0.000 Cl
ATOM     22  C   UNL     1      -0.183   9.963  22.517  0.00  0.00    +0.000 A 
ATOM     23  C   UNL     1       0.083   8.619  22.286  0.00  0.00    +0.000 A 
ATOM     24  C   UNL     1       0.730   8.216  21.109  0.00  0.00    +0.000 A 
BRANCH  18  26
ATOM     25  C   UNL     1       1.774   9.639  17.909  0.00  0.00    +0.000 C 
ATOM     26  O   UNL     1       1.619   8.702  18.971  0.00  0.00    +0.000 OA
ENDBRANCH  18  26
ENDBRANCH  17  24
ENDBRANCH  16  17
ENDBRANCH   1  16
TORSDOF 6
ENDMDL
MODEL 7
REMARK VINA RESULT:      -7.2      1.386      1.482
REMARK  Name = 
REMARK  7 active torsions:
REMARK  status: ('A' for Active; 'I' for Inactive)
REMARK    1  A    between atoms: C_1  and  O_2
REMARK    2  A    between atoms: O_2  and  C_3
REMARK    3  A    between atoms: C_9  and  C_10
REMARK    4  A    between atoms: C_10  and  O_11
REMARK    5  A    between atoms: O_11  and  C_12
REMARK    6  A    between atoms: C_19  and  C_20
REMARK    7  A    between atoms: C_20  and  O_22
REMARK                            x       y       z     vdW  Elec       q    Type
REMARK                         _______ _______ _______ _____ _____    ______ ____
ROOT
ATOM      1  C   UNL     1       2.015   5.278  19.924  0.00  0.00    +0.000 A 
ATOM      2  C   UNL     1       1.126   4.332  20.398  0.00  0.00    +0.000 A 
ATOM      3  C   UNL     1       1.322   3.192  19.610  0.00  0.00    +0.000 A 
ATOM      4  N   UNL     1       2.265   3.364  18.686  0.00  0.00    +0.000 NA
ATOM      5  N   UNL     1       2.611   4.688  18.794  0.00  0.00    +0.000 N 
ATOM      6  C   UNL     1       3.514   5.246  17.831  0.00  0.00    +0.000 A 
ATOM      7  C   UNL     1       4.463   4.417  17.250  0.00  0.00    +0.000 A 
ATOM      8  C   UNL     1       5.500   5.016  16.527  0.00  0.00    +0.000 A 
ATOM      9  C   UNL     1       5.565   6.404  16.411  0.00  0.00    +0.000 A 
ATOM     10  C   UNL     1       4.529   7.141  16.936  0.00  0.00    +0.000 A 
ATOM     11  N   UNL     1       3.499   6.581  17.601  0.00  0.00    +0.000 NA
ENDROOT
BRANCH   8  12
ATOM     12  C   UNL     1       6.608   4.224  15.954  0.00  0.00    +0.000 C 
ATOM     13  O   UNL     1       7.763   4.613  15.954  0.00  0.00    +0.000 OA
BRANCH  12  14
ATOM     14  O   UNL     1       6.213   3.065  15.391  0.00  0.00    +0.000 OA
ATOM     15  H   UNL     1       5.255   2.884  15.424  0.00  0.00    +0.000 HD
ENDBRANCH  12  14
ENDBRANCH   8  12
BRANCH   1  16
ATOM     16  O   UNL     1       2.252   6.476  20.492  0.00  0.00    +0.000 OA
BRANCH  16  17
ATOM     17  C   UNL     1       1.167   7.180  21.103  0.00  0.00    +0.000 C 
BRANCH  17  24
ATOM     18  C   UNL     1      -0.042   9.410  21.040  0.00  0.00    +0.000 A 
ATOM     19  C   UNL     1      -0.216  10.675  20.476  0.00  0.00    +0.000 A 
ATOM     20  C   UNL     1       0.475  11.017  19.318  0.00  0.00    +0.000 A 
ATOM     21 CL   UNL     1       0.285  12.589  18.640  0.00  0.00    +0.000 Cl
ATOM     22  C   UNL     1       1.344  10.114  18.708  0.00  0.00    +0.000 A 
ATOM     23  C   UNL     1       1.521   8.852  19.264  0.00  0.00    +0.000 A 
ATOM     24  C   UNL     1       0.822   8.483  20.423  0.00  0.00    +0.000 A 
BRANCH  18  26
ATOM     25  C   UNL     1      -0.135   9.666  23.408  0.00  0.00    +0.000 C 
ATOM     26  O   UNL     1      -0.607   9.018  22.230  0.00  0.00    +0.000 OA
ENDBRANCH  18  26
ENDBRANCH  17  24
ENDBRANCH  16  17
ENDBRANCH   1  16
TORSDOF 6
ENDMDL
MODEL 8
REMARK VINA RESULT:      -7.2      2.614      6.540
REMARK  Name = 
REMARK  7 active torsions:
REMARK  status: ('A' for Active; 'I' for Inactive)
REMARK    1  A    between atoms: C_1  and  O_2
REMARK    2  A    between atoms: O_2  and  C_3
REMARK    3  A    between atoms: C_9  and  C_10
REMARK    4  A    between atoms: C_10  and  O_11
REMARK    5  A    between atoms: O_11  and  C_12
REMARK    6  A    between atoms: C_19  and  C_20
REMARK    7  A    between atoms: C_20  and  O_22
REMARK                            x       y       z     vdW  Elec       q    Type
REMARK                         _______ _______ _______ _____ _____    ______ ____
ROOT
ATOM      1  C   UNL     1       2.786   3.630  19.331  0.00  0.00    +0.000 A 
ATOM      2  C   UNL     1       2.935   2.479  20.081  0.00  0.00    +0.000 A 
ATOM      3  C   UNL     1       2.561   2.820  21.387  0.00  0.00    +0.000 A 
ATOM      4  N   UNL     1       2.193   4.095  21.497  0.00  0.00    +0.000 NA
ATOM      5  N   UNL     1       2.445   4.632  20.259  0.00  0.00    +0.000 N 
ATOM      6  C   UNL     1       2.293   6.045  20.075  0.00  0.00    +0.000 A 
ATOM      7  C   UNL     1       1.359   6.720  20.850  0.00  0.00    +0.000 A 
ATOM      8  C   UNL     1       1.027   8.027  20.481  0.00  0.00    +0.000 A 
ATOM      9  C   UNL     1       1.621   8.616  19.364  0.00  0.00    +0.000 A 
ATOM     10  C   UNL     1       2.606   7.909  18.715  0.00  0.00    +0.000 A 
ATOM     11  N   UNL     1       2.970   6.662  19.078  0.00  0.00    +0.000 NA
ENDROOT
BRANCH   8  12
ATOM     12  C   UNL     1      -0.025   8.791  21.185  0.00  0.00    +0.000 C 
ATOM     13  O   UNL     1      -0.757   8.287  22.018  0.00  0.00    +0.000 OA
BRANCH  12  14
ATOM     14  O   UNL     1      -0.126  10.073  20.781  0.00  0.00    +0.000 OA
ATOM     15  H   UNL     1       0.369  10.302  19.973  0.00  0.00    +0.000 HD
ENDBRANCH  12  14
ENDBRANCH   8  12
BRANCH   1  16
ATOM     16  O   UNL     1       2.908   3.706  17.992  0.00  0.00    +0.000 OA
BRANCH  16  17
ATOM     17  C   UNL     1       4.135   3.297  17.384  0.00  0.00    +0.000 C 
BRANCH  17  24
ATOM     18  C   UNL     1       5.690   5.089  16.482  0.00  0.00    +0.000 A 
ATOM     19  C   UNL     1       6.616   6.110  16.705  0.00  0.00    +0.000 A 
ATOM     20  C   UNL     1       7.101   6.337  17.989  0.00  0.00    +0.000 A 
ATOM     21 CL   UNL     1       8.218   7.616  18.269  0.00  0.00    +0.000 Cl
ATOM     22  C   UNL     1       6.674   5.558  19.064  0.00  0.00    +0.000 A 
ATOM     23  C   UNL     1       5.753   4.540  18.849  0.00  0.00    +0.000 A 
ATOM     24  C   UNL     1       5.264   4.286  17.559  0.00  0.00    +0.000 A 
BRANCH  18  26
ATOM     25  C   UNL     1       5.871   4.194  14.280  0.00  0.00    +0.000 C 
ATOM     26  O   UNL     1       5.087   4.854  15.270  0.00  0.00    +0.000 OA
ENDBRANCH  18  26
ENDBRANCH  17  24
ENDBRANCH  16  17
ENDBRANCH   1  16
TORSDOF 6
ENDMDL
MODEL 9
REMARK VINA RESULT:      -7.2      3.036      6.602
REMARK  Name = 
REMARK  7 active torsions:
REMARK  status: ('A' for Active; 'I' for Inactive)
REMARK    1  A    between atoms: C_1  and  O_2
REMARK    2  A    between atoms: O_2  and  C_3
REMARK    3  A    between atoms: C_9  and  C_10
REMARK    4  A    between atoms: C_10  and  O_11
REMARK    5  A    between atoms: O_11  and  C_12
REMARK    6  A    between atoms: C_19  and  C_20
REMARK    7  A    between atoms: C_20  and  O_22
REMARK                            x       y       z     vdW  Elec       q    Type
REMARK                         _______ _______ _______ _____ _____    ______ ____
ROOT
ATOM      1  C   UNL     1       2.814   3.970  19.339  0.00  0.00    +0.000 A 
ATOM      2  C   UNL     1       2.644   3.088  20.388  0.00  0.00    +0.000 A 
ATOM      3  C   UNL     1       2.144   3.848  21.453  0.00  0.00    +0.000 A 
ATOM      4  N   UNL     1       1.993   5.132  21.137  0.00  0.00    +0.000 NA
ATOM      5  N   UNL     1       2.519   5.238  19.874  0.00  0.00    +0.000 N 
ATOM      6  C   UNL     1       2.645   6.539  19.284  0.00  0.00    +0.000 A 
ATOM      7  C   UNL     1       1.739   7.525  19.649  0.00  0.00    +0.000 A 
ATOM      8  C   UNL     1       1.700   8.692  18.880  0.00  0.00    +0.000 A 
ATOM      9  C   UNL     1       2.548   8.841  17.783  0.00  0.00    +0.000 A 
ATOM     10  C   UNL     1       3.481   7.856  17.555  0.00  0.00    +0.000 A 
ATOM     11  N   UNL     1       3.562   6.740  18.309  0.00  0.00    +0.000 NA
ENDROOT
BRANCH   8  12
ATOM     12  C   UNL     1       0.705   9.757  19.130  0.00  0.00    +0.000 C 
ATOM     13  O   UNL     1       0.147   9.896  20.204  0.00  0.00    +0.000 OA
BRANCH  12  14
ATOM     14  O   UNL     1       0.440  10.516  18.049  0.00  0.00    +0.000 OA
ATOM     15  H   UNL     1       0.562  10.080  17.185  0.00  0.00    +0.000 HD
ENDBRANCH  12  14
ENDBRANCH   8  12
BRANCH   1  16
ATOM     16  O   UNL     1       3.147   3.626  18.080  0.00  0.00    +0.000 OA
BRANCH  16  17
ATOM     17  C   UNL     1       4.443   3.075  17.832  0.00  0.00    +0.000 C 
BRANCH  17  24
ATOM     18  C   UNL     1       6.457   4.421  17.074  0.00  0.00    +0.000 A 
ATOM     19  C   UNL     1       7.242   4.944  16.046  0.00  0.00    +0.000 A 
ATOM     20  C   UNL     1       6.813   4.844  14.726  0.00  0.00    +0.000 A 
ATOM     21 CL   UNL     1       7.798   5.461  13.456  0.00  0.00    +0.000 Cl
ATOM     22  C   UNL     1       5.605   4.224  14.411  0.00  0.00    +0.000 A 
ATOM     23  C   UNL     1       4.817   3.702  15.429  0.00  0.00    +0.000 A 
ATOM     24  C   UNL     1       5.226   3.806  16.767  0.00  0.00    +0.000 A 
BRANCH  18  26
ATOM     25  C   UNL     1       7.156   5.639  18.999  0.00  0.00    +0.000 C 
ATOM     26  O   UNL     1       6.843   4.389  18.392  0.00  0.00    +0.000 OA
ENDBRANCH  18  26
ENDBRANCH  17  24
ENDBRANCH  16  17
ENDBRANCH   1  16
TORSDOF 6
ENDMDL
