MODEL 1
REMARK VINA RESULT:      -7.2      0.000      0.000
REMARK  Name = 
REMARK  7 active torsions:
REMARK  status: ('A' for Active; 'I' for Inactive)
REMARK    1  A    between atoms: C_1  and  C_2
REMARK    2  A    between atoms: C_2  and  C_3
REMARK    3  A    between atoms: C_2  and  N_4
REMARK    4  A    between atoms: C_5  and  C_7
REMARK    5  A    between atoms: C_7  and  C_8
REMARK    6  A    between atoms: N_13  and  S_14
REMARK    7  A    between atoms: S_14  and  C_15
REMARK                            x       y       z     vdW  Elec       q    Type
REMARK                         _______ _______ _______ _____ _____    ______ ____
ROOT
ATOM      1  C   UNL     1       2.337   6.291  20.436  0.00  0.00    +0.000 C 
ATOM      2  C   UNL     1       3.567   6.650  19.568  0.00  0.00    +0.000 C 
ATOM      3  C   UNL     1       4.043   5.386  18.795  0.00  0.00    +0.000 C 
ATOM      4  C   UNL     1       5.511   5.090  19.180  0.00  0.00    +0.000 C 
ATOM      5  C   UNL     1       6.504   5.972  18.432  0.00  0.00    +0.000 C 
ATOM      6  N   UNL     1       6.289   5.912  16.969  0.00  0.00    +0.000 NA
ATOM      7  C   UNL     1       4.938   6.426  16.619  0.00  0.00    +0.000 C 
ATOM      8  C   UNL     1       3.843   5.586  17.271  0.00  0.00    +0.000 C 
ATOM      9  C   UNL     1       3.108   4.316  19.320  0.00  0.00    +0.000 A 
ATOM     10  C   UNL     1       3.103   2.961  18.999  0.00  0.00    +0.000 A 
ATOM     11  C   UNL     1       2.160   2.122  19.600  0.00  0.00    +0.000 A 
ATOM     12  C   UNL     1       1.231   2.633  20.514  0.00  0.00    +0.000 A 
ATOM     13  C   UNL     1       1.235   3.995  20.827  0.00  0.00    +0.000 A 
ATOM     14  C   UNL     1       2.170   4.820  20.218  0.00  0.00    +0.000 A 
ENDROOT
BRANCH   6  15
ATOM     15  S   UNL     1       6.800   4.534  16.110  0.00  0.00    +0.000 S 
ATOM     16  C   UNL     1       7.066   5.166  14.463  0.00  0.00    +0.000 C 
ATOM     17  O   UNL     1       8.069   4.097  16.640  0.00  0.00    +0.000 OA
ATOM     18  O   UNL     1       5.678   3.624  16.050  0.00  0.00    +0.000 OA
ENDBRANCH   6  15
BRANCH   1  19
ATOM     19  C   UNL     1       1.111   7.102  20.028  0.00  0.00    +0.000 C 
BRANCH  19  21
ATOM     20  N   UNL     1       0.795   9.500  19.930  0.00  0.00    +0.000 N 
ATOM     21  C   UNL     1       1.157   8.441  20.728  0.00  0.00    +0.000 C 
ATOM     22  O   UNL     1       1.516   8.568  21.897  0.00  0.00    +0.000 OA
ATOM     23  H   UNL     1       0.375   9.318  19.029  0.00  0.00    +0.000 HD
BRANCH  20  25
ATOM     24  C   UNL     1       1.358  11.818  19.422  0.00  0.00    +0.000 C 
ATOM     25  C   UNL     1       0.790  10.854  20.455  0.00  0.00    +0.000 C 
ATOM     26  C   UNL     1      -0.618  11.258  20.881  0.00  0.00    +0.000 C 
ENDBRANCH  20  25
ENDBRANCH  19  21
ENDBRANCH   1  19
TORSDOF 4
ENDMDL
MODEL 2
REMARK VINA RESULT:      -7.1      4.015      7.712
REMARK  Name = 
REMARK  7 active torsions:
REMARK  status: ('A' for Active; 'I' for Inactive)
REMARK    1  A    between atoms: C_1  and  C_2
REMARK    2  A    between atoms: C_2  and  C_3
REMARK    3  A    between atoms: C_2  and  N_4
REMARK    4  A    between atoms: C_5  and  C_7
REMARK    5  A    between atoms: C_7  and  C_8
REMARK    6  A    between atoms: N_13  and  S_14
REMARK    7  A    between atoms: S_14  and  C_15
REMARK                            x       y       z     vdW  Elec       q    Type
REMARK                         _______ _______ _______ _____ _____    ______ ____
ROOT
ATOM      1  C   UNL     1       5.861   4.116  15.812  0.00  0.00    +0.000 C 
ATOM      2  C   UNL     1       4.467   3.587  16.230  0.00  0.00    +0.000 C 
ATOM      3  C   UNL     1       4.214   3.918  17.729  0.00  0.00    +0.000 C 
ATOM      4  C   UNL     1       3.965   2.599  18.495  0.00  0.00    +0.000 C 
ATOM      5  C   UNL     1       2.541   2.081  18.327  0.00  0.00    +0.000 C 
ATOM      6  N   UNL     1       1.542   3.119  18.666  0.00  0.00    +0.000 NA
ATOM      7  C   UNL     1       1.667   4.282  17.747  0.00  0.00    +0.000 C 
ATOM      8  C   UNL     1       3.045   4.929  17.862  0.00  0.00    +0.000 C 
ATOM      9  C   UNL     1       5.522   4.559  18.143  0.00  0.00    +0.000 A 
ATOM     10  C   UNL     1       5.878   5.022  19.407  0.00  0.00    +0.000 A 
ATOM     11  C   UNL     1       7.147   5.578  19.597  0.00  0.00    +0.000 A 
ATOM     12  C   UNL     1       8.051   5.670  18.531  0.00  0.00    +0.000 A 
ATOM     13  C   UNL     1       7.687   5.212  17.263  0.00  0.00    +0.000 A 
ATOM     14  C   UNL     1       6.422   4.670  17.085  0.00  0.00    +0.000 A 
ENDROOT
BRANCH   6  15
ATOM     15  S   UNL     1       1.256   3.497  20.301  0.00  0.00    +0.000 S 
ATOM     16  C   UNL     1       2.729   2.900  21.112  0.00  0.00    +0.000 C 
ATOM     17  O   UNL     1       1.206   4.932  20.447  0.00  0.00    +0.000 OA
ATOM     18  O   UNL     1       0.152   2.675  20.745  0.00  0.00    +0.000 OA
ENDBRANCH   6  15
BRANCH   1  19
ATOM     19  C   UNL     1       5.752   5.156  14.702  0.00  0.00    +0.000 C 
BRANCH  19  21
ATOM     20  N   UNL     1       4.974   3.865  12.807  0.00  0.00    +0.000 N 
ATOM     21  C   UNL     1       6.057   4.490  13.380  0.00  0.00    +0.000 C 
ATOM     22  O   UNL     1       7.180   4.485  12.880  0.00  0.00    +0.000 OA
ATOM     23  H   UNL     1       4.052   4.026  13.190  0.00  0.00    +0.000 HD
BRANCH  20  25
ATOM     24  C   UNL     1       5.766   1.821  11.738  0.00  0.00    +0.000 C 
ATOM     25  C   UNL     1       5.104   3.178  11.535  0.00  0.00    +0.000 C 
ATOM     26  C   UNL     1       3.743   3.039  10.860  0.00  0.00    +0.000 C 
ENDBRANCH  20  25
ENDBRANCH  19  21
ENDBRANCH   1  19
TORSDOF 4
ENDMDL
MODEL 3
REMARK VINA RESULT:      -7.1      3.954      7.729
REMARK  Name = 
REMARK  7 active torsions:
REMARK  status: ('A' for Active; 'I' for Inactive)
REMARK    1  A    between atoms: C_1  and  C_2
REMARK    2  A    between atoms: C_2  and  C_3
REMARK    3  A    between atoms: C_2  and  N_4
REMARK    4  A    between atoms: C_5  and  C_7
REMARK    5  A    between atoms: C_7  and  C_8
REMARK    6  A    between atoms: N_13  and  S_14
REMARK    7  A    between atoms: S_14  and  C_15
REMARK                            x       y       z     vdW  Elec       q    Type
REMARK                         _______ _______ _______ _____ _____    ______ ____
ROOT
ATOM      1  C   UNL     1       5.663   3.962  15.994  0.00  0.00    +0.000 C 
ATOM      2  C   UNL     1       4.461   3.247  16.656  0.00  0.00    +0.000 C 
ATOM      3  C   UNL     1       4.386   3.640  18.159  0.00  0.00    +0.000 C 
ATOM      4  C   UNL     1       4.486   2.357  19.016  0.00  0.00    +0.000 C 
ATOM      5  C   UNL     1       3.163   1.605  19.105  0.00  0.00    +0.000 C 
ATOM      6  N   UNL     1       2.064   2.490  19.553  0.00  0.00    +0.000 NA
ATOM      7  C   UNL     1       1.848   3.588  18.574  0.00  0.00    +0.000 C 
ATOM      8  C   UNL     1       3.096   4.456  18.433  0.00  0.00    +0.000 C 
ATOM      9  C   UNL     1       5.613   4.513  18.326  0.00  0.00    +0.000 A 
ATOM     10  C   UNL     1       6.073   5.117  19.492  0.00  0.00    +0.000 A 
ATOM     11  C   UNL     1       7.242   5.883  19.448  0.00  0.00    +0.000 A 
ATOM     12  C   UNL     1       7.944   6.043  18.247  0.00  0.00    +0.000 A 
ATOM     13  C   UNL     1       7.475   5.441  17.077  0.00  0.00    +0.000 A 
ATOM     14  C   UNL     1       6.308   4.690  17.132  0.00  0.00    +0.000 A 
ENDROOT
BRANCH   6  15
ATOM     15  S   UNL     1       1.971   2.934  21.194  0.00  0.00    +0.000 S 
ATOM     16  C   UNL     1       2.130   4.709  21.137  0.00  0.00    +0.000 C 
ATOM     17  O   UNL     1       0.655   2.610  21.691  0.00  0.00    +0.000 OA
ATOM     18  O   UNL     1       3.150   2.412  21.848  0.00  0.00    +0.000 OA
ENDBRANCH   6  15
BRANCH   1  19
ATOM     19  C   UNL     1       5.211   4.888  14.869  0.00  0.00    +0.000 C 
BRANCH  19  21
ATOM     20  N   UNL     1       4.682   3.791  12.777  0.00  0.00    +0.000 N 
ATOM     21  C   UNL     1       5.686   4.321  13.551  0.00  0.00    +0.000 C 
ATOM     22  O   UNL     1       6.870   4.311  13.219  0.00  0.00    +0.000 OA
ATOM     23  H   UNL     1       3.718   3.957  13.036  0.00  0.00    +0.000 HD
BRANCH  20  25
ATOM     24  C   UNL     1       5.661   1.856  11.660  0.00  0.00    +0.000 C 
ATOM     25  C   UNL     1       4.977   3.205  11.481  0.00  0.00    +0.000 C 
ATOM     26  C   UNL     1       3.705   3.080  10.648  0.00  0.00    +0.000 C 
ENDBRANCH  20  25
ENDBRANCH  19  21
ENDBRANCH   1  19
TORSDOF 4
ENDMDL
MODEL 4
REMARK VINA RESULT:      -7.0      3.672      6.483
REMARK  Name = 
REMARK  7 active torsions:
REMARK  status: ('A' for Active; 'I' for Inactive)
REMARK    1  A    between atoms: C_1  and  C_2
REMARK    2  A    between atoms: C_2  and  C_3
REMARK    3  A    between atoms: C_2  and  N_4
REMARK    4  A    between atoms: C_5  and  C_7
REMARK    5  A    between atoms: C_7  and  C_8
REMARK    6  A    between atoms: N_13  and  S_14
REMARK    7  A    between atoms: S_14  and  C_15
REMARK                            x       y       z     vdW  Elec       q    Type
REMARK                         _______ _______ _______ _____ _____    ______ ____
ROOT
ATOM      1  C   UNL     1       6.388   7.102  17.141  0.00  0.00    +0.000 C 
ATOM      2  C   UNL     1       5.264   6.793  18.160  0.00  0.00    +0.000 C 
ATOM      3  C   UNL     1       4.677   5.382  17.873  0.00  0.00    +0.000 C 
ATOM      4  C   UNL     1       3.165   5.520  17.586  0.00  0.00    +0.000 C 
ATOM      5  C   UNL     1       2.335   5.651  18.858  0.00  0.00    +0.000 C 
ATOM      6  N   UNL     1       2.623   4.555  19.810  0.00  0.00    +0.000 NA
ATOM      7  C   UNL     1       4.046   4.601  20.241  0.00  0.00    +0.000 C 
ATOM      8  C   UNL     1       4.988   4.425  19.053  0.00  0.00    +0.000 C 
ATOM      9  C   UNL     1       5.438   4.962  16.632  0.00  0.00    +0.000 A 
ATOM     10  C   UNL     1       5.291   3.785  15.904  0.00  0.00    +0.000 A 
ATOM     11  C   UNL     1       6.084   3.581  14.770  0.00  0.00    +0.000 A 
ATOM     12  C   UNL     1       7.017   4.546  14.371  0.00  0.00    +0.000 A 
ATOM     13  C   UNL     1       7.168   5.722  15.110  0.00  0.00    +0.000 A 
ATOM     14  C   UNL     1       6.380   5.909  16.238  0.00  0.00    +0.000 A 
ENDROOT
BRANCH   6  15
ATOM     15  S   UNL     1       1.992   3.004  19.508  0.00  0.00    +0.000 S 
ATOM     16  C   UNL     1       1.547   2.429  21.137  0.00  0.00    +0.000 C 
ATOM     17  O   UNL     1       0.786   3.134  18.726  0.00  0.00    +0.000 OA
ATOM     18  O   UNL     1       3.084   2.179  19.040  0.00  0.00    +0.000 OA
ENDBRANCH   6  15
BRANCH   1  19
ATOM     19  C   UNL     1       7.728   7.320  17.837  0.00  0.00    +0.000 C 
BRANCH  19  21
ATOM     20  N   UNL     1       8.870   9.157  18.925  0.00  0.00    +0.000 N 
ATOM     21  C   UNL     1       7.997   8.804  17.923  0.00  0.00    +0.000 C 
ATOM     22  O   UNL     1       7.458   9.622  17.180  0.00  0.00    +0.000 OA
ATOM     23  H   UNL     1       9.389   8.433  19.405  0.00  0.00    +0.000 HD
BRANCH  20  25
ATOM     24  C   UNL     1       9.497  10.798  20.616  0.00  0.00    +0.000 C 
ATOM     25  C   UNL     1       9.230  10.547  19.138  0.00  0.00    +0.000 C 
ATOM     26  C   UNL     1      10.435  10.925  18.281  0.00  0.00    +0.000 C 
ENDBRANCH  20  25
ENDBRANCH  19  21
ENDBRANCH   1  19
TORSDOF 4
ENDMDL
MODEL 5
REMARK VINA RESULT:      -6.8      1.223      1.445
REMARK  Name = 
REMARK  7 active torsions:
REMARK  status: ('A' for Active; 'I' for Inactive)
REMARK    1  A    between atoms: C_1  and  C_2
REMARK    2  A    between atoms: C_2  and  C_3
REMARK    3  A    between atoms: C_2  and  N_4
REMARK    4  A    between atoms: C_5  and  C_7
REMARK    5  A    between atoms: C_7  and  C_8
REMARK    6  A    between atoms: N_13  and  S_14
REMARK    7  A    between atoms: S_14  and  C_15
REMARK                            x       y       z     vdW  Elec       q    Type
REMARK                         _______ _______ _______ _____ _____    ______ ____
ROOT
ATOM      1  C   UNL     1       2.430   6.036  20.144  0.00  0.00    +0.000 C 
ATOM      2  C   UNL     1       3.682   6.530  19.379  0.00  0.00    +0.000 C 
ATOM      3  C   UNL     1       4.287   5.354  18.560  0.00  0.00    +0.000 C 
ATOM      4  C   UNL     1       5.745   5.126  19.017  0.00  0.00    +0.000 C 
ATOM      5  C   UNL     1       6.719   6.117  18.390  0.00  0.00    +0.000 C 
ATOM      6  N   UNL     1       6.595   6.142  16.916  0.00  0.00    +0.000 NA
ATOM      7  C   UNL     1       5.235   6.592  16.515  0.00  0.00    +0.000 C 
ATOM      8  C   UNL     1       4.163   5.642  17.042  0.00  0.00    +0.000 C 
ATOM      9  C   UNL     1       3.397   4.193  18.955  0.00  0.00    +0.000 A 
ATOM     10  C   UNL     1       3.502   2.866  18.550  0.00  0.00    +0.000 A 
ATOM     11  C   UNL     1       2.584   1.929  19.036  0.00  0.00    +0.000 A 
ATOM     12  C   UNL     1       1.570   2.318  19.920  0.00  0.00    +0.000 A 
ATOM     13  C   UNL     1       1.463   3.653  20.319  0.00  0.00    +0.000 A 
ATOM     14  C   UNL     1       2.375   4.575  19.823  0.00  0.00    +0.000 A 
ENDROOT
BRANCH   6  15
ATOM     15  S   UNL     1       7.247   4.860  16.005  0.00  0.00    +0.000 S 
ATOM     16  C   UNL     1       5.821   3.842  15.670  0.00  0.00    +0.000 C 
ATOM     17  O   UNL     1       7.739   5.381  14.751  0.00  0.00    +0.000 OA
ATOM     18  O   UNL     1       8.121   4.112  16.880  0.00  0.00    +0.000 OA
ENDBRANCH   6  15
BRANCH   1  19
ATOM     19  C   UNL     1       1.178   6.793  19.712  0.00  0.00    +0.000 C 
BRANCH  19  21
ATOM     20  N   UNL     1       0.496   8.391  21.398  0.00  0.00    +0.000 N 
ATOM     21  C   UNL     1       1.245   8.199  20.261  0.00  0.00    +0.000 C 
ATOM     22  O   UNL     1       1.889   9.095  19.719  0.00  0.00    +0.000 OA
ATOM     23  H   UNL     1       0.107   7.588  21.875  0.00  0.00    +0.000 HD
BRANCH  20  25
ATOM     24  C   UNL     1      -0.471  10.627  21.283  0.00  0.00    +0.000 C 
ATOM     25  C   UNL     1       0.455   9.689  22.047  0.00  0.00    +0.000 C 
ATOM     26  C   UNL     1       0.025   9.546  23.504  0.00  0.00    +0.000 C 
ENDBRANCH  20  25
ENDBRANCH  19  21
ENDBRANCH   1  19
TORSDOF 4
ENDMDL
MODEL 6
REMARK VINA RESULT:      -6.5      1.037      1.142
REMARK  Name = 
REMARK  7 active torsions:
REMARK  status: ('A' for Active; 'I' for Inactive)
REMARK    1  A    between atoms: C_1  and  C_2
REMARK    2  A    between atoms: C_2  and  C_3
REMARK    3  A    between atoms: C_2  and  N_4
REMARK    4  A    between atoms: C_5  and  C_7
REMARK    5  A    between atoms: C_7  and  C_8
REMARK    6  A    between atoms: N_13  and  S_14
REMARK    7  A    between atoms: S_14  and  C_15
REMARK                            x       y       z     vdW  Elec       q    Type
REMARK                         _______ _______ _______ _____ _____    ______ ____
ROOT
ATOM      1  C   UNL     1       2.400   7.315  19.587  0.00  0.00    +0.000 C 
ATOM      2  C   UNL     1       3.640   7.440  18.668  0.00  0.00    +0.000 C 
ATOM      3  C   UNL     1       4.117   6.022  18.243  0.00  0.00    +0.000 C 
ATOM      4  C   UNL     1       5.579   5.829  18.705  0.00  0.00    +0.000 C 
ATOM      5  C   UNL     1       6.583   6.491  17.768  0.00  0.00    +0.000 C 
ATOM      6  N   UNL     1       6.382   6.065  16.365  0.00  0.00    +0.000 NA
ATOM      7  C   UNL     1       5.036   6.478  15.884  0.00  0.00    +0.000 C 
ATOM      8  C   UNL     1       3.931   5.832  16.716  0.00  0.00    +0.000 C 
ATOM      9  C   UNL     1       3.172   5.120  19.011  0.00  0.00    +0.000 A 
ATOM     10  C   UNL     1       3.163   3.729  19.041  0.00  0.00    +0.000 A 
ATOM     11  C   UNL     1       2.211   3.070  19.826  0.00  0.00    +0.000 A 
ATOM     12  C   UNL     1       1.276   3.797  20.572  0.00  0.00    +0.000 A 
ATOM     13  C   UNL     1       1.284   5.194  20.533  0.00  0.00    +0.000 A 
ATOM     14  C   UNL     1       2.228   5.836  19.744  0.00  0.00    +0.000 A 
ENDROOT
BRANCH   6  15
ATOM     15  S   UNL     1       6.893   4.514  15.886  0.00  0.00    +0.000 S 
ATOM     16  C   UNL     1       7.286   4.738  14.160  0.00  0.00    +0.000 C 
ATOM     17  O   UNL     1       8.110   4.185  16.590  0.00  0.00    +0.000 OA
ATOM     18  O   UNL     1       5.744   3.640  15.960  0.00  0.00    +0.000 OA
ENDBRANCH   6  15
BRANCH   1  19
ATOM     19  C   UNL     1       1.182   7.999  18.976  0.00  0.00    +0.000 C 
BRANCH  19  21
ATOM     20  N   UNL     1       0.767  10.370  18.711  0.00  0.00    +0.000 N 
ATOM     21  C   UNL     1       1.019   9.362  19.610  0.00  0.00    +0.000 C 
ATOM     22  O   UNL     1       1.132   9.550  20.820  0.00  0.00    +0.000 OA
ATOM     23  H   UNL     1       0.543  10.133  17.753  0.00  0.00    +0.000 HD
BRANCH  20  25
ATOM     24  C   UNL     1       1.848  12.549  18.892  0.00  0.00    +0.000 C 
ATOM     25  C   UNL     1       0.588  11.738  19.164  0.00  0.00    +0.000 C 
ATOM     26  C   UNL     1      -0.633  12.366  18.499  0.00  0.00    +0.000 C 
ENDBRANCH  20  25
ENDBRANCH  19  21
ENDBRANCH   1  19
TORSDOF 4
ENDMDL
MODEL 7
REMARK VINA RESULT:      -6.5      0.864      1.059
REMARK  Name = 
REMARK  7 active torsions:
REMARK  status: ('A' for Active; 'I' for Inactive)
REMARK    1  A    between atoms: C_1  and  C_2
REMARK    2  A    between atoms: C_2  and  C_3
REMARK    3  A    between atoms: C_2  and  N_4
REMARK    4  A    between atoms: C_5  and  C_7
REMARK    5  A    between atoms: C_7  and  C_8
REMARK    6  A    between atoms: N_13  and  S_14
REMARK    7  A    between atoms: S_14  and  C_15
REMARK                            x       y       z     vdW  Elec       q    Type
REMARK                         _______ _______ _______ _____ _____    ______ ____
ROOT
ATOM      1  C   UNL     1       2.036   6.238  20.546  0.00  0.00    +0.000 C 
ATOM      2  C   UNL     1       3.302   6.708  19.788  0.00  0.00    +0.000 C 
ATOM      3  C   UNL     1       3.786   5.577  18.836  0.00  0.00    +0.000 C 
ATOM      4  C   UNL     1       5.234   5.192  19.216  0.00  0.00    +0.000 C 
ATOM      5  C   UNL     1       6.267   6.163  18.654  0.00  0.00    +0.000 C 
ATOM      6  N   UNL     1       6.104   6.346  17.195  0.00  0.00    +0.000 NA
ATOM      7  C   UNL     1       4.774   6.938  16.890  0.00  0.00    +0.000 C 
ATOM      8  C   UNL     1       3.643   6.026  17.359  0.00  0.00    +0.000 C 
ATOM      9  C   UNL     1       2.817   4.455  19.148  0.00  0.00    +0.000 A 
ATOM     10  C   UNL     1       2.803   3.171  18.610  0.00  0.00    +0.000 A 
ATOM     11  C   UNL     1       1.827   2.265  19.035  0.00  0.00    +0.000 A 
ATOM     12  C   UNL     1       0.873   2.640  19.990  0.00  0.00    +0.000 A 
ATOM     13  C   UNL     1       0.886   3.932  20.521  0.00  0.00    +0.000 A 
ATOM     14  C   UNL     1       1.855   4.826  20.085  0.00  0.00    +0.000 A 
ENDROOT
BRANCH   6  15
ATOM     15  S   UNL     1       6.624   5.116  16.139  0.00  0.00    +0.000 S 
ATOM     16  C   UNL     1       7.796   4.207  17.131  0.00  0.00    +0.000 C 
ATOM     17  O   UNL     1       5.507   4.249  15.846  0.00  0.00    +0.000 OA
ATOM     18  O   UNL     1       7.360   5.751  15.069  0.00  0.00    +0.000 OA
ENDBRANCH   6  15
BRANCH   1  19
ATOM     19  C   UNL     1       0.838   7.129  20.236  0.00  0.00    +0.000 C 
BRANCH  19  21
ATOM     20  N   UNL     1       0.700   9.545  20.137  0.00  0.00    +0.000 N 
ATOM     21  C   UNL     1       1.034   8.464  20.918  0.00  0.00    +0.000 C 
ATOM     22  O   UNL     1       1.480   8.569  22.059  0.00  0.00    +0.000 OA
ATOM     23  H   UNL     1       0.206   9.392  19.268  0.00  0.00    +0.000 HD
BRANCH  20  25
ATOM     24  C   UNL     1       1.263  11.839  19.531  0.00  0.00    +0.000 C 
ATOM     25  C   UNL     1       0.834  10.897  20.648  0.00  0.00    +0.000 C 
ATOM     26  C   UNL     1      -0.469  11.356  21.295  0.00  0.00    +0.000 C 
ENDBRANCH  20  25
ENDBRANCH  19  21
ENDBRANCH   1  19
TORSDOF 4
ENDMDL
MODEL 8
REMARK VINA RESULT:      -6.3      4.820      9.785
REMARK  Name = 
REMARK  7 active torsions:
REMARK  status: ('A' for Active; 'I' for Inactive)
REMARK    1  A    between atoms: C_1  and  C_2
REMARK    2  A    between atoms: C_2  and  C_3
REMARK    3  A    between atoms: C_2  and  N_4
REMARK    4  A    between atoms: C_5  and  C_7
REMARK    5  A    between atoms: C_7  and  C_8
REMARK    6  A    between atoms: N_13  and  S_14
REMARK    7  A    between atoms: S_14  and  C_15
REMARK                            x       y       z     vdW  Elec       q    Type
REMARK                         _______ _______ _______ _____ _____    ______ ____
ROOT
ATOM      1  C   UNL     1       0.691  10.650  18.729  0.00  0.00    +0.000 C 
ATOM      2  C   UNL     1       0.801  11.877  19.666  0.00  0.00    +0.000 C 
ATOM      3  C   UNL     1      -0.610  12.499  19.874  0.00  0.00    +0.000 C 
ATOM      4  C   UNL     1      -0.581  13.970  19.400  0.00  0.00    +0.000 C 
ATOM      5  C   UNL     1       0.029  14.909  20.434  0.00  0.00    +0.000 C 
ATOM      6  N   UNL     1      -0.624  14.762  21.754  0.00  0.00    +0.000 NA
ATOM      7  C   UNL     1      -0.428  13.385  22.282  0.00  0.00    +0.000 C 
ATOM      8  C   UNL     1      -1.049  12.345  21.353  0.00  0.00    +0.000 C 
ATOM      9  C   UNL     1      -1.476  11.645  18.970  0.00  0.00    +0.000 A 
ATOM     10  C   UNL     1      -2.840  11.777  18.728  0.00  0.00    +0.000 A 
ATOM     11  C   UNL     1      -3.465  10.891  17.845  0.00  0.00    +0.000 A 
ATOM     12  C   UNL     1      -2.731   9.881  17.211  0.00  0.00    +0.000 A 
ATOM     13  C   UNL     1      -1.363   9.747  17.463  0.00  0.00    +0.000 A 
ATOM     14  C   UNL     1      -0.756  10.627  18.348  0.00  0.00    +0.000 A 
ENDROOT
BRANCH   6  15
ATOM     15  S   UNL     1      -2.170  15.432  21.996  0.00  0.00    +0.000 S 
ATOM     16  C   UNL     1      -1.840  17.184  22.060  0.00  0.00    +0.000 C 
ATOM     17  O   UNL     1      -2.982  15.164  20.833  0.00  0.00    +0.000 OA
ATOM     18  O   UNL     1      -2.614  15.024  23.310  0.00  0.00    +0.000 OA
ENDBRANCH   6  15
BRANCH   1  19
ATOM     19  C   UNL     1       1.148   9.373  19.428  0.00  0.00    +0.000 C 
BRANCH  19  21
ATOM     20  N   UNL     1       2.210   7.261  18.904  0.00  0.00    +0.000 N 
ATOM     21  C   UNL     1       1.895   8.514  18.433  0.00  0.00    +0.000 C 
ATOM     22  O   UNL     1       2.215   8.915  17.316  0.00  0.00    +0.000 OA
ATOM     23  H   UNL     1       1.796   6.940  19.769  0.00  0.00    +0.000 HD
BRANCH  20  25
ATOM     24  C   UNL     1       4.334   6.098  18.614  0.00  0.00    +0.000 C 
ATOM     25  C   UNL     1       2.929   6.316  18.068  0.00  0.00    +0.000 C 
ATOM     26  C   UNL     1       2.161   5.002  17.962  0.00  0.00    +0.000 C 
ENDBRANCH  20  25
ENDBRANCH  19  21
ENDBRANCH   1  19
TORSDOF 4
ENDMDL
MODEL 9
REMARK VINA RESULT:      -6.2      3.083      4.907
REMARK  Name = 
REMARK  7 active torsions:
REMARK  status: ('A' for Active; 'I' for Inactive)
REMARK    1  A    between atoms: C_1  and  C_2
REMARK    2  A    between atoms: C_2  and  C_3
REMARK    3  A    between atoms: C_2  and  N_4
REMARK    4  A    between atoms: C_5  and  C_7
REMARK    5  A    between atoms: C_7  and  C_8
REMARK    6  A    between atoms: N_13  and  S_14
REMARK    7  A    between atoms: S_14  and  C_15
REMARK                            x       y       z     vdW  Elec       q    Type
REMARK                         _______ _______ _______ _____ _____    ______ ____
ROOT
ATOM      1  C   UNL     1       3.012   7.721  17.241  0.00  0.00    +0.000 C 
ATOM      2  C   UNL     1       2.035   6.768  17.973  0.00  0.00    +0.000 C 
ATOM      3  C   UNL     1       2.840   5.628  18.661  0.00  0.00    +0.000 C 
ATOM      4  C   UNL     1       2.353   4.270  18.107  0.00  0.00    +0.000 C 
ATOM      5  C   UNL     1       1.056   3.801  18.757  0.00  0.00    +0.000 C 
ATOM      6  N   UNL     1       1.158   3.796  20.233  0.00  0.00    +0.000 NA
ATOM      7  C   UNL     1       1.400   5.172  20.743  0.00  0.00    +0.000 C 
ATOM      8  C   UNL     1       2.711   5.738  20.202  0.00  0.00    +0.000 C 
ATOM      9  C   UNL     1       4.260   5.925  18.223  0.00  0.00    +0.000 A 
ATOM     10  C   UNL     1       5.408   5.196  18.515  0.00  0.00    +0.000 A 
ATOM     11  C   UNL     1       6.638   5.627  18.006  0.00  0.00    +0.000 A 
ATOM     12  C   UNL     1       6.716   6.778  17.213  0.00  0.00    +0.000 A 
ATOM     13  C   UNL     1       5.562   7.512  16.929  0.00  0.00    +0.000 A 
ATOM     14  C   UNL     1       4.348   7.079  17.447  0.00  0.00    +0.000 A 
ENDROOT
BRANCH   6  15
ATOM     15  S   UNL     1       2.040   2.558  21.001  0.00  0.00    +0.000 S 
ATOM     16  C   UNL     1       1.909   1.202  19.850  0.00  0.00    +0.000 C 
ATOM     17  O   UNL     1       3.425   2.954  21.083  0.00  0.00    +0.000 OA
ATOM     18  O   UNL     1       1.311   2.188  22.194  0.00  0.00    +0.000 OA
ENDBRANCH   6  15
BRANCH   1  19
ATOM     19  C   UNL     1       2.934   9.137  17.801  0.00  0.00    +0.000 C 
BRANCH  19  21
ATOM     20  N   UNL     1       0.659   9.963  17.716  0.00  0.00    +0.000 N 
ATOM     21  C   UNL     1       1.598   9.317  18.485  0.00  0.00    +0.000 C 
ATOM     22  O   UNL     1       1.385   8.944  19.637  0.00  0.00    +0.000 OA
ATOM     23  H   UNL     1       0.846  10.115  16.733  0.00  0.00    +0.000 HD
BRANCH  20  25
ATOM     24  C   UNL     1      -0.789  11.656  18.708  0.00  0.00    +0.000 C 
ATOM     25  C   UNL     1      -0.675  10.214  18.232  0.00  0.00    +0.000 C 
ATOM     26  C   UNL     1      -1.727   9.891  17.175  0.00  0.00    +0.000 C 
ENDBRANCH  20  25
ENDBRANCH  19  21
ENDBRANCH   1  19
TORSDOF 4
ENDMDL
