MODEL 1
REMARK VINA RESULT:      -7.3      0.000      0.000
REMARK  Name = 
REMARK  9 active torsions:
REMARK  status: ('A' for Active; 'I' for Inactive)
REMARK    1  A    between atoms: C_1  and  C_2
REMARK    2  A    between atoms: C_2  and  C_3
REMARK    3  A    between atoms: C_3  and  N_4
REMARK    4  A    between atoms: C_5  and  S_6
REMARK    5  A    between atoms: S_6  and  C_7
REMARK    6  A    between atoms: C_9  and  C_10
REMARK    7  A    between atoms: C_17  and  C_18
REMARK    8  A    between atoms: N_23  and  C_24
REMARK    9  A    between atoms: C_24  and  C_25
REMARK                            x       y       z     vdW  Elec       q    Type
REMARK                         _______ _______ _______ _____ _____    ______ ____
ROOT
ATOM      1  N   UNL     1       2.775   3.960  18.768  0.00  0.00    +0.000 N 
ATOM      2  C   UNL     1       3.759   3.042  18.466  0.00  0.00    +0.000 A 
ATOM      3  N   UNL     1       4.901   3.624  18.194  0.00  0.00    +0.000 NA
ATOM      4  C   UNL     1       4.685   4.963  18.355  0.00  0.00    +0.000 A 
ATOM      5  C   UNL     1       3.350   5.236  18.694  0.00  0.00    +0.000 A 
ENDROOT
BRANCH   5   6
ATOM      6  C   UNL     1       2.672   6.531  18.877  0.00  0.00    +0.000 A 
ATOM      7  C   UNL     1       2.488   7.393  17.794  0.00  0.00    +0.000 A 
ATOM      8  C   UNL     1       1.925   8.636  18.016  0.00  0.00    +0.000 A 
ATOM      9  N   UNL     1       1.481   9.058  19.218  0.00  0.00    +0.000 NA
ATOM     10  C   UNL     1       1.601   8.213  20.260  0.00  0.00    +0.000 A 
ATOM     11  N   UNL     1       0.978   8.502  21.488  0.00  0.00    +0.000 N 
ATOM     12  C   UNL     1       2.219   6.971  20.122  0.00  0.00    +0.000 A 
ATOM     13  H   UNL     1       1.466   8.051  22.255  0.00  0.00    +0.000 HD
BRANCH  11  14
ATOM     14  C   UNL     1       0.798   9.928  21.737  0.00  0.00    +0.000 C 
ATOM     15  C   UNL     1      -0.269  10.110  22.806  0.00  0.00    +0.000 C 
ENDBRANCH  11  14
ENDBRANCH   5   6
BRANCH   4  16
ATOM     16  C   UNL     1       5.766   5.918  18.161  0.00  0.00    +0.000 A 
ATOM     17  C   UNL     1       5.606   6.947  17.219  0.00  0.00    +0.000 A 
ATOM     18  C   UNL     1       6.608   7.908  17.037  0.00  0.00    +0.000 A 
ATOM     19  C   UNL     1       7.769   7.833  17.789  0.00  0.00    +0.000 A 
ATOM     20  F   UNL     1       8.724   8.760  17.631  0.00  0.00    +0.000 F 
ATOM     21  C   UNL     1       7.958   6.815  18.716  0.00  0.00    +0.000 A 
ATOM     22  C   UNL     1       6.964   5.846  18.889  0.00  0.00    +0.000 A 
ENDBRANCH   4  16
BRANCH   2  23
ATOM     23  S   UNL     1       3.523   1.324  18.468  0.00  0.00    +0.000 S 
ATOM     24  C   UNL     1       4.734   0.797  19.705  0.00  0.00    +0.000 C 
ENDBRANCH   2  23
BRANCH   1  25
ATOM     25  C   UNL     1       1.417   3.622  19.181  0.00  0.00    +0.000 C 
BRANCH  25  27
ATOM     26  C   UNL     1       1.954   2.843  21.553  0.00  0.00    +0.000 C 
ATOM     27  C   UNL     1       1.080   3.719  20.672  0.00  0.00    +0.000 C 
ENDBRANCH  25  27
ENDBRANCH   1  25
TORSDOF 6
ENDMDL
MODEL 2
REMARK VINA RESULT:      -7.1      2.747      5.079
REMARK  Name = 
REMARK  9 active torsions:
REMARK  status: ('A' for Active; 'I' for Inactive)
REMARK    1  A    between atoms: C_1  and  C_2
REMARK    2  A    between atoms: C_2  and  C_3
REMARK    3  A    between atoms: C_3  and  N_4
REMARK    4  A    between atoms: C_5  and  S_6
REMARK    5  A    between atoms: S_6  and  C_7
REMARK    6  A    between atoms: C_9  and  C_10
REMARK    7  A    between atoms: C_17  and  C_18
REMARK    8  A    between atoms: N_23  and  C_24
REMARK    9  A    between atoms: C_24  and  C_25
REMARK                            x       y       z     vdW  Elec       q    Type
REMARK                         _______ _______ _______ _____ _____    ______ ____
ROOT
ATOM      1  N   UNL     1       4.809   5.768  17.082  0.00  0.00    +0.000 N 
ATOM      2  C   UNL     1       5.350   4.502  17.009  0.00  0.00    +0.000 A 
ATOM      3  N   UNL     1       4.770   3.676  17.845  0.00  0.00    +0.000 NA
ATOM      4  C   UNL     1       3.790   4.399  18.464  0.00  0.00    +0.000 A 
ATOM      5  C   UNL     1       3.785   5.737  18.039  0.00  0.00    +0.000 A 
ENDROOT
BRANCH   5   6
ATOM      6  C   UNL     1       2.963   6.868  18.501  0.00  0.00    +0.000 A 
ATOM      7  C   UNL     1       2.534   7.847  17.602  0.00  0.00    +0.000 A 
ATOM      8  C   UNL     1       1.837   8.939  18.082  0.00  0.00    +0.000 A 
ATOM      9  N   UNL     1       1.487   9.100  19.375  0.00  0.00    +0.000 NA
ATOM     10  C   UNL     1       1.846   8.135  20.245  0.00  0.00    +0.000 A 
ATOM     11  N   UNL     1       1.342   8.135  21.557  0.00  0.00    +0.000 N 
ATOM     12  C   UNL     1       2.607   7.039  19.840  0.00  0.00    +0.000 A 
ATOM     13  H   UNL     1       1.975   7.653  22.187  0.00  0.00    +0.000 HD
BRANCH  11  14
ATOM     14  C   UNL     1       0.999   9.461  22.058  0.00  0.00    +0.000 C 
ATOM     15  C   UNL     1      -0.327   9.379  22.800  0.00  0.00    +0.000 C 
ENDBRANCH  11  14
ENDBRANCH   5   6
BRANCH   4  16
ATOM     16  C   UNL     1       2.916   3.775  19.446  0.00  0.00    +0.000 A 
ATOM     17  C   UNL     1       3.475   3.259  20.627  0.00  0.00    +0.000 A 
ATOM     18  C   UNL     1       2.658   2.691  21.612  0.00  0.00    +0.000 A 
ATOM     19  C   UNL     1       1.288   2.631  21.411  0.00  0.00    +0.000 A 
ATOM     20  F   UNL     1       0.501   2.104  22.359  0.00  0.00    +0.000 F 
ATOM     21  C   UNL     1       0.713   3.121  20.245  0.00  0.00    +0.000 A 
ATOM     22  C   UNL     1       1.529   3.676  19.253  0.00  0.00    +0.000 A 
ENDBRANCH   4  16
BRANCH   2  23
ATOM     23  S   UNL     1       6.628   4.048  15.928  0.00  0.00    +0.000 S 
ATOM     24  C   UNL     1       5.768   4.054  14.336  0.00  0.00    +0.000 C 
ENDBRANCH   2  23
BRANCH   1  25
ATOM     25  C   UNL     1       5.193   6.890  16.231  0.00  0.00    +0.000 C 
BRANCH  25  27
ATOM     26  C   UNL     1       7.391   7.279  17.473  0.00  0.00    +0.000 C 
ATOM     27  C   UNL     1       6.185   7.910  16.801  0.00  0.00    +0.000 C 
ENDBRANCH  25  27
ENDBRANCH   1  25
TORSDOF 6
ENDMDL
MODEL 3
REMARK VINA RESULT:      -6.8      0.947      2.010
REMARK  Name = 
REMARK  9 active torsions:
REMARK  status: ('A' for Active; 'I' for Inactive)
REMARK    1  A    between atoms: C_1  and  C_2
REMARK    2  A    between atoms: C_2  and  C_3
REMARK    3  A    between atoms: C_3  and  N_4
REMARK    4  A    between atoms: C_5  and  S_6
REMARK    5  A    between atoms: S_6  and  C_7
REMARK    6  A    between atoms: C_9  and  C_10
REMARK    7  A    between atoms: C_17  and  C_18
REMARK    8  A    between atoms: N_23  and  C_24
REMARK    9  A    between atoms: C_24  and  C_25
REMARK                            x       y       z     vdW  Elec       q    Type
REMARK                         _______ _______ _______ _____ _____    ______ ____
ROOT
ATOM      1  N   UNL     1       2.635   4.025  18.781  0.00  0.00    +0.000 N 
ATOM      2  C   UNL     1       3.569   3.142  18.282  0.00  0.00    +0.000 A 
ATOM      3  N   UNL     1       4.691   3.743  17.974  0.00  0.00    +0.000 NA
ATOM      4  C   UNL     1       4.516   5.055  18.312  0.00  0.00    +0.000 A 
ATOM      5  C   UNL     1       3.224   5.297  18.804  0.00  0.00    +0.000 A 
ENDROOT
BRANCH   5   6
ATOM      6  C   UNL     1       2.591   6.565  19.202  0.00  0.00    +0.000 A 
ATOM      7  C   UNL     1       2.320   6.831  20.546  0.00  0.00    +0.000 A 
ATOM      8  C   UNL     1       1.648   7.992  20.877  0.00  0.00    +0.000 A 
ATOM      9  N   UNL     1       1.279   8.931  19.981  0.00  0.00    +0.000 NA
ATOM     10  C   UNL     1       1.585   8.713  18.687  0.00  0.00    +0.000 A 
ATOM     11  N   UNL     1       1.417   9.733  17.733  0.00  0.00    +0.000 N 
ATOM     12  C   UNL     1       2.202   7.533  18.274  0.00  0.00    +0.000 A 
ATOM     13  H   UNL     1       1.275   9.343  16.807  0.00  0.00    +0.000 HD
BRANCH  11  14
ATOM     14  C   UNL     1       0.371  10.692  18.072  0.00  0.00    +0.000 C 
ATOM     15  C   UNL     1      -0.977  10.112  17.667  0.00  0.00    +0.000 C 
ENDBRANCH  11  14
ENDBRANCH   5   6
BRANCH   4  16
ATOM     16  C   UNL     1       5.593   6.018  18.130  0.00  0.00    +0.000 A 
ATOM     17  C   UNL     1       6.787   5.849  18.851  0.00  0.00    +0.000 A 
ATOM     18  C   UNL     1       7.858   6.732  18.669  0.00  0.00    +0.000 A 
ATOM     19  C   UNL     1       7.731   7.784  17.776  0.00  0.00    +0.000 A 
ATOM     20  F   UNL     1       8.760   8.622  17.586  0.00  0.00    +0.000 F 
ATOM     21  C   UNL     1       6.555   7.980  17.063  0.00  0.00    +0.000 A 
ATOM     22  C   UNL     1       5.478   7.108  17.254  0.00  0.00    +0.000 A 
ENDBRANCH   4  16
BRANCH   2  23
ATOM     23  S   UNL     1       3.301   1.437  18.105  0.00  0.00    +0.000 S 
ATOM     24  C   UNL     1       4.443   0.765  19.336  0.00  0.00    +0.000 C 
ENDBRANCH   2  23
BRANCH   1  25
ATOM     25  C   UNL     1       1.314   3.651  19.278  0.00  0.00    +0.000 C 
BRANCH  25  27
ATOM     26  C   UNL     1       1.840   2.568  21.530  0.00  0.00    +0.000 C 
ATOM     27  C   UNL     1       1.092   3.665  20.794  0.00  0.00    +0.000 C 
ENDBRANCH  25  27
ENDBRANCH   1  25
TORSDOF 6
ENDMDL
MODEL 4
REMARK VINA RESULT:      -6.7      2.852      5.813
REMARK  Name = 
REMARK  9 active torsions:
REMARK  status: ('A' for Active; 'I' for Inactive)
REMARK    1  A    between atoms: C_1  and  C_2
REMARK    2  A    between atoms: C_2  and  C_3
REMARK    3  A    between atoms: C_3  and  N_4
REMARK    4  A    between atoms: C_5  and  S_6
REMARK    5  A    between atoms: S_6  and  C_7
REMARK    6  A    between atoms: C_9  and  C_10
REMARK    7  A    between atoms: C_17  and  C_18
REMARK    8  A    between atoms: N_23  and  C_24
REMARK    9  A    between atoms: C_24  and  C_25
REMARK                            x       y       z     vdW  Elec       q    Type
REMARK                         _______ _______ _______ _____ _____    ______ ____
ROOT
ATOM      1  N   UNL     1       2.645   5.747  19.368  0.00  0.00    +0.000 N 
ATOM      2  C   UNL     1       2.722   7.017  18.836  0.00  0.00    +0.000 A 
ATOM      3  N   UNL     1       3.587   7.082  17.854  0.00  0.00    +0.000 NA
ATOM      4  C   UNL     1       4.073   5.815  17.701  0.00  0.00    +0.000 A 
ATOM      5  C   UNL     1       3.531   4.933  18.650  0.00  0.00    +0.000 A 
ENDROOT
BRANCH   5   6
ATOM      6  C   UNL     1       3.835   3.513  18.896  0.00  0.00    +0.000 A 
ATOM      7  C   UNL     1       3.402   2.530  18.003  0.00  0.00    +0.000 A 
ATOM      8  C   UNL     1       3.630   1.202  18.307  0.00  0.00    +0.000 A 
ATOM      9  N   UNL     1       4.303   0.783  19.398  0.00  0.00    +0.000 NA
ATOM     10  C   UNL     1       4.776   1.724  20.240  0.00  0.00    +0.000 A 
ATOM     11  N   UNL     1       5.656   1.374  21.279  0.00  0.00    +0.000 N 
ATOM     12  C   UNL     1       4.525   3.079  20.029  0.00  0.00    +0.000 A 
ATOM     13  H   UNL     1       5.596   2.038  22.043  0.00  0.00    +0.000 HD
BRANCH  11  14
ATOM     14  C   UNL     1       5.496   0.003  21.751  0.00  0.00    +0.000 C 
ATOM     15  C   UNL     1       6.791  -0.443  22.415  0.00  0.00    +0.000 C 
ENDBRANCH  11  14
ENDBRANCH   5   6
BRANCH   4  16
ATOM     16  C   UNL     1       5.046   5.514  16.662  0.00  0.00    +0.000 A 
ATOM     17  C   UNL     1       4.657   4.715  15.573  0.00  0.00    +0.000 A 
ATOM     18  C   UNL     1       5.556   4.441  14.535  0.00  0.00    +0.000 A 
ATOM     19  C   UNL     1       6.840   4.957  14.591  0.00  0.00    +0.000 A 
ATOM     20  F   UNL     1       7.699   4.711  13.591  0.00  0.00    +0.000 F 
ATOM     21  C   UNL     1       7.254   5.736  15.665  0.00  0.00    +0.000 A 
ATOM     22  C   UNL     1       6.363   5.999  16.710  0.00  0.00    +0.000 A 
ENDBRANCH   4  16
BRANCH   2  23
ATOM     23  S   UNL     1       1.772   8.362  19.382  0.00  0.00    +0.000 S 
ATOM     24  C   UNL     1       1.763   9.415  17.911  0.00  0.00    +0.000 C 
ENDBRANCH   2  23
BRANCH   1  25
ATOM     25  C   UNL     1       1.725   5.340  20.425  0.00  0.00    +0.000 C 
BRANCH  25  27
ATOM     26  C   UNL     1       1.183   2.972  21.217  0.00  0.00    +0.000 C 
ATOM     27  C   UNL     1       0.902   4.066  20.202  0.00  0.00    +0.000 C 
ENDBRANCH  25  27
ENDBRANCH   1  25
TORSDOF 6
ENDMDL
MODEL 5
REMARK VINA RESULT:      -6.6      2.900      5.394
REMARK  Name = 
REMARK  9 active torsions:
REMARK  status: ('A' for Active; 'I' for Inactive)
REMARK    1  A    between atoms: C_1  and  C_2
REMARK    2  A    between atoms: C_2  and  C_3
REMARK    3  A    between atoms: C_3  and  N_4
REMARK    4  A    between atoms: C_5  and  S_6
REMARK    5  A    between atoms: S_6  and  C_7
REMARK    6  A    between atoms: C_9  and  C_10
REMARK    7  A    between atoms: C_17  and  C_18
REMARK    8  A    between atoms: N_23  and  C_24
REMARK    9  A    between atoms: C_24  and  C_25
REMARK                            x       y       z     vdW  Elec       q    Type
REMARK                         _______ _______ _______ _____ _____    ______ ____
ROOT
ATOM      1  N   UNL     1       4.689   5.844  17.259  0.00  0.00    +0.000 N 
ATOM      2  C   UNL     1       5.219   4.580  17.107  0.00  0.00    +0.000 A 
ATOM      3  N   UNL     1       4.661   3.717  17.920  0.00  0.00    +0.000 NA
ATOM      4  C   UNL     1       3.706   4.414  18.605  0.00  0.00    +0.000 A 
ATOM      5  C   UNL     1       3.696   5.772  18.246  0.00  0.00    +0.000 A 
ENDROOT
BRANCH   5   6
ATOM      6  C   UNL     1       2.898   6.883  18.790  0.00  0.00    +0.000 A 
ATOM      7  C   UNL     1       2.608   6.945  20.155  0.00  0.00    +0.000 A 
ATOM      8  C   UNL     1       1.785   7.954  20.619  0.00  0.00    +0.000 A 
ATOM      9  N   UNL     1       1.279   8.932  19.840  0.00  0.00    +0.000 NA
ATOM     10  C   UNL     1       1.598   8.916  18.531  0.00  0.00    +0.000 A 
ATOM     11  N   UNL     1       1.279  10.010  17.706  0.00  0.00    +0.000 N 
ATOM     12  C   UNL     1       2.368   7.892  17.983  0.00  0.00    +0.000 A 
ATOM     13  H   UNL     1       1.182   9.717  16.740  0.00  0.00    +0.000 HD
BRANCH  11  14
ATOM     14  C   UNL     1       0.114  10.766  18.152  0.00  0.00    +0.000 C 
ATOM     15  C   UNL     1      -1.142  10.099  17.609  0.00  0.00    +0.000 C 
ENDBRANCH  11  14
ENDBRANCH   5   6
BRANCH   4  16
ATOM     16  C   UNL     1       2.861   3.748  19.584  0.00  0.00    +0.000 A 
ATOM     17  C   UNL     1       3.461   3.109  20.682  0.00  0.00    +0.000 A 
ATOM     18  C   UNL     1       2.675   2.494  21.665  0.00  0.00    +0.000 A 
ATOM     19  C   UNL     1       1.295   2.513  21.544  0.00  0.00    +0.000 A 
ATOM     20  F   UNL     1       0.538   1.941  22.491  0.00  0.00    +0.000 F 
ATOM     21  C   UNL     1       0.678   3.125  20.460  0.00  0.00    +0.000 A 
ATOM     22  C   UNL     1       1.461   3.726  19.469  0.00  0.00    +0.000 A 
ENDBRANCH   4  16
BRANCH   2  23
ATOM     23  S   UNL     1       6.457   4.174  15.963  0.00  0.00    +0.000 S 
ATOM     24  C   UNL     1       5.527   4.176  14.411  0.00  0.00    +0.000 C 
ENDBRANCH   2  23
BRANCH   1  25
ATOM     25  C   UNL     1       5.052   7.004  16.451  0.00  0.00    +0.000 C 
BRANCH  25  27
ATOM     26  C   UNL     1       7.383   7.401  17.418  0.00  0.00    +0.000 C 
ATOM     27  C   UNL     1       6.041   8.009  17.051  0.00  0.00    +0.000 C 
ENDBRANCH  25  27
ENDBRANCH   1  25
TORSDOF 6
ENDMDL
MODEL 6
REMARK VINA RESULT:      -6.6      2.733      5.944
REMARK  Name = 
REMARK  9 active torsions:
REMARK  status: ('A' for Active; 'I' for Inactive)
REMARK    1  A    between atoms: C_1  and  C_2
REMARK    2  A    between atoms: C_2  and  C_3
REMARK    3  A    between atoms: C_3  and  N_4
REMARK    4  A    between atoms: C_5  and  S_6
REMARK    5  A    between atoms: S_6  and  C_7
REMARK    6  A    between atoms: C_9  and  C_10
REMARK    7  A    between atoms: C_17  and  C_18
REMARK    8  A    between atoms: N_23  and  C_24
REMARK    9  A    between atoms: C_24  and  C_25
REMARK                            x       y       z     vdW  Elec       q    Type
REMARK                         _______ _______ _______ _____ _____    ______ ____
ROOT
ATOM      1  N   UNL     1       3.638   3.961  19.774  0.00  0.00    +0.000 N 
ATOM      2  C   UNL     1       2.651   4.138  20.721  0.00  0.00    +0.000 A 
ATOM      3  N   UNL     1       2.097   5.322  20.632  0.00  0.00    +0.000 NA
ATOM      4  C   UNL     1       2.703   5.938  19.575  0.00  0.00    +0.000 A 
ATOM      5  C   UNL     1       3.705   5.134  19.009  0.00  0.00    +0.000 A 
ENDROOT
BRANCH   5   6
ATOM      6  C   UNL     1       4.650   5.434  17.920  0.00  0.00    +0.000 A 
ATOM      7  C   UNL     1       5.386   6.621  17.928  0.00  0.00    +0.000 A 
ATOM      8  C   UNL     1       6.199   6.912  16.849  0.00  0.00    +0.000 A 
ATOM      9  N   UNL     1       6.378   6.088  15.797  0.00  0.00    +0.000 NA
ATOM     10  C   UNL     1       5.718   4.913  15.803  0.00  0.00    +0.000 A 
ATOM     11  N   UNL     1       6.013   3.924  14.848  0.00  0.00    +0.000 N 
ATOM     12  C   UNL     1       4.830   4.585  16.827  0.00  0.00    +0.000 A 
ATOM     13  H   UNL     1       5.214   3.317  14.698  0.00  0.00    +0.000 HD
BRANCH  11  14
ATOM     14  C   UNL     1       6.523   4.453  13.589  0.00  0.00    +0.000 C 
ATOM     15  C   UNL     1       6.105   3.522  12.459  0.00  0.00    +0.000 C 
ENDBRANCH  11  14
ENDBRANCH   5   6
BRANCH   4  16
ATOM     16  C   UNL     1       2.302   7.277  19.167  0.00  0.00    +0.000 A 
ATOM     17  C   UNL     1       1.765   8.150  20.128  0.00  0.00    +0.000 A 
ATOM     18  C   UNL     1       1.409   9.459  19.780  0.00  0.00    +0.000 A 
ATOM     19  C   UNL     1       1.582   9.888  18.474  0.00  0.00    +0.000 A 
ATOM     20  F   UNL     1       1.258  11.145  18.139  0.00  0.00    +0.000 F 
ATOM     21  C   UNL     1       2.097   9.038  17.502  0.00  0.00    +0.000 A 
ATOM     22  C   UNL     1       2.440   7.726  17.844  0.00  0.00    +0.000 A 
ENDBRANCH   4  16
BRANCH   2  23
ATOM     23  S   UNL     1       2.182   2.931  21.876  0.00  0.00    +0.000 S 
ATOM     24  C   UNL     1       0.757   2.182  21.051  0.00  0.00    +0.000 C 
ENDBRANCH   2  23
BRANCH   1  25
ATOM     25  C   UNL     1       4.390   2.727  19.572  0.00  0.00    +0.000 C 
BRANCH  25  27
ATOM     26  C   UNL     1       2.609   2.098  17.853  0.00  0.00    +0.000 C 
ATOM     27  C   UNL     1       3.724   1.611  18.761  0.00  0.00    +0.000 C 
ENDBRANCH  25  27
ENDBRANCH   1  25
TORSDOF 6
ENDMDL
MODEL 7
REMARK VINA RESULT:      -6.5      6.300      9.647
REMARK  Name = 
REMARK  9 active torsions:
REMARK  status: ('A' for Active; 'I' for Inactive)
REMARK    1  A    between atoms: C_1  and  C_2
REMARK    2  A    between atoms: C_2  and  C_3
REMARK    3  A    between atoms: C_3  and  N_4
REMARK    4  A    between atoms: C_5  and  S_6
REMARK    5  A    between atoms: S_6  and  C_7
REMARK    6  A    between atoms: C_9  and  C_10
REMARK    7  A    between atoms: C_17  and  C_18
REMARK    8  A    between atoms: N_23  and  C_24
REMARK    9  A    between atoms: C_24  and  C_25
REMARK                            x       y       z     vdW  Elec       q    Type
REMARK                         _______ _______ _______ _____ _____    ______ ____
ROOT
ATOM      1  N   UNL     1      -0.026  14.468  20.477  0.00  0.00    +0.000 N 
ATOM      2  C   UNL     1       1.112  14.456  21.257  0.00  0.00    +0.000 A 
ATOM      3  N   UNL     1       1.520  13.236  21.503  0.00  0.00    +0.000 NA
ATOM      4  C   UNL     1       0.656  12.412  20.839  0.00  0.00    +0.000 A 
ATOM      5  C   UNL     1      -0.359  13.137  20.192  0.00  0.00    +0.000 A 
ENDROOT
BRANCH   5   6
ATOM      6  C   UNL     1      -1.529  12.651  19.442  0.00  0.00    +0.000 A 
ATOM      7  C   UNL     1      -2.799  12.665  20.024  0.00  0.00    +0.000 A 
ATOM      8  C   UNL     1      -3.861  12.125  19.325  0.00  0.00    +0.000 A 
ATOM      9  N   UNL     1      -3.766  11.627  18.075  0.00  0.00    +0.000 NA
ATOM     10  C   UNL     1      -2.557  11.659  17.480  0.00  0.00    +0.000 A 
ATOM     11  N   UNL     1      -2.426  11.350  16.114  0.00  0.00    +0.000 N 
ATOM     12  C   UNL     1      -1.430  12.130  18.151  0.00  0.00    +0.000 A 
ATOM     13  H   UNL     1      -1.492  11.010  15.909  0.00  0.00    +0.000 HD
BRANCH  11  14
ATOM     14  C   UNL     1      -3.447  10.436  15.615  0.00  0.00    +0.000 C 
ATOM     15  C   UNL     1      -3.098  10.042  14.187  0.00  0.00    +0.000 C 
ENDBRANCH  11  14
ENDBRANCH   5   6
BRANCH   4  16
ATOM     16  C   UNL     1       0.835  10.968  20.870  0.00  0.00    +0.000 A 
ATOM     17  C   UNL     1       0.573  10.274  22.063  0.00  0.00    +0.000 A 
ATOM     18  C   UNL     1       0.694   8.880  22.116  0.00  0.00    +0.000 A 
ATOM     19  C   UNL     1       1.084   8.185  20.982  0.00  0.00    +0.000 A 
ATOM     20  F   UNL     1       1.185   6.849  21.023  0.00  0.00    +0.000 F 
ATOM     21  C   UNL     1       1.364   8.851  19.794  0.00  0.00    +0.000 A 
ATOM     22  C   UNL     1       1.258  10.245  19.743  0.00  0.00    +0.000 A 
ENDBRANCH   4  16
BRANCH   2  23
ATOM     23  S   UNL     1       1.919  15.882  21.825  0.00  0.00    +0.000 S 
ATOM     24  C   UNL     1       3.200  16.094  20.565  0.00  0.00    +0.000 C 
ENDBRANCH   2  23
BRANCH   1  25
ATOM     25  C   UNL     1      -0.682  15.672  19.976  0.00  0.00    +0.000 C 
BRANCH  25  27
ATOM     26  C   UNL     1      -0.898  17.512  18.218  0.00  0.00    +0.000 C 
ATOM     27  C   UNL     1      -0.289  16.169  18.581  0.00  0.00    +0.000 C 
ENDBRANCH  25  27
ENDBRANCH   1  25
TORSDOF 6
ENDMDL
MODEL 8
REMARK VINA RESULT:      -6.4      0.908      1.454
REMARK  Name = 
REMARK  9 active torsions:
REMARK  status: ('A' for Active; 'I' for Inactive)
REMARK    1  A    between atoms: C_1  and  C_2
REMARK    2  A    between atoms: C_2  and  C_3
REMARK    3  A    between atoms: C_3  and  N_4
REMARK    4  A    between atoms: C_5  and  S_6
REMARK    5  A    between atoms: S_6  and  C_7
REMARK    6  A    between atoms: C_9  and  C_10
REMARK    7  A    between atoms: C_17  and  C_18
REMARK    8  A    between atoms: N_23  and  C_24
REMARK    9  A    between atoms: C_24  and  C_25
REMARK                            x       y       z     vdW  Elec       q    Type
REMARK                         _______ _______ _______ _____ _____    ______ ____
ROOT
ATOM      1  N   UNL     1       3.202   3.747  19.995  0.00  0.00    +0.000 N 
ATOM      2  C   UNL     1       4.249   2.876  19.776  0.00  0.00    +0.000 A 
ATOM      3  N   UNL     1       5.279   3.480  19.236  0.00  0.00    +0.000 NA
ATOM      4  C   UNL     1       4.926   4.795  19.128  0.00  0.00    +0.000 A 
ATOM      5  C   UNL     1       3.612   5.018  19.569  0.00  0.00    +0.000 A 
ENDROOT
BRANCH   5   6
ATOM      6  C   UNL     1       2.811   6.253  19.552  0.00  0.00    +0.000 A 
ATOM      7  C   UNL     1       2.601   6.944  18.356  0.00  0.00    +0.000 A 
ATOM      8  C   UNL     1       1.916   8.145  18.388  0.00  0.00    +0.000 A 
ATOM      9  N   UNL     1       1.379   8.676  19.505  0.00  0.00    +0.000 NA
ATOM     10  C   UNL     1       1.525   7.991  20.656  0.00  0.00    +0.000 A 
ATOM     11  N   UNL     1       0.821   8.378  21.810  0.00  0.00    +0.000 N 
ATOM     12  C   UNL     1       2.260   6.808  20.708  0.00  0.00    +0.000 A 
ATOM     13  H   UNL     1       1.311   8.081  22.648  0.00  0.00    +0.000 HD
BRANCH  11  14
ATOM     14  C   UNL     1       0.500   9.800  21.857  0.00  0.00    +0.000 C 
ATOM     15  C   UNL     1      -0.477  10.046  22.998  0.00  0.00    +0.000 C 
ENDBRANCH  11  14
ENDBRANCH   5   6
BRANCH   4  16
ATOM     16  C   UNL     1       5.861   5.772  18.590  0.00  0.00    +0.000 A 
ATOM     17  C   UNL     1       7.118   5.921  19.201  0.00  0.00    +0.000 A 
ATOM     18  C   UNL     1       8.058   6.821  18.684  0.00  0.00    +0.000 A 
ATOM     19  C   UNL     1       7.737   7.575  17.566  0.00  0.00    +0.000 A 
ATOM     20  F   UNL     1       8.640   8.426  17.058  0.00  0.00    +0.000 F 
ATOM     21  C   UNL     1       6.495   7.457  16.954  0.00  0.00    +0.000 A 
ATOM     22  C   UNL     1       5.549   6.569  17.477  0.00  0.00    +0.000 A 
ENDBRANCH   4  16
BRANCH   2  23
ATOM     23  S   UNL     1       4.217   1.191  20.185  0.00  0.00    +0.000 S 
ATOM     24  C   UNL     1       5.510   1.104  21.447  0.00  0.00    +0.000 C 
ENDBRANCH   2  23
BRANCH   1  25
ATOM     25  C   UNL     1       1.944   3.393  20.645  0.00  0.00    +0.000 C 
BRANCH  25  27
ATOM     26  C   UNL     1       1.019   2.489  18.443  0.00  0.00    +0.000 C 
ATOM     27  C   UNL     1       0.714   3.190  19.755  0.00  0.00    +0.000 C 
ENDBRANCH  25  27
ENDBRANCH   1  25
TORSDOF 6
ENDMDL
MODEL 9
REMARK VINA RESULT:      -6.3      7.945     11.006
REMARK  Name = 
REMARK  9 active torsions:
REMARK  status: ('A' for Active; 'I' for Inactive)
REMARK    1  A    between atoms: C_1  and  C_2
REMARK    2  A    between atoms: C_2  and  C_3
REMARK    3  A    between atoms: C_3  and  N_4
REMARK    4  A    between atoms: C_5  and  S_6
REMARK    5  A    between atoms: S_6  and  C_7
REMARK    6  A    between atoms: C_9  and  C_10
REMARK    7  A    between atoms: C_17  and  C_18
REMARK    8  A    between atoms: N_23  and  C_24
REMARK    9  A    between atoms: C_24  and  C_25
REMARK                            x       y       z     vdW  Elec       q    Type
REMARK                         _______ _______ _______ _____ _____    ______ ____
ROOT
ATOM      1  N   UNL     1      -4.101  11.922  18.818  0.00  0.00    +0.000 N 
ATOM      2  C   UNL     1      -5.395  12.196  19.207  0.00  0.00    +0.000 A 
ATOM      3  N   UNL     1      -5.442  12.738  20.399  0.00  0.00    +0.000 NA
ATOM      4  C   UNL     1      -4.142  12.864  20.802  0.00  0.00    +0.000 A 
ATOM      5  C   UNL     1      -3.251  12.340  19.851  0.00  0.00    +0.000 A 
ENDROOT
BRANCH   5   6
ATOM      6  C   UNL     1      -1.787  12.197  19.914  0.00  0.00    +0.000 A 
ATOM      7  C   UNL     1      -1.189  11.480  20.953  0.00  0.00    +0.000 A 
ATOM      8  C   UNL     1       0.190  11.436  21.030  0.00  0.00    +0.000 A 
ATOM      9  N   UNL     1       1.013  12.000  20.123  0.00  0.00    +0.000 NA
ATOM     10  C   UNL     1       0.449  12.647  19.084  0.00  0.00    +0.000 A 
ATOM     11  N   UNL     1       1.235  13.078  18.000  0.00  0.00    +0.000 N 
ATOM     12  C   UNL     1      -0.934  12.786  18.980  0.00  0.00    +0.000 A 
ATOM     13  H   UNL     1       0.805  13.869  17.534  0.00  0.00    +0.000 HD
BRANCH  11  14
ATOM     14  C   UNL     1       2.623  13.358  18.352  0.00  0.00    +0.000 C 
ATOM     15  C   UNL     1       2.856  14.860  18.273  0.00  0.00    +0.000 C 
ENDBRANCH  11  14
ENDBRANCH   5   6
BRANCH   4  16
ATOM     16  C   UNL     1      -3.819  13.467  22.086  0.00  0.00    +0.000 A 
ATOM     17  C   UNL     1      -4.093  12.751  23.264  0.00  0.00    +0.000 A 
ATOM     18  C   UNL     1      -3.756  13.282  24.514  0.00  0.00    +0.000 A 
ATOM     19  C   UNL     1      -3.155  14.529  24.586  0.00  0.00    +0.000 A 
ATOM     20  F   UNL     1      -2.815  15.035  25.780  0.00  0.00    +0.000 F 
ATOM     21  C   UNL     1      -2.888  15.263  23.437  0.00  0.00    +0.000 A 
ATOM     22  C   UNL     1      -3.237  14.740  22.187  0.00  0.00    +0.000 A 
ENDBRANCH   4  16
BRANCH   2  23
ATOM     23  S   UNL     1      -6.793  11.885  18.228  0.00  0.00    +0.000 S 
ATOM     24  C   UNL     1      -6.841  13.366  17.191  0.00  0.00    +0.000 C 
ENDBRANCH   2  23
BRANCH   1  25
ATOM     25  C   UNL     1      -3.716  11.382  17.518  0.00  0.00    +0.000 C 
BRANCH  25  27
ATOM     26  C   UNL     1      -1.790   9.776  17.034  0.00  0.00    +0.000 C 
ATOM     27  C   UNL     1      -3.238   9.927  17.464  0.00  0.00    +0.000 C 
ENDBRANCH  25  27
ENDBRANCH   1  25
TORSDOF 6
ENDMDL
