MODEL 1
REMARK VINA RESULT:      -7.9      0.000      0.000
REMARK  Name = 
REMARK  10 active torsions:
REMARK  status: ('A' for Active; 'I' for Inactive)
REMARK    1  A    between atoms: C_1  and  C_2
REMARK    2  A    between atoms: C_2  and  C_3
REMARK    3  A    between atoms: C_2  and  C_4
REMARK    4  A    between atoms: C_7  and  C_8
REMARK    5  A    between atoms: C_8  and  C_9
REMARK    6  A    between atoms: C_9  and  N_10
REMARK    7  A    between atoms: C_11  and  C_13
REMARK    8  A    between atoms: C_17  and  S_18
REMARK    9  A    between atoms: S_18  and  N_21
REMARK   10  A    between atoms: N_24  and  C_25
REMARK                            x       y       z     vdW  Elec       q    Type
REMARK                         _______ _______ _______ _____ _____    ______ ____
ROOT
ATOM      1  C   UNL     1       1.988   6.731  19.709  0.00  0.00    +0.000 A 
ATOM      2  C   UNL     1       2.723   6.858  18.523  0.00  0.00    +0.000 A 
ATOM      3  C   UNL     1       2.776   8.082  17.847  0.00  0.00    +0.000 A 
ATOM      4  C   UNL     1       2.086   9.189  18.344  0.00  0.00    +0.000 A 
ATOM      5  C   UNL     1       1.371   9.080  19.542  0.00  0.00    +0.000 A 
ATOM      6  C   UNL     1       1.323   7.853  20.230  0.00  0.00    +0.000 A 
ENDROOT
BRANCH   1   8
ATOM      7  N   UNL     1       1.269   4.394  19.653  0.00  0.00    +0.000 N 
ATOM      8  C   UNL     1       1.925   5.384  20.356  0.00  0.00    +0.000 C 
ATOM      9  O   UNL     1       2.476   5.196  21.434  0.00  0.00    +0.000 OA
ATOM     10  H   UNL     1       1.026   4.558  18.686  0.00  0.00    +0.000 HD
BRANCH   7  11
ATOM     11  C   UNL     1       1.229   3.014  20.108  0.00  0.00    +0.000 C 
BRANCH  11  12
ATOM     12  C   UNL     1       2.368   2.127  19.594  0.00  0.00    +0.000 C 
BRANCH  12  16
ATOM     13  C   UNL     1       5.291   4.364  17.302  0.00  0.00    +0.000 A 
ATOM     14  C   UNL     1       4.156   3.828  16.674  0.00  0.00    +0.000 A 
ATOM     15  C   UNL     1       3.226   3.069  17.393  0.00  0.00    +0.000 A 
ATOM     16  C   UNL     1       3.414   2.828  18.759  0.00  0.00    +0.000 A 
ATOM     17  C   UNL     1       4.565   3.325  19.378  0.00  0.00    +0.000 A 
ATOM     18  C   UNL     1       5.489   4.088  18.661  0.00  0.00    +0.000 A 
BRANCH  13  20
ATOM     19  C   UNL     1       5.332   6.253  15.686  0.00  0.00    +0.000 C 
ATOM     20  C   UNL     1       6.195   5.318  16.539  0.00  0.00    +0.000 C 
ATOM     21  C   UNL     1       7.142   6.131  17.430  0.00  0.00    +0.000 C 
ENDBRANCH  13  20
ENDBRANCH  12  16
ENDBRANCH  11  12
ENDBRANCH   7  11
ENDBRANCH   1   8
BRANCH   5  22
ATOM     22  S   UNL     1       0.284  10.409  20.046  0.00  0.00    +0.000 S 
ATOM     23  O   UNL     1      -0.731   9.823  20.896  0.00  0.00    +0.000 OA
ATOM     24  O   UNL     1       1.149  11.454  20.554  0.00  0.00    +0.000 OA
BRANCH  22  25
ATOM     25  N   UNL     1      -0.456  11.002  18.664  0.00  0.00    +0.000 NA
ATOM     26  C   UNL     1      -1.092  12.337  18.638  0.00  0.00    +0.000 C 
ATOM     27  C   UNL     1      -2.619  12.234  18.823  0.00  0.00    +0.000 C 
ATOM     28  N   UNL     1      -3.274  11.263  17.920  0.00  0.00    +0.000 NA
ATOM     29  C   UNL     1      -4.673  11.079  18.313  0.00  0.00    +0.000 C 
ATOM     30  C   UNL     1      -2.575   9.960  17.912  0.00  0.00    +0.000 C 
ATOM     31  C   UNL     1      -1.058  10.078  17.680  0.00  0.00    +0.000 C 
ENDBRANCH  22  25
ENDBRANCH   5  22
TORSDOF 7
ENDMDL
MODEL 2
REMARK VINA RESULT:      -7.7      1.709      2.245
REMARK  Name = 
REMARK  10 active torsions:
REMARK  status: ('A' for Active; 'I' for Inactive)
REMARK    1  A    between atoms: C_1  and  C_2
REMARK    2  A    between atoms: C_2  and  C_3
REMARK    3  A    between atoms: C_2  and  C_4
REMARK    4  A    between atoms: C_7  and  C_8
REMARK    5  A    between atoms: C_8  and  C_9
REMARK    6  A    between atoms: C_9  and  N_10
REMARK    7  A    between atoms: C_11  and  C_13
REMARK    8  A    between atoms: C_17  and  S_18
REMARK    9  A    between atoms: S_18  and  N_21
REMARK   10  A    between atoms: N_24  and  C_25
REMARK                            x       y       z     vdW  Elec       q    Type
REMARK                         _______ _______ _______ _____ _____    ______ ____
ROOT
ATOM      1  C   UNL     1       1.975   6.718  19.740  0.00  0.00    +0.000 A 
ATOM      2  C   UNL     1       2.528   6.879  18.462  0.00  0.00    +0.000 A 
ATOM      3  C   UNL     1       2.534   8.135  17.844  0.00  0.00    +0.000 A 
ATOM      4  C   UNL     1       1.978   9.239  18.492  0.00  0.00    +0.000 A 
ATOM      5  C   UNL     1       1.447   9.094  19.779  0.00  0.00    +0.000 A 
ATOM      6  C   UNL     1       1.448   7.835  20.408  0.00  0.00    +0.000 A 
ENDROOT
BRANCH   1   8
ATOM      7  N   UNL     1       1.381   4.353  19.548  0.00  0.00    +0.000 N 
ATOM      8  C   UNL     1       1.949   5.341  20.325  0.00  0.00    +0.000 C 
ATOM      9  O   UNL     1       2.454   5.133  21.421  0.00  0.00    +0.000 OA
ATOM     10  H   UNL     1       1.179   4.548  18.577  0.00  0.00    +0.000 HD
BRANCH   7  11
ATOM     11  C   UNL     1       1.389   2.953  19.941  0.00  0.00    +0.000 C 
BRANCH  11  12
ATOM     12  C   UNL     1       2.570   2.135  19.409  0.00  0.00    +0.000 C 
BRANCH  12  16
ATOM     13  C   UNL     1       5.379   4.567  17.171  0.00  0.00    +0.000 A 
ATOM     14  C   UNL     1       4.282   3.974  16.526  0.00  0.00    +0.000 A 
ATOM     15  C   UNL     1       3.391   3.154  17.228  0.00  0.00    +0.000 A 
ATOM     16  C   UNL     1       3.581   2.906  18.592  0.00  0.00    +0.000 A 
ATOM     17  C   UNL     1       4.697   3.461  19.227  0.00  0.00    +0.000 A 
ATOM     18  C   UNL     1       5.581   4.285  18.528  0.00  0.00    +0.000 A 
BRANCH  13  20
ATOM     19  C   UNL     1       7.189   6.253  17.419  0.00  0.00    +0.000 C 
ATOM     20  C   UNL     1       6.233   5.580  16.428  0.00  0.00    +0.000 C 
ATOM     21  C   UNL     1       7.015   4.995  15.247  0.00  0.00    +0.000 C 
ENDBRANCH  13  20
ENDBRANCH  12  16
ENDBRANCH  11  12
ENDBRANCH   7  11
ENDBRANCH   1   8
BRANCH   5  22
ATOM     22  S   UNL     1       0.510  10.434  20.504  0.00  0.00    +0.000 S 
ATOM     23  O   UNL     1      -0.878  10.215  20.155  0.00  0.00    +0.000 OA
ATOM     24  O   UNL     1       0.914  10.490  21.894  0.00  0.00    +0.000 OA
BRANCH  22  25
ATOM     25  N   UNL     1       1.023  11.855  19.778  0.00  0.00    +0.000 NA
ATOM     26  C   UNL     1       1.866  12.833  20.499  0.00  0.00    +0.000 C 
ATOM     27  C   UNL     1       1.023  13.996  21.057  0.00  0.00    +0.000 C 
ATOM     28  N   UNL     1       0.127  14.625  20.062  0.00  0.00    +0.000 NA
ATOM     29  C   UNL     1      -0.779  15.564  20.728  0.00  0.00    +0.000 C 
ATOM     30  C   UNL     1      -0.651  13.620  19.307  0.00  0.00    +0.000 C 
ATOM     31  C   UNL     1       0.213  12.490  18.718  0.00  0.00    +0.000 C 
ENDBRANCH  22  25
ENDBRANCH   5  22
TORSDOF 7
ENDMDL
MODEL 3
REMARK VINA RESULT:      -7.6      2.055      2.599
REMARK  Name = 
REMARK  10 active torsions:
REMARK  status: ('A' for Active; 'I' for Inactive)
REMARK    1  A    between atoms: C_1  and  C_2
REMARK    2  A    between atoms: C_2  and  C_3
REMARK    3  A    between atoms: C_2  and  C_4
REMARK    4  A    between atoms: C_7  and  C_8
REMARK    5  A    between atoms: C_8  and  C_9
REMARK    6  A    between atoms: C_9  and  N_10
REMARK    7  A    between atoms: C_11  and  C_13
REMARK    8  A    between atoms: C_17  and  S_18
REMARK    9  A    between atoms: S_18  and  N_21
REMARK   10  A    between atoms: N_24  and  C_25
REMARK                            x       y       z     vdW  Elec       q    Type
REMARK                         _______ _______ _______ _____ _____    ______ ____
ROOT
ATOM      1  C   UNL     1       2.019   7.012  19.519  0.00  0.00    +0.000 A 
ATOM      2  C   UNL     1       2.787   7.094  18.349  0.00  0.00    +0.000 A 
ATOM      3  C   UNL     1       2.816   8.275  17.600  0.00  0.00    +0.000 A 
ATOM      4  C   UNL     1       2.069   9.383  18.006  0.00  0.00    +0.000 A 
ATOM      5  C   UNL     1       1.320   9.320  19.186  0.00  0.00    +0.000 A 
ATOM      6  C   UNL     1       1.296   8.136  19.948  0.00  0.00    +0.000 A 
ENDROOT
BRANCH   1   8
ATOM      7  N   UNL     1       1.417   4.642  19.576  0.00  0.00    +0.000 N 
ATOM      8  C   UNL     1       1.986   5.705  20.246  0.00  0.00    +0.000 C 
ATOM      9  O   UNL     1       2.485   5.613  21.361  0.00  0.00    +0.000 OA
ATOM     10  H   UNL     1       1.220   4.733  18.589  0.00  0.00    +0.000 HD
BRANCH   7  11
ATOM     11  C   UNL     1       1.419   3.292  20.116  0.00  0.00    +0.000 C 
BRANCH  11  12
ATOM     12  C   UNL     1       2.545   2.388  19.604  0.00  0.00    +0.000 C 
BRANCH  12  16
ATOM     13  C   UNL     1       5.404   4.552  17.165  0.00  0.00    +0.000 A 
ATOM     14  C   UNL     1       4.299   3.920  16.571  0.00  0.00    +0.000 A 
ATOM     15  C   UNL     1       3.392   3.185  17.341  0.00  0.00    +0.000 A 
ATOM     16  C   UNL     1       3.572   3.062  18.724  0.00  0.00    +0.000 A 
ATOM     17  C   UNL     1       4.695   3.654  19.311  0.00  0.00    +0.000 A 
ATOM     18  C   UNL     1       5.596   4.395  18.543  0.00  0.00    +0.000 A 
BRANCH  13  20
ATOM     19  C   UNL     1       7.257   6.207  17.262  0.00  0.00    +0.000 C 
ATOM     20  C   UNL     1       6.278   5.478  16.335  0.00  0.00    +0.000 C 
ATOM     21  C   UNL     1       7.038   4.775  15.204  0.00  0.00    +0.000 C 
ENDBRANCH  13  20
ENDBRANCH  12  16
ENDBRANCH  11  12
ENDBRANCH   7  11
ENDBRANCH   1   8
BRANCH   5  22
ATOM     22  S   UNL     1       0.169  10.633  19.573  0.00  0.00    +0.000 S 
ATOM     23  O   UNL     1       0.430  11.710  18.641  0.00  0.00    +0.000 OA
ATOM     24  O   UNL     1      -1.138  10.010  19.622  0.00  0.00    +0.000 OA
BRANCH  22  25
ATOM     25  N   UNL     1       0.524  11.171  21.120  0.00  0.00    +0.000 NA
ATOM     26  C   UNL     1       0.032  10.460  22.320  0.00  0.00    +0.000 C 
ATOM     27  C   UNL     1      -1.225  11.139  22.898  0.00  0.00    +0.000 C 
ATOM     28  N   UNL     1      -1.083  12.597  23.107  0.00  0.00    +0.000 NA
ATOM     29  C   UNL     1      -2.381  13.182  23.450  0.00  0.00    +0.000 C 
ATOM     30  C   UNL     1      -0.523  13.271  21.917  0.00  0.00    +0.000 C 
ATOM     31  C   UNL     1       0.758  12.607  21.380  0.00  0.00    +0.000 C 
ENDBRANCH  22  25
ENDBRANCH   5  22
TORSDOF 7
ENDMDL
MODEL 4
REMARK VINA RESULT:      -7.5      2.622      8.349
REMARK  Name = 
REMARK  10 active torsions:
REMARK  status: ('A' for Active; 'I' for Inactive)
REMARK    1  A    between atoms: C_1  and  C_2
REMARK    2  A    between atoms: C_2  and  C_3
REMARK    3  A    between atoms: C_2  and  C_4
REMARK    4  A    between atoms: C_7  and  C_8
REMARK    5  A    between atoms: C_8  and  C_9
REMARK    6  A    between atoms: C_9  and  N_10
REMARK    7  A    between atoms: C_11  and  C_13
REMARK    8  A    between atoms: C_17  and  S_18
REMARK    9  A    between atoms: S_18  and  N_21
REMARK   10  A    between atoms: N_24  and  C_25
REMARK                            x       y       z     vdW  Elec       q    Type
REMARK                         _______ _______ _______ _____ _____    ______ ____
ROOT
ATOM      1  C   UNL     1       2.599   7.247  19.304  0.00  0.00    +0.000 A 
ATOM      2  C   UNL     1       2.643   8.033  18.145  0.00  0.00    +0.000 A 
ATOM      3  C   UNL     1       3.482   7.684  17.081  0.00  0.00    +0.000 A 
ATOM      4  C   UNL     1       4.293   6.551  17.169  0.00  0.00    +0.000 A 
ATOM      5  C   UNL     1       4.238   5.745  18.311  0.00  0.00    +0.000 A 
ATOM      6  C   UNL     1       3.388   6.088  19.379  0.00  0.00    +0.000 A 
ENDROOT
BRANCH   1   8
ATOM      7  N   UNL     1       1.637   9.064  20.628  0.00  0.00    +0.000 N 
ATOM      8  C   UNL     1       1.724   7.702  20.428  0.00  0.00    +0.000 C 
ATOM      9  O   UNL     1       1.099   6.880  21.088  0.00  0.00    +0.000 OA
ATOM     10  H   UNL     1       2.004   9.688  19.922  0.00  0.00    +0.000 HD
BRANCH   7  11
ATOM     11  C   UNL     1       0.738   9.650  21.609  0.00  0.00    +0.000 C 
BRANCH  11  12
ATOM     12  C   UNL     1       0.134  11.001  21.211  0.00  0.00    +0.000 C 
BRANCH  12  16
ATOM     13  C   UNL     1      -2.400  11.050  17.692  0.00  0.00    +0.000 A 
ATOM     14  C   UNL     1      -2.711  11.852  18.802  0.00  0.00    +0.000 A 
ATOM     15  C   UNL     1      -1.925  11.815  19.959  0.00  0.00    +0.000 A 
ATOM     16  C   UNL     1      -0.811  10.971  20.032  0.00  0.00    +0.000 A 
ATOM     17  C   UNL     1      -0.524  10.140  18.944  0.00  0.00    +0.000 A 
ATOM     18  C   UNL     1      -1.304  10.182  17.787  0.00  0.00    +0.000 A 
BRANCH  13  20
ATOM     19  C   UNL     1      -2.931  10.008  15.498  0.00  0.00    +0.000 C 
ATOM     20  C   UNL     1      -3.169  11.229  16.393  0.00  0.00    +0.000 C 
ATOM     21  C   UNL     1      -4.671  11.467  16.582  0.00  0.00    +0.000 C 
ENDBRANCH  13  20
ENDBRANCH  12  16
ENDBRANCH  11  12
ENDBRANCH   7  11
ENDBRANCH   1   8
BRANCH   5  22
ATOM     22  S   UNL     1       5.450   4.449  18.537  0.00  0.00    +0.000 S 
ATOM     23  O   UNL     1       6.238   4.393  17.324  0.00  0.00    +0.000 OA
ATOM     24  O   UNL     1       6.086   4.723  19.810  0.00  0.00    +0.000 OA
BRANCH  22  25
ATOM     25  N   UNL     1       4.615   3.004  18.697  0.00  0.00    +0.000 NA
ATOM     26  C   UNL     1       3.559   2.610  17.740  0.00  0.00    +0.000 C 
ATOM     27  C   UNL     1       2.155   2.919  18.296  0.00  0.00    +0.000 C 
ATOM     28  N   UNL     1       1.919   2.406  19.663  0.00  0.00    +0.000 NA
ATOM     29  C   UNL     1       0.653   2.928  20.181  0.00  0.00    +0.000 C 
ATOM     30  C   UNL     1       3.024   2.754  20.580  0.00  0.00    +0.000 C 
ATOM     31  C   UNL     1       4.417   2.396  20.030  0.00  0.00    +0.000 C 
ENDBRANCH  22  25
ENDBRANCH   5  22
TORSDOF 7
ENDMDL
MODEL 5
REMARK VINA RESULT:      -7.5      0.544      1.031
REMARK  Name = 
REMARK  10 active torsions:
REMARK  status: ('A' for Active; 'I' for Inactive)
REMARK    1  A    between atoms: C_1  and  C_2
REMARK    2  A    between atoms: C_2  and  C_3
REMARK    3  A    between atoms: C_2  and  C_4
REMARK    4  A    between atoms: C_7  and  C_8
REMARK    5  A    between atoms: C_8  and  C_9
REMARK    6  A    between atoms: C_9  and  N_10
REMARK    7  A    between atoms: C_11  and  C_13
REMARK    8  A    between atoms: C_17  and  S_18
REMARK    9  A    between atoms: S_18  and  N_21
REMARK   10  A    between atoms: N_24  and  C_25
REMARK                            x       y       z     vdW  Elec       q    Type
REMARK                         _______ _______ _______ _____ _____    ______ ____
ROOT
ATOM      1  C   UNL     1       1.945   6.838  19.572  0.00  0.00    +0.000 A 
ATOM      2  C   UNL     1       2.685   7.042  18.399  0.00  0.00    +0.000 A 
ATOM      3  C   UNL     1       2.716   8.300  17.788  0.00  0.00    +0.000 A 
ATOM      4  C   UNL     1       1.999   9.365  18.338  0.00  0.00    +0.000 A 
ATOM      5  C   UNL     1       1.279   9.179  19.523  0.00  0.00    +0.000 A 
ATOM      6  C   UNL     1       1.254   7.917  20.145  0.00  0.00    +0.000 A 
ENDROOT
BRANCH   1   8
ATOM      7  N   UNL     1       1.356   4.475  19.352  0.00  0.00    +0.000 N 
ATOM      8  C   UNL     1       1.908   5.457  20.147  0.00  0.00    +0.000 C 
ATOM      9  O   UNL     1       2.391   5.242  21.252  0.00  0.00    +0.000 OA
ATOM     10  H   UNL     1       1.173   4.676  18.378  0.00  0.00    +0.000 HD
BRANCH   7  11
ATOM     11  C   UNL     1       1.356   3.072  19.737  0.00  0.00    +0.000 C 
BRANCH  11  12
ATOM     12  C   UNL     1       2.580   2.273  19.279  0.00  0.00    +0.000 C 
BRANCH  12  16
ATOM     13  C   UNL     1       5.822   4.363  17.297  0.00  0.00    +0.000 A 
ATOM     14  C   UNL     1       5.821   4.216  18.693  0.00  0.00    +0.000 A 
ATOM     15  C   UNL     1       4.761   3.581  19.349  0.00  0.00    +0.000 A 
ATOM     16  C   UNL     1       3.676   3.079  18.621  0.00  0.00    +0.000 A 
ATOM     17  C   UNL     1       3.655   3.262  17.234  0.00  0.00    +0.000 A 
ATOM     18  C   UNL     1       4.716   3.890  16.580  0.00  0.00    +0.000 A 
BRANCH  13  20
ATOM     19  C   UNL     1       6.908   4.701  15.086  0.00  0.00    +0.000 C 
ATOM     20  C   UNL     1       7.057   4.907  16.597  0.00  0.00    +0.000 C 
ATOM     21  C   UNL     1       7.355   6.378  16.908  0.00  0.00    +0.000 C 
ENDBRANCH  13  20
ENDBRANCH  12  16
ENDBRANCH  11  12
ENDBRANCH   7  11
ENDBRANCH   1   8
BRANCH   5  22
ATOM     22  S   UNL     1       0.161  10.456  20.087  0.00  0.00    +0.000 S 
ATOM     23  O   UNL     1      -0.831   9.809  20.921  0.00  0.00    +0.000 OA
ATOM     24  O   UNL     1       1.002  11.503  20.630  0.00  0.00    +0.000 OA
BRANCH  22  25
ATOM     25  N   UNL     1      -0.607  11.083  18.736  0.00  0.00    +0.000 NA
ATOM     26  C   UNL     1      -1.331  12.371  18.784  0.00  0.00    +0.000 C 
ATOM     27  C   UNL     1      -2.849  12.156  18.944  0.00  0.00    +0.000 C 
ATOM     28  N   UNL     1      -3.430  11.201  17.976  0.00  0.00    +0.000 NA
ATOM     29  C   UNL     1      -4.817  10.900  18.340  0.00  0.00    +0.000 C 
ATOM     30  C   UNL     1      -2.645   9.951  17.896  0.00  0.00    +0.000 C 
ATOM     31  C   UNL     1      -1.137  10.183  17.690  0.00  0.00    +0.000 C 
ENDBRANCH  22  25
ENDBRANCH   5  22
TORSDOF 7
ENDMDL
MODEL 6
REMARK VINA RESULT:      -7.4      2.788      9.115
REMARK  Name = 
REMARK  10 active torsions:
REMARK  status: ('A' for Active; 'I' for Inactive)
REMARK    1  A    between atoms: C_1  and  C_2
REMARK    2  A    between atoms: C_2  and  C_3
REMARK    3  A    between atoms: C_2  and  C_4
REMARK    4  A    between atoms: C_7  and  C_8
REMARK    5  A    between atoms: C_8  and  C_9
REMARK    6  A    between atoms: C_9  and  N_10
REMARK    7  A    between atoms: C_11  and  C_13
REMARK    8  A    between atoms: C_17  and  S_18
REMARK    9  A    between atoms: S_18  and  N_21
REMARK   10  A    between atoms: N_24  and  C_25
REMARK                            x       y       z     vdW  Elec       q    Type
REMARK                         _______ _______ _______ _____ _____    ______ ____
ROOT
ATOM      1  C   UNL     1       2.008   6.649  20.094  0.00  0.00    +0.000 A 
ATOM      2  C   UNL     1       1.057   5.814  20.695  0.00  0.00    +0.000 A 
ATOM      3  C   UNL     1       1.232   4.426  20.698  0.00  0.00    +0.000 A 
ATOM      4  C   UNL     1       2.354   3.858  20.092  0.00  0.00    +0.000 A 
ATOM      5  C   UNL     1       3.323   4.685  19.513  0.00  0.00    +0.000 A 
ATOM      6  C   UNL     1       3.155   6.083  19.516  0.00  0.00    +0.000 A 
ENDROOT
BRANCH   1   8
ATOM      7  N   UNL     1       1.613   8.708  18.834  0.00  0.00    +0.000 N 
ATOM      8  C   UNL     1       1.737   8.121  20.075  0.00  0.00    +0.000 C 
ATOM      9  O   UNL     1       1.598   8.730  21.129  0.00  0.00    +0.000 OA
ATOM     10  H   UNL     1       1.528   8.117  18.018  0.00  0.00    +0.000 HD
BRANCH   7  11
ATOM     11  C   UNL     1       1.240  10.103  18.667  0.00  0.00    +0.000 C 
BRANCH  11  12
ATOM     12  C   UNL     1       0.135  10.597  19.606  0.00  0.00    +0.000 C 
BRANCH  12  16
ATOM     13  C   UNL     1      -3.839  11.147  17.958  0.00  0.00    +0.000 A 
ATOM     14  C   UNL     1      -2.952  10.225  17.380  0.00  0.00    +0.000 A 
ATOM     15  C   UNL     1      -1.653  10.067  17.877  0.00  0.00    +0.000 A 
ATOM     16  C   UNL     1      -1.211  10.832  18.962  0.00  0.00    +0.000 A 
ATOM     17  C   UNL     1      -2.078  11.783  19.512  0.00  0.00    +0.000 A 
ATOM     18  C   UNL     1      -3.377  11.934  19.021  0.00  0.00    +0.000 A 
BRANCH  13  20
ATOM     19  C   UNL     1      -6.178  10.646  18.637  0.00  0.00    +0.000 C 
ATOM     20  C   UNL     1      -5.290  11.182  17.508  0.00  0.00    +0.000 C 
ATOM     21  C   UNL     1      -5.774  12.566  17.061  0.00  0.00    +0.000 C 
ENDBRANCH  13  20
ENDBRANCH  12  16
ENDBRANCH  11  12
ENDBRANCH   7  11
ENDBRANCH   1   8
BRANCH   5  22
ATOM     22  S   UNL     1       4.622   3.962  18.518  0.00  0.00    +0.000 S 
ATOM     23  O   UNL     1       5.505   3.259  19.425  0.00  0.00    +0.000 OA
ATOM     24  O   UNL     1       3.950   3.247  17.452  0.00  0.00    +0.000 OA
BRANCH  22  25
ATOM     25  N   UNL     1       5.475   5.222  17.814  0.00  0.00    +0.000 NA
ATOM     26  C   UNL     1       4.878   6.065  16.756  0.00  0.00    +0.000 C 
ATOM     27  C   UNL     1       5.340   5.617  15.355  0.00  0.00    +0.000 C 
ATOM     28  N   UNL     1       6.805   5.468  15.220  0.00  0.00    +0.000 NA
ATOM     29  C   UNL     1       7.128   4.838  13.937  0.00  0.00    +0.000 C 
ATOM     30  C   UNL     1       7.383   4.681  16.330  0.00  0.00    +0.000 C 
ATOM     31  C   UNL     1       6.949   5.171  17.723  0.00  0.00    +0.000 C 
ENDBRANCH  22  25
ENDBRANCH   5  22
TORSDOF 7
ENDMDL
MODEL 7
REMARK VINA RESULT:      -7.4      1.391      1.900
REMARK  Name = 
REMARK  10 active torsions:
REMARK  status: ('A' for Active; 'I' for Inactive)
REMARK    1  A    between atoms: C_1  and  C_2
REMARK    2  A    between atoms: C_2  and  C_3
REMARK    3  A    between atoms: C_2  and  C_4
REMARK    4  A    between atoms: C_7  and  C_8
REMARK    5  A    between atoms: C_8  and  C_9
REMARK    6  A    between atoms: C_9  and  N_10
REMARK    7  A    between atoms: C_11  and  C_13
REMARK    8  A    between atoms: C_17  and  S_18
REMARK    9  A    between atoms: S_18  and  N_21
REMARK   10  A    between atoms: N_24  and  C_25
REMARK                            x       y       z     vdW  Elec       q    Type
REMARK                         _______ _______ _______ _____ _____    ______ ____
ROOT
ATOM      1  C   UNL     1       1.783   6.575  20.098  0.00  0.00    +0.000 A 
ATOM      2  C   UNL     1       2.300   6.789  18.812  0.00  0.00    +0.000 A 
ATOM      3  C   UNL     1       2.298   8.070  18.249  0.00  0.00    +0.000 A 
ATOM      4  C   UNL     1       1.770   9.148  18.961  0.00  0.00    +0.000 A 
ATOM      5  C   UNL     1       1.275   8.951  20.255  0.00  0.00    +0.000 A 
ATOM      6  C   UNL     1       1.285   7.665  20.828  0.00  0.00    +0.000 A 
ENDROOT
BRANCH   1   8
ATOM      7  N   UNL     1       0.964   4.276  19.949  0.00  0.00    +0.000 N 
ATOM      8  C   UNL     1       1.764   5.174  20.623  0.00  0.00    +0.000 C 
ATOM      9  O   UNL     1       2.469   4.870  21.578  0.00  0.00    +0.000 OA
ATOM     10  H   UNL     1       0.580   4.537  19.051  0.00  0.00    +0.000 HD
BRANCH   7  11
ATOM     11  C   UNL     1       0.936   2.860  20.279  0.00  0.00    +0.000 C 
BRANCH  11  12
ATOM     12  C   UNL     1       1.798   1.966  19.382  0.00  0.00    +0.000 C 
BRANCH  12  16
ATOM     13  C   UNL     1       4.940   4.194  17.389  0.00  0.00    +0.000 A 
ATOM     14  C   UNL     1       3.744   3.896  16.715  0.00  0.00    +0.000 A 
ATOM     15  C   UNL     1       2.739   3.143  17.333  0.00  0.00    +0.000 A 
ATOM     16  C   UNL     1       2.910   2.668  18.638  0.00  0.00    +0.000 A 
ATOM     17  C   UNL     1       4.118   2.927  19.295  0.00  0.00    +0.000 A 
ATOM     18  C   UNL     1       5.117   3.685  18.682  0.00  0.00    +0.000 A 
BRANCH  13  20
ATOM     19  C   UNL     1       5.724   6.553  17.334  0.00  0.00    +0.000 C 
ATOM     20  C   UNL     1       5.941   5.149  16.760  0.00  0.00    +0.000 C 
ATOM     21  C   UNL     1       7.404   4.723  16.930  0.00  0.00    +0.000 C 
ENDBRANCH  13  20
ENDBRANCH  12  16
ENDBRANCH  11  12
ENDBRANCH   7  11
ENDBRANCH   1   8
BRANCH   5  22
ATOM     22  S   UNL     1       0.371  10.264  21.065  0.00  0.00    +0.000 S 
ATOM     23  O   UNL     1      -0.523   9.635  22.016  0.00  0.00    +0.000 OA
ATOM     24  O   UNL     1       1.370  11.210  21.518  0.00  0.00    +0.000 OA
BRANCH  22  25
ATOM     25  N   UNL     1      -0.551  11.033  19.896  0.00  0.00    +0.000 NA
ATOM     26  C   UNL     1       0.031  11.455  18.604  0.00  0.00    +0.000 C 
ATOM     27  C   UNL     1       0.388  12.955  18.613  0.00  0.00    +0.000 C 
ATOM     28  N   UNL     1      -0.711  13.835  19.068  0.00  0.00    +0.000 NA
ATOM     29  C   UNL     1      -0.215  15.202  19.247  0.00  0.00    +0.000 C 
ATOM     30  C   UNL     1      -1.321  13.349  20.323  0.00  0.00    +0.000 C 
ATOM     31  C   UNL     1      -1.713  11.861  20.281  0.00  0.00    +0.000 C 
ENDBRANCH  22  25
ENDBRANCH   5  22
TORSDOF 7
ENDMDL
MODEL 8
REMARK VINA RESULT:      -7.3      2.878      9.348
REMARK  Name = 
REMARK  10 active torsions:
REMARK  status: ('A' for Active; 'I' for Inactive)
REMARK    1  A    between atoms: C_1  and  C_2
REMARK    2  A    between atoms: C_2  and  C_3
REMARK    3  A    between atoms: C_2  and  C_4
REMARK    4  A    between atoms: C_7  and  C_8
REMARK    5  A    between atoms: C_8  and  C_9
REMARK    6  A    between atoms: C_9  and  N_10
REMARK    7  A    between atoms: C_11  and  C_13
REMARK    8  A    between atoms: C_17  and  S_18
REMARK    9  A    between atoms: S_18  and  N_21
REMARK   10  A    between atoms: N_24  and  C_25
REMARK                            x       y       z     vdW  Elec       q    Type
REMARK                         _______ _______ _______ _____ _____    ______ ____
ROOT
ATOM      1  C   UNL     1       2.391   7.311  18.874  0.00  0.00    +0.000 A 
ATOM      2  C   UNL     1       1.889   6.959  20.135  0.00  0.00    +0.000 A 
ATOM      3  C   UNL     1       2.171   5.705  20.687  0.00  0.00    +0.000 A 
ATOM      4  C   UNL     1       2.949   4.785  19.980  0.00  0.00    +0.000 A 
ATOM      5  C   UNL     1       3.476   5.136  18.732  0.00  0.00    +0.000 A 
ATOM      6  C   UNL     1       3.202   6.401  18.178  0.00  0.00    +0.000 A 
ENDROOT
BRANCH   1   8
ATOM      7  N   UNL     1       1.317   9.490  19.156  0.00  0.00    +0.000 N 
ATOM      8  C   UNL     1       2.009   8.645  18.314  0.00  0.00    +0.000 C 
ATOM      9  O   UNL     1       2.348   8.950  17.177  0.00  0.00    +0.000 OA
ATOM     10  H   UNL     1       1.257   9.263  20.139  0.00  0.00    +0.000 HD
BRANCH   7  11
ATOM     11  C   UNL     1       0.982  10.855  18.783  0.00  0.00    +0.000 C 
BRANCH  11  12
ATOM     12  C   UNL     1      -0.057  11.537  19.680  0.00  0.00    +0.000 C 
BRANCH  12  16
ATOM     13  C   UNL     1      -4.127  11.220  18.219  0.00  0.00    +0.000 A 
ATOM     14  C   UNL     1      -3.820  12.084  19.282  0.00  0.00    +0.000 A 
ATOM     15  C   UNL     1      -2.519  12.165  19.790  0.00  0.00    +0.000 A 
ATOM     16  C   UNL     1      -1.495  11.380  19.247  0.00  0.00    +0.000 A 
ATOM     17  C   UNL     1      -1.808  10.487  18.216  0.00  0.00    +0.000 A 
ATOM     18  C   UNL     1      -3.105  10.412  17.704  0.00  0.00    +0.000 A 
BRANCH  13  20
ATOM     19  C   UNL     1      -6.534  10.699  18.560  0.00  0.00    +0.000 C 
ATOM     20  C   UNL     1      -5.505  11.271  17.579  0.00  0.00    +0.000 C 
ATOM     21  C   UNL     1      -5.929  12.670  17.117  0.00  0.00    +0.000 C 
ENDBRANCH  13  20
ENDBRANCH  12  16
ENDBRANCH  11  12
ENDBRANCH   7  11
ENDBRANCH   1   8
BRANCH   5  22
ATOM     22  S   UNL     1       4.250   3.884  17.716  0.00  0.00    +0.000 S 
ATOM     23  O   UNL     1       3.914   2.602  18.300  0.00  0.00    +0.000 OA
ATOM     24  O   UNL     1       3.865   4.189  16.354  0.00  0.00    +0.000 OA
BRANCH  22  25
ATOM     25  N   UNL     1       5.908   4.102  17.828  0.00  0.00    +0.000 NA
ATOM     26  C   UNL     1       6.536   4.646  19.051  0.00  0.00    +0.000 C 
ATOM     27  C   UNL     1       6.840   6.150  18.904  0.00  0.00    +0.000 C 
ATOM     28  N   UNL     1       7.575   6.501  17.669  0.00  0.00    +0.000 NA
ATOM     29  C   UNL     1       7.626   7.957  17.514  0.00  0.00    +0.000 C 
ATOM     30  C   UNL     1       6.966   5.885  16.472  0.00  0.00    +0.000 C 
ATOM     31  C   UNL     1       6.712   4.374  16.619  0.00  0.00    +0.000 C 
ENDBRANCH  22  25
ENDBRANCH   5  22
TORSDOF 7
ENDMDL
MODEL 9
REMARK VINA RESULT:      -7.3      7.184      9.219
REMARK  Name = 
REMARK  10 active torsions:
REMARK  status: ('A' for Active; 'I' for Inactive)
REMARK    1  A    between atoms: C_1  and  C_2
REMARK    2  A    between atoms: C_2  and  C_3
REMARK    3  A    between atoms: C_2  and  C_4
REMARK    4  A    between atoms: C_7  and  C_8
REMARK    5  A    between atoms: C_8  and  C_9
REMARK    6  A    between atoms: C_9  and  N_10
REMARK    7  A    between atoms: C_11  and  C_13
REMARK    8  A    between atoms: C_17  and  S_18
REMARK    9  A    between atoms: S_18  and  N_21
REMARK   10  A    between atoms: N_24  and  C_25
REMARK                            x       y       z     vdW  Elec       q    Type
REMARK                         _______ _______ _______ _____ _____    ______ ____
ROOT
ATOM      1  C   UNL     1       9.853  11.807  18.460  0.00  0.00    +0.000 A 
ATOM      2  C   UNL     1      11.052  11.712  17.741  0.00  0.00    +0.000 A 
ATOM      3  C   UNL     1      11.633  12.853  17.177  0.00  0.00    +0.000 A 
ATOM      4  C   UNL     1      11.017  14.098  17.316  0.00  0.00    +0.000 A 
ATOM      5  C   UNL     1       9.833  14.207  18.054  0.00  0.00    +0.000 A 
ATOM      6  C   UNL     1       9.250  13.063  18.632  0.00  0.00    +0.000 A 
ENDROOT
BRANCH   1   8
ATOM      7  N   UNL     1       8.718   9.677  18.063  0.00  0.00    +0.000 N 
ATOM      8  C   UNL     1       9.252  10.544  18.993  0.00  0.00    +0.000 C 
ATOM      9  O   UNL     1       9.291  10.309  20.195  0.00  0.00    +0.000 OA
ATOM     10  H   UNL     1       8.908   9.831  17.082  0.00  0.00    +0.000 HD
BRANCH   7  11
ATOM     11  C   UNL     1       8.204   8.366  18.428  0.00  0.00    +0.000 C 
BRANCH  11  12
ATOM     12  C   UNL     1       7.677   7.527  17.259  0.00  0.00    +0.000 C 
BRANCH  12  16
ATOM     13  C   UNL     1       4.252   5.081  18.302  0.00  0.00    +0.000 A 
ATOM     14  C   UNL     1       5.449   4.971  19.027  0.00  0.00    +0.000 A 
ATOM     15  C   UNL     1       6.575   5.725  18.675  0.00  0.00    +0.000 A 
ATOM     16  C   UNL     1       6.527   6.604  17.587  0.00  0.00    +0.000 A 
ATOM     17  C   UNL     1       5.349   6.683  16.837  0.00  0.00    +0.000 A 
ATOM     18  C   UNL     1       4.223   5.936  17.193  0.00  0.00    +0.000 A 
BRANCH  13  20
ATOM     19  C   UNL     1       2.647   4.915  20.194  0.00  0.00    +0.000 C 
ATOM     20  C   UNL     1       3.000   4.378  18.803  0.00  0.00    +0.000 C 
ATOM     21  C   UNL     1       1.796   4.498  17.863  0.00  0.00    +0.000 C 
ENDBRANCH  13  20
ENDBRANCH  12  16
ENDBRANCH  11  12
ENDBRANCH   7  11
ENDBRANCH   1   8
BRANCH   5  22
ATOM     22  S   UNL     1       8.909  15.738  18.020  0.00  0.00    +0.000 S 
ATOM     23  O   UNL     1       9.655  16.662  17.191  0.00  0.00    +0.000 OA
ATOM     24  O   UNL     1       7.553  15.372  17.668  0.00  0.00    +0.000 OA
BRANCH  22  25
ATOM     25  N   UNL     1       8.874  16.337  19.585  0.00  0.00    +0.000 NA
ATOM     26  C   UNL     1      10.074  16.314  20.450  0.00  0.00    +0.000 C 
ATOM     27  C   UNL     1      10.039  15.122  21.426  0.00  0.00    +0.000 C 
ATOM     28  N   UNL     1       8.775  14.998  22.185  0.00  0.00    +0.000 NA
ATOM     29  C   UNL     1       8.753  13.729  22.916  0.00  0.00    +0.000 C 
ATOM     30  C   UNL     1       7.592  15.096  21.304  0.00  0.00    +0.000 C 
ATOM     31  C   UNL     1       7.621  16.318  20.368  0.00  0.00    +0.000 C 
ENDBRANCH  22  25
ENDBRANCH   5  22
TORSDOF 7
ENDMDL
