MODEL 1
REMARK VINA RESULT:      -7.9      0.000      0.000
REMARK  Name = 
REMARK  5 active torsions:
REMARK  status: ('A' for Active; 'I' for Inactive)
REMARK    1  A    between atoms: N_1  and  C_2
REMARK    2  A    between atoms: C_2  and  C_3
REMARK    3  A    between atoms: C_3  and  C_4
REMARK    4  A    between atoms: C_3  and  C_11
REMARK    5  A    between atoms: C_14  and  C_15
REMARK                            x       y       z     vdW  Elec       q    Type
REMARK                         _______ _______ _______ _____ _____    ______ ____
ROOT
ATOM      1  C   UNL     1       4.938   4.400  18.359  0.00  0.00    +0.000 C 
ENDROOT
BRANCH   1   2
ATOM      2  C   UNL     1       5.584   4.478  16.972  0.00  0.00    +0.000 A 
ATOM      3  C   UNL     1       4.894   4.149  15.793  0.00  0.00    +0.000 A 
ATOM      4  C   UNL     1       5.501   4.288  14.543  0.00  0.00    +0.000 A 
ATOM      5  C   UNL     1       6.806   4.760  14.454  0.00  0.00    +0.000 A 
ATOM      6 CL   UNL     1       7.541   4.947  12.910  0.00  0.00    +0.000 Cl
ATOM      7  C   UNL     1       7.513   5.092  15.605  0.00  0.00    +0.000 A 
ATOM      8  C   UNL     1       6.905   4.953  16.857  0.00  0.00    +0.000 A 
ENDBRANCH   1   2
BRANCH   1   9
ATOM      9  C   UNL     1       4.021   5.595  18.613  0.00  0.00    +0.000 A 
ATOM     10  C   UNL     1       3.198   5.625  19.745  0.00  0.00    +0.000 A 
ATOM     11  C   UNL     1       2.306   6.684  19.953  0.00  0.00    +0.000 A 
ATOM     12  C   UNL     1       2.216   7.759  19.051  0.00  0.00    +0.000 A 
ATOM     13  C   UNL     1       3.072   7.730  17.937  0.00  0.00    +0.000 A 
ATOM     14  C   UNL     1       3.954   6.667  17.715  0.00  0.00    +0.000 A 
BRANCH  12  15
ATOM     15  C   UNL     1       1.255   8.869  19.261  0.00  0.00    +0.000 A 
ATOM     16  C   UNL     1       0.774   9.642  18.188  0.00  0.00    +0.000 A 
ATOM     17  C   UNL     1      -0.119  10.700  18.389  0.00  0.00    +0.000 A 
ATOM     18  C   UNL     1      -0.565  11.003  19.671  0.00  0.00    +0.000 A 
ATOM     19  C   UNL     1      -0.114  10.252  20.751  0.00  0.00    +0.000 A 
ATOM     20  C   UNL     1       0.790   9.204  20.547  0.00  0.00    +0.000 A 
ENDBRANCH  12  15
ENDBRANCH   1   9
BRANCH   1  21
ATOM     21  C   UNL     1       4.214   3.049  18.650  0.00  0.00    +0.000 C 
BRANCH  21  22
ATOM     22  N   UNL     1       4.877   2.213  19.659  0.00  0.00    +0.000 NA
ATOM     23  H   UNL     1       4.172   1.832  20.289  0.00  0.00    +0.000 HD
ATOM     24  H   UNL     1       5.472   2.810  20.239  0.00  0.00    +0.000 HD
ENDBRANCH  21  22
ENDBRANCH   1  21
TORSDOF 5
ENDMDL
MODEL 2
REMARK VINA RESULT:      -7.8      0.129      1.453
REMARK  Name = 
REMARK  5 active torsions:
REMARK  status: ('A' for Active; 'I' for Inactive)
REMARK    1  A    between atoms: N_1  and  C_2
REMARK    2  A    between atoms: C_2  and  C_3
REMARK    3  A    between atoms: C_3  and  C_4
REMARK    4  A    between atoms: C_3  and  C_11
REMARK    5  A    between atoms: C_14  and  C_15
REMARK                            x       y       z     vdW  Elec       q    Type
REMARK                         _______ _______ _______ _____ _____    ______ ____
ROOT
ATOM      1  C   UNL     1       4.914   4.358  18.401  0.00  0.00    +0.000 C 
ENDROOT
BRANCH   1   2
ATOM      2  C   UNL     1       5.566   4.455  17.017  0.00  0.00    +0.000 A 
ATOM      3  C   UNL     1       4.888   4.117  15.833  0.00  0.00    +0.000 A 
ATOM      4  C   UNL     1       5.499   4.275  14.587  0.00  0.00    +0.000 A 
ATOM      5  C   UNL     1       6.795   4.772  14.507  0.00  0.00    +0.000 A 
ATOM      6 CL   UNL     1       7.534   4.981  12.968  0.00  0.00    +0.000 Cl
ATOM      7  C   UNL     1       7.489   5.113  15.663  0.00  0.00    +0.000 A 
ATOM      8  C   UNL     1       6.877   4.956  16.911  0.00  0.00    +0.000 A 
ENDBRANCH   1   2
BRANCH   1   9
ATOM      9  C   UNL     1       3.931   5.504  18.633  0.00  0.00    +0.000 A 
ATOM     10  C   UNL     1       3.864   6.569  17.728  0.00  0.00    +0.000 A 
ATOM     11  C   UNL     1       3.013   7.656  17.965  0.00  0.00    +0.000 A 
ATOM     12  C   UNL     1       2.187   7.711  19.102  0.00  0.00    +0.000 A 
ATOM     13  C   UNL     1       2.243   6.618  19.984  0.00  0.00    +0.000 A 
ATOM     14  C   UNL     1       3.102   5.537  19.760  0.00  0.00    +0.000 A 
BRANCH  12  15
ATOM     15  C   UNL     1       1.304   8.874  19.363  0.00  0.00    +0.000 A 
ATOM     16  C   UNL     1       0.838   9.170  20.657  0.00  0.00    +0.000 A 
ATOM     17  C   UNL     1      -0.010  10.256  20.900  0.00  0.00    +0.000 A 
ATOM     18  C   UNL     1      -0.402  11.084  19.853  0.00  0.00    +0.000 A 
ATOM     19  C   UNL     1       0.048  10.821  18.564  0.00  0.00    +0.000 A 
ATOM     20  C   UNL     1       0.884   9.726  18.323  0.00  0.00    +0.000 A 
ENDBRANCH  12  15
ENDBRANCH   1   9
BRANCH   1  21
ATOM     21  C   UNL     1       4.262   2.973  18.702  0.00  0.00    +0.000 C 
BRANCH  21  22
ATOM     22  N   UNL     1       4.932   2.207  19.760  0.00  0.00    +0.000 NA
ATOM     23  H   UNL     1       5.685   2.772  20.153  0.00  0.00    +0.000 HD
ATOM     24  H   UNL     1       5.387   1.394  19.339  0.00  0.00    +0.000 HD
ENDBRANCH  21  22
ENDBRANCH   1  21
TORSDOF 5
ENDMDL
MODEL 3
REMARK VINA RESULT:      -7.8      0.210      1.048
REMARK  Name = 
REMARK  5 active torsions:
REMARK  status: ('A' for Active; 'I' for Inactive)
REMARK    1  A    between atoms: N_1  and  C_2
REMARK    2  A    between atoms: C_2  and  C_3
REMARK    3  A    between atoms: C_3  and  C_4
REMARK    4  A    between atoms: C_3  and  C_11
REMARK    5  A    between atoms: C_14  and  C_15
REMARK                            x       y       z     vdW  Elec       q    Type
REMARK                         _______ _______ _______ _____ _____    ______ ____
ROOT
ATOM      1  C   UNL     1       4.964   4.434  18.141  0.00  0.00    +0.000 C 
ENDROOT
BRANCH   1   2
ATOM      2  C   UNL     1       5.592   4.555  16.748  0.00  0.00    +0.000 A 
ATOM      3  C   UNL     1       6.892   5.045  16.541  0.00  0.00    +0.000 A 
ATOM      4  C   UNL     1       7.448   5.085  15.260  0.00  0.00    +0.000 A 
ATOM      5  C   UNL     1       6.713   4.634  14.170  0.00  0.00    +0.000 A 
ATOM      6 CL   UNL     1       7.412   4.669  12.598  0.00  0.00    +0.000 Cl
ATOM      7  C   UNL     1       5.423   4.146  14.346  0.00  0.00    +0.000 A 
ATOM      8  C   UNL     1       4.866   4.105  15.628  0.00  0.00    +0.000 A 
ENDBRANCH   1   2
BRANCH   1   9
ATOM      9  C   UNL     1       4.050   5.620  18.443  0.00  0.00    +0.000 A 
ATOM     10  C   UNL     1       3.256   5.623  19.595  0.00  0.00    +0.000 A 
ATOM     11  C   UNL     1       2.367   6.675  19.848  0.00  0.00    +0.000 A 
ATOM     12  C   UNL     1       2.251   7.769  18.973  0.00  0.00    +0.000 A 
ATOM     13  C   UNL     1       3.080   7.767  17.838  0.00  0.00    +0.000 A 
ATOM     14  C   UNL     1       3.959   6.712  17.572  0.00  0.00    +0.000 A 
BRANCH  12  15
ATOM     15  C   UNL     1       1.293   8.871  19.231  0.00  0.00    +0.000 A 
ATOM     16  C   UNL     1       0.818   9.694  18.193  0.00  0.00    +0.000 A 
ATOM     17  C   UNL     1      -0.072  10.745  18.440  0.00  0.00    +0.000 A 
ATOM     18  C   UNL     1      -0.522  10.989  19.733  0.00  0.00    +0.000 A 
ATOM     19  C   UNL     1      -0.077  10.188  20.779  0.00  0.00    +0.000 A 
ATOM     20  C   UNL     1       0.824   9.148  20.530  0.00  0.00    +0.000 A 
ENDBRANCH  12  15
ENDBRANCH   1   9
BRANCH   1  21
ATOM     21  C   UNL     1       4.244   3.075  18.400  0.00  0.00    +0.000 C 
BRANCH  21  22
ATOM     22  N   UNL     1       4.816   2.289  19.501  0.00  0.00    +0.000 NA
ATOM     23  H   UNL     1       4.638   1.299  19.330  0.00  0.00    +0.000 HD
ATOM     24  H   UNL     1       4.311   2.515  20.362  0.00  0.00    +0.000 HD
ENDBRANCH  21  22
ENDBRANCH   1  21
TORSDOF 5
ENDMDL
MODEL 4
REMARK VINA RESULT:      -7.8      0.153      1.782
REMARK  Name = 
REMARK  5 active torsions:
REMARK  status: ('A' for Active; 'I' for Inactive)
REMARK    1  A    between atoms: N_1  and  C_2
REMARK    2  A    between atoms: C_2  and  C_3
REMARK    3  A    between atoms: C_3  and  C_4
REMARK    4  A    between atoms: C_3  and  C_11
REMARK    5  A    between atoms: C_14  and  C_15
REMARK                            x       y       z     vdW  Elec       q    Type
REMARK                         _______ _______ _______ _____ _____    ______ ____
ROOT
ATOM      1  C   UNL     1       4.955   4.454  18.294  0.00  0.00    +0.000 C 
ENDROOT
BRANCH   1   2
ATOM      2  C   UNL     1       5.602   4.588  16.911  0.00  0.00    +0.000 A 
ATOM      3  C   UNL     1       6.914   5.058  16.729  0.00  0.00    +0.000 A 
ATOM      4  C   UNL     1       7.487   5.110  15.456  0.00  0.00    +0.000 A 
ATOM      5  C   UNL     1       6.758   4.693  14.348  0.00  0.00    +0.000 A 
ATOM      6 CL   UNL     1       7.476   4.743  12.786  0.00  0.00    +0.000 Cl
ATOM      7  C   UNL     1       5.456   4.225  14.500  0.00  0.00    +0.000 A 
ATOM      8  C   UNL     1       4.883   4.172  15.775  0.00  0.00    +0.000 A 
ENDBRANCH   1   2
BRANCH   1   9
ATOM      9  C   UNL     1       3.961   5.585  18.553  0.00  0.00    +0.000 A 
ATOM     10  C   UNL     1       3.878   6.668  17.670  0.00  0.00    +0.000 A 
ATOM     11  C   UNL     1       3.017   7.740  17.933  0.00  0.00    +0.000 A 
ATOM     12  C   UNL     1       2.196   7.764  19.074  0.00  0.00    +0.000 A 
ATOM     13  C   UNL     1       2.268   6.654  19.934  0.00  0.00    +0.000 A 
ATOM     14  C   UNL     1       3.137   5.586  19.684  0.00  0.00    +0.000 A 
BRANCH  12  15
ATOM     15  C   UNL     1       1.301   8.911  19.362  0.00  0.00    +0.000 A 
ATOM     16  C   UNL     1       0.864   9.196  20.669  0.00  0.00    +0.000 A 
ATOM     17  C   UNL     1       0.007  10.267  20.938  0.00  0.00    +0.000 A 
ATOM     18  C   UNL     1      -0.425  11.092  19.905  0.00  0.00    +0.000 A 
ATOM     19  C   UNL     1      -0.004  10.841  18.604  0.00  0.00    +0.000 A 
ATOM     20  C   UNL     1       0.842   9.760  18.337  0.00  0.00    +0.000 A 
ENDBRANCH  12  15
ENDBRANCH   1   9
BRANCH   1  21
ATOM     21  C   UNL     1       4.318   3.057  18.566  0.00  0.00    +0.000 C 
BRANCH  21  22
ATOM     22  N   UNL     1       4.911   2.333  19.698  0.00  0.00    +0.000 NA
ATOM     23  H   UNL     1       5.924   2.449  19.672  0.00  0.00    +0.000 HD
ATOM     24  H   UNL     1       4.745   1.332  19.571  0.00  0.00    +0.000 HD
ENDBRANCH  21  22
ENDBRANCH   1  21
TORSDOF 5
ENDMDL
MODEL 5
REMARK VINA RESULT:      -7.8      0.881      1.762
REMARK  Name = 
REMARK  5 active torsions:
REMARK  status: ('A' for Active; 'I' for Inactive)
REMARK    1  A    between atoms: N_1  and  C_2
REMARK    2  A    between atoms: C_2  and  C_3
REMARK    3  A    between atoms: C_3  and  C_4
REMARK    4  A    between atoms: C_3  and  C_11
REMARK    5  A    between atoms: C_14  and  C_15
REMARK                            x       y       z     vdW  Elec       q    Type
REMARK                         _______ _______ _______ _____ _____    ______ ____
ROOT
ATOM      1  C   UNL     1       4.376   3.799  18.163  0.00  0.00    +0.000 C 
ENDROOT
BRANCH   1   2
ATOM      2  C   UNL     1       5.249   4.206  16.971  0.00  0.00    +0.000 A 
ATOM      3  C   UNL     1       6.578   4.638  17.115  0.00  0.00    +0.000 A 
ATOM      4  C   UNL     1       7.358   4.945  15.997  0.00  0.00    +0.000 A 
ATOM      5  C   UNL     1       6.821   4.823  14.721  0.00  0.00    +0.000 A 
ATOM      6 CL   UNL     1       7.793   5.185  13.349  0.00  0.00    +0.000 Cl
ATOM      7  C   UNL     1       5.507   4.399  14.550  0.00  0.00    +0.000 A 
ATOM      8  C   UNL     1       4.726   4.091  15.668  0.00  0.00    +0.000 A 
ENDBRANCH   1   2
BRANCH   1   9
ATOM      9  C   UNL     1       3.561   4.981  18.683  0.00  0.00    +0.000 A 
ATOM     10  C   UNL     1       3.554   6.194  17.986  0.00  0.00    +0.000 A 
ATOM     11  C   UNL     1       2.862   7.304  18.487  0.00  0.00    +0.000 A 
ATOM     12  C   UNL     1       2.138   7.238  19.691  0.00  0.00    +0.000 A 
ATOM     13  C   UNL     1       2.129   6.004  20.363  0.00  0.00    +0.000 A 
ATOM     14  C   UNL     1       2.830   4.896  19.874  0.00  0.00    +0.000 A 
BRANCH  12  15
ATOM     15  C   UNL     1       1.425   8.421  20.233  0.00  0.00    +0.000 A 
ATOM     16  C   UNL     1       0.979   9.461  19.397  0.00  0.00    +0.000 A 
ATOM     17  C   UNL     1       0.323  10.584  19.910  0.00  0.00    +0.000 A 
ATOM     18  C   UNL     1       0.082  10.688  21.276  0.00  0.00    +0.000 A 
ATOM     19  C   UNL     1       0.504   9.673  22.127  0.00  0.00    +0.000 A 
ATOM     20  C   UNL     1       1.172   8.558  21.612  0.00  0.00    +0.000 A 
ENDBRANCH  12  15
ENDBRANCH   1   9
BRANCH   1  21
ATOM     21  C   UNL     1       3.476   2.553  17.898  0.00  0.00    +0.000 C 
BRANCH  21  22
ATOM     22  N   UNL     1       4.045   1.285  18.372  0.00  0.00    +0.000 NA
ATOM     23  H   UNL     1       3.489   0.513  18.004  0.00  0.00    +0.000 HD
ATOM     24  H   UNL     1       3.942   1.239  19.389  0.00  0.00    +0.000 HD
ENDBRANCH  21  22
ENDBRANCH   1  21
TORSDOF 5
ENDMDL
MODEL 6
REMARK VINA RESULT:      -7.8      0.788      1.680
REMARK  Name = 
REMARK  5 active torsions:
REMARK  status: ('A' for Active; 'I' for Inactive)
REMARK    1  A    between atoms: N_1  and  C_2
REMARK    2  A    between atoms: C_2  and  C_3
REMARK    3  A    between atoms: C_3  and  C_4
REMARK    4  A    between atoms: C_3  and  C_11
REMARK    5  A    between atoms: C_14  and  C_15
REMARK                            x       y       z     vdW  Elec       q    Type
REMARK                         _______ _______ _______ _____ _____    ______ ____
ROOT
ATOM      1  C   UNL     1       4.461   3.886  18.029  0.00  0.00    +0.000 C 
ENDROOT
BRANCH   1   2
ATOM      2  C   UNL     1       5.318   4.257  16.814  0.00  0.00    +0.000 A 
ATOM      3  C   UNL     1       6.634   4.737  16.932  0.00  0.00    +0.000 A 
ATOM      4  C   UNL     1       7.402   5.010  15.798  0.00  0.00    +0.000 A 
ATOM      5  C   UNL     1       6.868   4.806  14.531  0.00  0.00    +0.000 A 
ATOM      6 CL   UNL     1       7.826   5.126  13.139  0.00  0.00    +0.000 Cl
ATOM      7  C   UNL     1       5.567   4.333  14.386  0.00  0.00    +0.000 A 
ATOM      8  C   UNL     1       4.798   4.059  15.521  0.00  0.00    +0.000 A 
ENDBRANCH   1   2
BRANCH   1   9
ATOM      9  C   UNL     1       3.711   5.100  18.571  0.00  0.00    +0.000 A 
ATOM     10  C   UNL     1       3.044   5.026  19.799  0.00  0.00    +0.000 A 
ATOM     11  C   UNL     1       2.299   6.113  20.276  0.00  0.00    +0.000 A 
ATOM     12  C   UNL     1       2.208   7.316  19.554  0.00  0.00    +0.000 A 
ATOM     13  C   UNL     1       2.910   7.385  18.339  0.00  0.00    +0.000 A 
ATOM     14  C   UNL     1       3.643   6.298  17.851  0.00  0.00    +0.000 A 
BRANCH  12  15
ATOM     15  C   UNL     1       1.401   8.458  20.049  0.00  0.00    +0.000 A 
ATOM     16  C   UNL     1       0.930   8.510  21.374  0.00  0.00    +0.000 A 
ATOM     17  C   UNL     1       0.154   9.577  21.835  0.00  0.00    +0.000 A 
ATOM     18  C   UNL     1      -0.161  10.631  20.983  0.00  0.00    +0.000 A 
ATOM     19  C   UNL     1       0.296  10.612  19.670  0.00  0.00    +0.000 A 
ATOM     20  C   UNL     1       1.060   9.536  19.209  0.00  0.00    +0.000 A 
ENDBRANCH  12  15
ENDBRANCH   1   9
BRANCH   1  21
ATOM     21  C   UNL     1       3.501   2.680  17.785  0.00  0.00    +0.000 C 
BRANCH  21  22
ATOM     22  N   UNL     1       4.029   1.387  18.237  0.00  0.00    +0.000 NA
ATOM     23  H   UNL     1       3.755   0.665  17.571  0.00  0.00    +0.000 HD
ATOM     24  H   UNL     1       3.574   1.136  19.119  0.00  0.00    +0.000 HD
ENDBRANCH  21  22
ENDBRANCH   1  21
TORSDOF 5
ENDMDL
MODEL 7
REMARK VINA RESULT:      -7.7      0.782      1.311
REMARK  Name = 
REMARK  5 active torsions:
REMARK  status: ('A' for Active; 'I' for Inactive)
REMARK    1  A    between atoms: N_1  and  C_2
REMARK    2  A    between atoms: C_2  and  C_3
REMARK    3  A    between atoms: C_3  and  C_4
REMARK    4  A    between atoms: C_3  and  C_11
REMARK    5  A    between atoms: C_14  and  C_15
REMARK                            x       y       z     vdW  Elec       q    Type
REMARK                         _______ _______ _______ _____ _____    ______ ____
ROOT
ATOM      1  C   UNL     1       4.483   3.770  17.978  0.00  0.00    +0.000 C 
ENDROOT
BRANCH   1   2
ATOM      2  C   UNL     1       5.333   4.096  16.745  0.00  0.00    +0.000 A 
ATOM      3  C   UNL     1       4.845   3.975  15.433  0.00  0.00    +0.000 A 
ATOM      4  C   UNL     1       5.633   4.338  14.338  0.00  0.00    +0.000 A 
ATOM      5  C   UNL     1       6.918   4.827  14.540  0.00  0.00    +0.000 A 
ATOM      6 CL   UNL     1       7.876   5.290  13.188  0.00  0.00    +0.000 Cl
ATOM      7  C   UNL     1       7.427   4.956  15.828  0.00  0.00    +0.000 A 
ATOM      8  C   UNL     1       6.637   4.594  16.925  0.00  0.00    +0.000 A 
ENDBRANCH   1   2
BRANCH   1   9
ATOM      9  C   UNL     1       3.747   5.007  18.489  0.00  0.00    +0.000 A 
ATOM     10  C   UNL     1       3.042   4.960  19.697  0.00  0.00    +0.000 A 
ATOM     11  C   UNL     1       2.311   6.068  20.143  0.00  0.00    +0.000 A 
ATOM     12  C   UNL     1       2.272   7.268  19.410  0.00  0.00    +0.000 A 
ATOM     13  C   UNL     1       3.012   7.309  18.216  0.00  0.00    +0.000 A 
ATOM     14  C   UNL     1       3.732   6.201  17.758  0.00  0.00    +0.000 A 
BRANCH  12  15
ATOM     15  C   UNL     1       1.479   8.433  19.872  0.00  0.00    +0.000 A 
ATOM     16  C   UNL     1       1.005   8.526  21.194  0.00  0.00    +0.000 A 
ATOM     17  C   UNL     1       0.242   9.615  21.624  0.00  0.00    +0.000 A 
ATOM     18  C   UNL     1      -0.055  10.651  20.744  0.00  0.00    +0.000 A 
ATOM     19  C   UNL     1       0.406  10.592  19.433  0.00  0.00    +0.000 A 
ATOM     20  C   UNL     1       1.157   9.493  19.003  0.00  0.00    +0.000 A 
ENDBRANCH  12  15
ENDBRANCH   1   9
BRANCH   1  21
ATOM     21  C   UNL     1       3.511   2.566  17.781  0.00  0.00    +0.000 C 
BRANCH  21  22
ATOM     22  N   UNL     1       3.984   1.306  18.368  0.00  0.00    +0.000 NA
ATOM     23  H   UNL     1       4.481   0.772  17.654  0.00  0.00    +0.000 HD
ATOM     24  H   UNL     1       3.173   0.737  18.623  0.00  0.00    +0.000 HD
ENDBRANCH  21  22
ENDBRANCH   1  21
TORSDOF 5
ENDMDL
MODEL 8
REMARK VINA RESULT:      -7.7      0.997      1.854
REMARK  Name = 
REMARK  5 active torsions:
REMARK  status: ('A' for Active; 'I' for Inactive)
REMARK    1  A    between atoms: N_1  and  C_2
REMARK    2  A    between atoms: C_2  and  C_3
REMARK    3  A    between atoms: C_3  and  C_4
REMARK    4  A    between atoms: C_3  and  C_11
REMARK    5  A    between atoms: C_14  and  C_15
REMARK                            x       y       z     vdW  Elec       q    Type
REMARK                         _______ _______ _______ _____ _____    ______ ____
ROOT
ATOM      1  C   UNL     1       4.155   3.646  18.373  0.00  0.00    +0.000 C 
ENDROOT
BRANCH   1   2
ATOM      2  C   UNL     1       5.053   4.005  17.183  0.00  0.00    +0.000 A 
ATOM      3  C   UNL     1       4.619   3.911  15.850  0.00  0.00    +0.000 A 
ATOM      4  C   UNL     1       5.449   4.302  14.797  0.00  0.00    +0.000 A 
ATOM      5  C   UNL     1       6.722   4.794  15.061  0.00  0.00    +0.000 A 
ATOM      6 CL   UNL     1       7.731   5.292  13.760  0.00  0.00    +0.000 Cl
ATOM      7  C   UNL     1       7.176   4.897  16.372  0.00  0.00    +0.000 A 
ATOM      8  C   UNL     1       6.346   4.506  17.427  0.00  0.00    +0.000 A 
ENDBRANCH   1   2
BRANCH   1   9
ATOM      9  C   UNL     1       3.384   4.865  18.874  0.00  0.00    +0.000 A 
ATOM     10  C   UNL     1       3.367   6.046  18.124  0.00  0.00    +0.000 A 
ATOM     11  C   UNL     1       2.716   7.190  18.604  0.00  0.00    +0.000 A 
ATOM     12  C   UNL     1       2.046   7.191  19.840  0.00  0.00    +0.000 A 
ATOM     13  C   UNL     1       2.045   5.988  20.566  0.00  0.00    +0.000 A 
ATOM     14  C   UNL     1       2.705   4.847  20.098  0.00  0.00    +0.000 A 
BRANCH  12  15
ATOM     15  C   UNL     1       1.377   8.410  20.358  0.00  0.00    +0.000 A 
ATOM     16  C   UNL     1       1.063   8.556  21.722  0.00  0.00    +0.000 A 
ATOM     17  C   UNL     1       0.417   9.697  22.207  0.00  0.00    +0.000 A 
ATOM     18  C   UNL     1       0.081  10.731  21.339  0.00  0.00    +0.000 A 
ATOM     19  C   UNL     1       0.385  10.620  19.987  0.00  0.00    +0.000 A 
ATOM     20  C   UNL     1       1.018   9.470  19.503  0.00  0.00    +0.000 A 
ENDBRANCH  12  15
ENDBRANCH   1   9
BRANCH   1  21
ATOM     21  C   UNL     1       3.208   2.434  18.113  0.00  0.00    +0.000 C 
BRANCH  21  22
ATOM     22  N   UNL     1       3.837   1.123  18.312  0.00  0.00    +0.000 NA
ATOM     23  H   UNL     1       3.304   0.600  19.006  0.00  0.00    +0.000 HD
ATOM     24  H   UNL     1       4.764   1.262  18.723  0.00  0.00    +0.000 HD
ENDBRANCH  21  22
ENDBRANCH   1  21
TORSDOF 5
ENDMDL
MODEL 9
REMARK VINA RESULT:      -7.6      0.895      1.456
REMARK  Name = 
REMARK  5 active torsions:
REMARK  status: ('A' for Active; 'I' for Inactive)
REMARK    1  A    between atoms: N_1  and  C_2
REMARK    2  A    between atoms: C_2  and  C_3
REMARK    3  A    between atoms: C_3  and  C_4
REMARK    4  A    between atoms: C_3  and  C_11
REMARK    5  A    between atoms: C_14  and  C_15
REMARK                            x       y       z     vdW  Elec       q    Type
REMARK                         _______ _______ _______ _____ _____    ______ ____
ROOT
ATOM      1  C   UNL     1       4.275   3.901  18.405  0.00  0.00    +0.000 C 
ENDROOT
BRANCH   1   2
ATOM      2  C   UNL     1       5.155   4.263  17.203  0.00  0.00    +0.000 A 
ATOM      3  C   UNL     1       6.498   4.652  17.336  0.00  0.00    +0.000 A 
ATOM      4  C   UNL     1       7.283   4.918  16.211  0.00  0.00    +0.000 A 
ATOM      5  C   UNL     1       6.736   4.798  14.939  0.00  0.00    +0.000 A 
ATOM      6 CL   UNL     1       7.713   5.109  13.557  0.00  0.00    +0.000 Cl
ATOM      7  C   UNL     1       5.408   4.415  14.779  0.00  0.00    +0.000 A 
ATOM      8  C   UNL     1       4.623   4.148  15.905  0.00  0.00    +0.000 A 
ENDBRANCH   1   2
BRANCH   1   9
ATOM      9  C   UNL     1       3.525   5.123  18.931  0.00  0.00    +0.000 A 
ATOM     10  C   UNL     1       2.798   5.044  20.125  0.00  0.00    +0.000 A 
ATOM     11  C   UNL     1       2.055   6.138  20.584  0.00  0.00    +0.000 A 
ATOM     12  C   UNL     1       2.022   7.354  19.879  0.00  0.00    +0.000 A 
ATOM     13  C   UNL     1       2.782   7.427  18.699  0.00  0.00    +0.000 A 
ATOM     14  C   UNL     1       3.516   6.333  18.228  0.00  0.00    +0.000 A 
BRANCH  12  15
ATOM     15  C   UNL     1       1.215   8.505  20.354  0.00  0.00    +0.000 A 
ATOM     16  C   UNL     1       0.840   9.550  19.490  0.00  0.00    +0.000 A 
ATOM     17  C   UNL     1       0.095  10.643  19.942  0.00  0.00    +0.000 A 
ATOM     18  C   UNL     1      -0.308  10.711  21.271  0.00  0.00    +0.000 A 
ATOM     19  C   UNL     1       0.040   9.690  22.148  0.00  0.00    +0.000 A 
ATOM     20  C   UNL     1       0.798   8.605  21.695  0.00  0.00    +0.000 A 
ENDBRANCH  12  15
ENDBRANCH   1   9
BRANCH   1  21
ATOM     21  C   UNL     1       3.311   2.702  18.150  0.00  0.00    +0.000 C 
BRANCH  21  22
ATOM     22  N   UNL     1       3.943   1.382  18.272  0.00  0.00    +0.000 NA
ATOM     23  H   UNL     1       3.220   0.664  18.254  0.00  0.00    +0.000 HD
ATOM     24  H   UNL     1       4.380   1.312  19.195  0.00  0.00    +0.000 HD
ENDBRANCH  21  22
ENDBRANCH   1  21
TORSDOF 5
ENDMDL
