MODEL 1
REMARK VINA RESULT:      -7.1      0.000      0.000
REMARK  Name = 
REMARK  5 active torsions:
REMARK  status: ('A' for Active; 'I' for Inactive)
REMARK    1  A    between atoms: C_1  and  C_2
REMARK    2  A    between atoms: C_2  and  C_3
REMARK    3  A    between atoms: C_3  and  N_4
REMARK    4  A    between atoms: C_3  and  C_5
REMARK    5  A    between atoms: N_7  and  C_8
REMARK                            x       y       z     vdW  Elec       q    Type
REMARK                         _______ _______ _______ _____ _____    ______ ____
ROOT
ATOM      1  C   UNL     1       6.235   4.464  16.060  0.00  0.00    +0.000 C 
ATOM      2  O   UNL     1       6.924   4.448  17.080  0.00  0.00    +0.000 OA
ATOM      3  N   UNL     1       4.863   4.657  16.014  0.00  0.00    +0.000 N 
ATOM      4  H   UNL     1       4.447   4.505  15.099  0.00  0.00    +0.000 HD
ENDROOT
BRANCH   3   5
ATOM      5  C   UNL     1       4.019   4.829  17.137  0.00  0.00    +0.000 A 
ATOM      6  C   UNL     1       3.874   6.074  17.775  0.00  0.00    +0.000 A 
ATOM      7  C   UNL     1       3.108   6.225  18.931  0.00  0.00    +0.000 A 
ATOM      8  C   UNL     1       2.464   5.116  19.434  0.00  0.00    +0.000 A 
ATOM      9  C   UNL     1       2.561   3.873  18.795  0.00  0.00    +0.000 A 
ATOM     10  C   UNL     1       3.327   3.716  17.643  0.00  0.00    +0.000 A 
ATOM     11  C   UNL     1       1.820   2.835  19.584  0.00  0.00    +0.000 C 
ATOM     12  C   UNL     1       0.910   3.711  20.461  0.00  0.00    +0.000 C 
ATOM     13  C   UNL     1       1.660   5.026  20.691  0.00  0.00    +0.000 C 
ENDBRANCH   3   5
BRANCH   1  14
ATOM     14  C   UNL     1       6.902   4.290  14.675  0.00  0.00    +0.000 C 
BRANCH  14  15
ATOM     15  N   UNL     1       7.689   5.491  14.308  0.00  0.00    +0.000 NA
ATOM     16  H   UNL     1       7.846   5.474  13.298  0.00  0.00    +0.000 HD
ATOM     17  H   UNL     1       8.619   5.393  14.720  0.00  0.00    +0.000 HD
ENDBRANCH  14  15
BRANCH  14  19
ATOM     18  C   UNL     1       6.311   3.454  12.305  0.00  0.00    +0.000 C 
ATOM     19  C   UNL     1       5.804   3.964  13.643  0.00  0.00    +0.000 C 
ENDBRANCH  14  19
ENDBRANCH   1  14
TORSDOF 4
ENDMDL
MODEL 2
REMARK VINA RESULT:      -7.1      1.411      1.609
REMARK  Name = 
REMARK  5 active torsions:
REMARK  status: ('A' for Active; 'I' for Inactive)
REMARK    1  A    between atoms: C_1  and  C_2
REMARK    2  A    between atoms: C_2  and  C_3
REMARK    3  A    between atoms: C_3  and  N_4
REMARK    4  A    between atoms: C_3  and  C_5
REMARK    5  A    between atoms: N_7  and  C_8
REMARK                            x       y       z     vdW  Elec       q    Type
REMARK                         _______ _______ _______ _____ _____    ______ ____
ROOT
ATOM      1  C   UNL     1       5.603   4.518  16.216  0.00  0.00    +0.000 C 
ATOM      2  O   UNL     1       5.550   5.626  16.748  0.00  0.00    +0.000 OA
ATOM      3  N   UNL     1       4.772   3.445  16.497  0.00  0.00    +0.000 N 
ATOM      4  H   UNL     1       5.050   2.570  16.058  0.00  0.00    +0.000 HD
ENDROOT
BRANCH   3   5
ATOM      5  C   UNL     1       3.746   3.433  17.472  0.00  0.00    +0.000 A 
ATOM      6  C   UNL     1       2.451   3.909  17.195  0.00  0.00    +0.000 A 
ATOM      7  C   UNL     1       1.465   3.976  18.180  0.00  0.00    +0.000 A 
ATOM      8  C   UNL     1       1.780   3.536  19.447  0.00  0.00    +0.000 A 
ATOM      9  C   UNL     1       3.049   3.021  19.738  0.00  0.00    +0.000 A 
ATOM     10  C   UNL     1       4.039   2.956  18.761  0.00  0.00    +0.000 A 
ATOM     11  C   UNL     1       3.139   2.678  21.195  0.00  0.00    +0.000 C 
ATOM     12  C   UNL     1       1.652   2.606  21.583  0.00  0.00    +0.000 C 
ATOM     13  C   UNL     1       0.913   3.583  20.664  0.00  0.00    +0.000 C 
ENDBRANCH   3   5
BRANCH   1  14
ATOM     14  C   UNL     1       6.648   4.242  15.108  0.00  0.00    +0.000 C 
BRANCH  14  15
ATOM     15  N   UNL     1       7.612   5.362  14.995  0.00  0.00    +0.000 NA
ATOM     16  H   UNL     1       8.556   4.982  15.077  0.00  0.00    +0.000 HD
ATOM     17  H   UNL     1       7.496   5.959  15.817  0.00  0.00    +0.000 HD
ENDBRANCH  14  15
BRANCH  14  19
ATOM     18  C   UNL     1       6.786   3.823  12.564  0.00  0.00    +0.000 C 
ATOM     19  C   UNL     1       5.899   3.970  13.788  0.00  0.00    +0.000 C 
ENDBRANCH  14  19
ENDBRANCH   1  14
TORSDOF 4
ENDMDL
MODEL 3
REMARK VINA RESULT:      -7.0      1.093      1.093
REMARK  Name = 
REMARK  5 active torsions:
REMARK  status: ('A' for Active; 'I' for Inactive)
REMARK    1  A    between atoms: C_1  and  C_2
REMARK    2  A    between atoms: C_2  and  C_3
REMARK    3  A    between atoms: C_3  and  N_4
REMARK    4  A    between atoms: C_3  and  C_5
REMARK    5  A    between atoms: N_7  and  C_8
REMARK                            x       y       z     vdW  Elec       q    Type
REMARK                         _______ _______ _______ _____ _____    ______ ____
ROOT
ATOM      1  C   UNL     1       5.787   4.852  15.471  0.00  0.00    +0.000 C 
ATOM      2  O   UNL     1       5.284   5.969  15.360  0.00  0.00    +0.000 OA
ATOM      3  N   UNL     1       5.509   3.936  16.474  0.00  0.00    +0.000 N 
ATOM      4  H   UNL     1       6.118   3.121  16.480  0.00  0.00    +0.000 HD
ENDROOT
BRANCH   3   5
ATOM      5  C   UNL     1       4.628   4.149  17.561  0.00  0.00    +0.000 A 
ATOM      6  C   UNL     1       4.923   5.063  18.589  0.00  0.00    +0.000 A 
ATOM      7  C   UNL     1       4.095   5.211  19.702  0.00  0.00    +0.000 A 
ATOM      8  C   UNL     1       2.949   4.450  19.766  0.00  0.00    +0.000 A 
ATOM      9  C   UNL     1       2.613   3.562  18.737  0.00  0.00    +0.000 A 
ATOM     10  C   UNL     1       3.437   3.406  17.625  0.00  0.00    +0.000 A 
ATOM     11  C   UNL     1       1.359   2.821  19.091  0.00  0.00    +0.000 C 
ATOM     12  C   UNL     1       0.773   3.722  20.193  0.00  0.00    +0.000 C 
ATOM     13  C   UNL     1       1.964   4.389  20.889  0.00  0.00    +0.000 C 
ENDBRANCH   3   5
BRANCH   1  14
ATOM     14  C   UNL     1       6.804   4.354  14.416  0.00  0.00    +0.000 C 
BRANCH  14  15
ATOM     15  N   UNL     1       7.700   5.451  13.981  0.00  0.00    +0.000 NA
ATOM     16  H   UNL     1       8.666   5.148  14.119  0.00  0.00    +0.000 HD
ATOM     17  H   UNL     1       7.574   6.233  14.628  0.00  0.00    +0.000 HD
ENDBRANCH  14  15
BRANCH  14  19
ATOM     18  C   UNL     1       6.816   3.558  11.960  0.00  0.00    +0.000 C 
ATOM     19  C   UNL     1       6.022   3.728  13.243  0.00  0.00    +0.000 C 
ENDBRANCH  14  19
ENDBRANCH   1  14
TORSDOF 4
ENDMDL
MODEL 4
REMARK VINA RESULT:      -7.0      3.214      6.054
REMARK  Name = 
REMARK  5 active torsions:
REMARK  status: ('A' for Active; 'I' for Inactive)
REMARK    1  A    between atoms: C_1  and  C_2
REMARK    2  A    between atoms: C_2  and  C_3
REMARK    3  A    between atoms: C_3  and  N_4
REMARK    4  A    between atoms: C_3  and  C_5
REMARK    5  A    between atoms: N_7  and  C_8
REMARK                            x       y       z     vdW  Elec       q    Type
REMARK                         _______ _______ _______ _____ _____    ______ ____
ROOT
ATOM      1  C   UNL     1       2.749   2.830  18.635  0.00  0.00    +0.000 C 
ATOM      2  O   UNL     1       3.427   2.208  17.819  0.00  0.00    +0.000 OA
ATOM      3  N   UNL     1       2.952   4.146  19.019  0.00  0.00    +0.000 N 
ATOM      4  H   UNL     1       2.377   4.450  19.802  0.00  0.00    +0.000 HD
ENDROOT
BRANCH   3   5
ATOM      5  C   UNL     1       3.999   4.983  18.565  0.00  0.00    +0.000 A 
ATOM      6  C   UNL     1       3.854   5.810  17.437  0.00  0.00    +0.000 A 
ATOM      7  C   UNL     1       4.913   6.571  16.940  0.00  0.00    +0.000 A 
ATOM      8  C   UNL     1       6.121   6.515  17.602  0.00  0.00    +0.000 A 
ATOM      9  C   UNL     1       6.278   5.730  18.751  0.00  0.00    +0.000 A 
ATOM     10  C   UNL     1       5.227   4.965  19.249  0.00  0.00    +0.000 A 
ATOM     11  C   UNL     1       7.698   5.804  19.227  0.00  0.00    +0.000 C 
ATOM     12  C   UNL     1       8.193   7.075  18.516  0.00  0.00    +0.000 C 
ATOM     13  C   UNL     1       7.400   7.180  17.209  0.00  0.00    +0.000 C 
ENDBRANCH   3   5
BRANCH   1  14
ATOM     14  C   UNL     1       1.530   2.151  19.304  0.00  0.00    +0.000 C 
BRANCH  14  15
ATOM     15  N   UNL     1       0.433   1.945  18.329  0.00  0.00    +0.000 NA
ATOM     16  H   UNL     1      -0.382   1.591  18.833  0.00  0.00    +0.000 HD
ATOM     17  H   UNL     1       0.708   1.182  17.706  0.00  0.00    +0.000 HD
ENDBRANCH  14  15
BRANCH  14  19
ATOM     18  C   UNL     1       1.687   2.585  21.844  0.00  0.00    +0.000 C 
ATOM     19  C   UNL     1       1.095   3.007  20.510  0.00  0.00    +0.000 C 
ENDBRANCH  14  19
ENDBRANCH   1  14
TORSDOF 4
ENDMDL
MODEL 5
REMARK VINA RESULT:      -6.9      0.646      1.718
REMARK  Name = 
REMARK  5 active torsions:
REMARK  status: ('A' for Active; 'I' for Inactive)
REMARK    1  A    between atoms: C_1  and  C_2
REMARK    2  A    between atoms: C_2  and  C_3
REMARK    3  A    between atoms: C_3  and  N_4
REMARK    4  A    between atoms: C_3  and  C_5
REMARK    5  A    between atoms: N_7  and  C_8
REMARK                            x       y       z     vdW  Elec       q    Type
REMARK                         _______ _______ _______ _____ _____    ______ ____
ROOT
ATOM      1  C   UNL     1       6.136   4.231  16.039  0.00  0.00    +0.000 C 
ATOM      2  O   UNL     1       6.799   4.351  17.068  0.00  0.00    +0.000 OA
ATOM      3  N   UNL     1       4.757   4.103  15.975  0.00  0.00    +0.000 N 
ATOM      4  H   UNL     1       4.397   3.878  15.050  0.00  0.00    +0.000 HD
ENDROOT
BRANCH   3   5
ATOM      5  C   UNL     1       3.884   4.050  17.088  0.00  0.00    +0.000 A 
ATOM      6  C   UNL     1       3.211   2.868  17.449  0.00  0.00    +0.000 A 
ATOM      7  C   UNL     1       2.287   2.837  18.494  0.00  0.00    +0.000 A 
ATOM      8  C   UNL     1       2.059   4.001  19.196  0.00  0.00    +0.000 A 
ATOM      9  C   UNL     1       2.746   5.180  18.881  0.00  0.00    +0.000 A 
ATOM     10  C   UNL     1       3.666   5.218  17.837  0.00  0.00    +0.000 A 
ATOM     11  C   UNL     1       2.263   6.299  19.753  0.00  0.00    +0.000 C 
ATOM     12  C   UNL     1       1.588   5.524  20.898  0.00  0.00    +0.000 C 
ATOM     13  C   UNL     1       1.068   4.217  20.293  0.00  0.00    +0.000 C 
ENDBRANCH   3   5
BRANCH   1  14
ATOM     14  C   UNL     1       6.840   4.246  14.661  0.00  0.00    +0.000 C 
BRANCH  14  15
ATOM     15  N   UNL     1       7.604   5.501  14.467  0.00  0.00    +0.000 NA
ATOM     16  H   UNL     1       7.005   6.285  14.733  0.00  0.00    +0.000 HD
ATOM     17  H   UNL     1       7.761   5.620  13.464  0.00  0.00    +0.000 HD
ENDBRANCH  14  15
BRANCH  14  19
ATOM     18  C   UNL     1       6.291   3.395  12.286  0.00  0.00    +0.000 C 
ATOM     19  C   UNL     1       5.775   4.027  13.567  0.00  0.00    +0.000 C 
ENDBRANCH  14  19
ENDBRANCH   1  14
TORSDOF 4
ENDMDL
MODEL 6
REMARK VINA RESULT:      -6.8      2.479      3.268
REMARK  Name = 
REMARK  5 active torsions:
REMARK  status: ('A' for Active; 'I' for Inactive)
REMARK    1  A    between atoms: C_1  and  C_2
REMARK    2  A    between atoms: C_2  and  C_3
REMARK    3  A    between atoms: C_3  and  N_4
REMARK    4  A    between atoms: C_3  and  C_5
REMARK    5  A    between atoms: N_7  and  C_8
REMARK                            x       y       z     vdW  Elec       q    Type
REMARK                         _______ _______ _______ _____ _____    ______ ____
ROOT
ATOM      1  C   UNL     1       5.503   6.355  17.245  0.00  0.00    +0.000 C 
ATOM      2  O   UNL     1       4.601   7.184  17.350  0.00  0.00    +0.000 OA
ATOM      3  N   UNL     1       5.402   5.007  17.554  0.00  0.00    +0.000 N 
ATOM      4  H   UNL     1       6.286   4.503  17.533  0.00  0.00    +0.000 HD
ENDROOT
BRANCH   3   5
ATOM      5  C   UNL     1       4.255   4.368  18.082  0.00  0.00    +0.000 A 
ATOM      6  C   UNL     1       3.350   3.669  17.262  0.00  0.00    +0.000 A 
ATOM      7  C   UNL     1       2.176   3.111  17.769  0.00  0.00    +0.000 A 
ATOM      8  C   UNL     1       1.924   3.240  19.117  0.00  0.00    +0.000 A 
ATOM      9  C   UNL     1       2.829   3.897  19.961  0.00  0.00    +0.000 A 
ATOM     10  C   UNL     1       4.000   4.459  19.461  0.00  0.00    +0.000 A 
ATOM     11  C   UNL     1       2.281   3.946  21.356  0.00  0.00    +0.000 C 
ATOM     12  C   UNL     1       1.212   2.841  21.303  0.00  0.00    +0.000 C 
ATOM     13  C   UNL     1       0.706   2.793  19.858  0.00  0.00    +0.000 C 
ENDBRANCH   3   5
BRANCH   1  14
ATOM     14  C   UNL     1       6.886   6.782  16.696  0.00  0.00    +0.000 C 
BRANCH  14  15
ATOM     15  N   UNL     1       7.516   5.683  15.928  0.00  0.00    +0.000 NA
ATOM     16  H   UNL     1       8.516   5.679  16.138  0.00  0.00    +0.000 HD
ATOM     17  H   UNL     1       7.457   5.921  14.936  0.00  0.00    +0.000 HD
ENDBRANCH  14  15
BRANCH  14  19
ATOM     18  C   UNL     1       8.068   8.738  17.897  0.00  0.00    +0.000 C 
ATOM     19  C   UNL     1       7.756   7.252  17.879  0.00  0.00    +0.000 C 
ENDBRANCH  14  19
ENDBRANCH   1  14
TORSDOF 4
ENDMDL
MODEL 7
REMARK VINA RESULT:      -6.7      2.756      3.754
REMARK  Name = 
REMARK  5 active torsions:
REMARK  status: ('A' for Active; 'I' for Inactive)
REMARK    1  A    between atoms: C_1  and  C_2
REMARK    2  A    between atoms: C_2  and  C_3
REMARK    3  A    between atoms: C_3  and  N_4
REMARK    4  A    between atoms: C_3  and  C_5
REMARK    5  A    between atoms: N_7  and  C_8
REMARK                            x       y       z     vdW  Elec       q    Type
REMARK                         _______ _______ _______ _____ _____    ______ ____
ROOT
ATOM      1  C   UNL     1       6.242   6.392  17.754  0.00  0.00    +0.000 C 
ATOM      2  O   UNL     1       5.402   7.032  17.123  0.00  0.00    +0.000 OA
ATOM      3  N   UNL     1       6.022   5.184  18.397  0.00  0.00    +0.000 N 
ATOM      4  H   UNL     1       6.795   4.870  18.979  0.00  0.00    +0.000 HD
ENDROOT
BRANCH   3   5
ATOM      5  C   UNL     1       4.783   4.503  18.467  0.00  0.00    +0.000 A 
ATOM      6  C   UNL     1       4.386   3.579  17.484  0.00  0.00    +0.000 A 
ATOM      7  C   UNL     1       3.130   2.972  17.509  0.00  0.00    +0.000 A 
ATOM      8  C   UNL     1       2.278   3.281  18.547  0.00  0.00    +0.000 A 
ATOM      9  C   UNL     1       2.667   4.168  19.560  0.00  0.00    +0.000 A 
ATOM     10  C   UNL     1       3.917   4.780  19.538  0.00  0.00    +0.000 A 
ATOM     11  C   UNL     1       1.534   4.371  20.521  0.00  0.00    +0.000 C 
ATOM     12  C   UNL     1       0.650   3.150  20.212  0.00  0.00    +0.000 C 
ATOM     13  C   UNL     1       0.872   2.813  18.735  0.00  0.00    +0.000 C 
ENDBRANCH   3   5
BRANCH   1  14
ATOM     14  C   UNL     1       7.696   6.912  17.851  0.00  0.00    +0.000 C 
BRANCH  14  15
ATOM     15  N   UNL     1       8.279   6.617  19.181  0.00  0.00    +0.000 NA
ATOM     16  H   UNL     1       7.905   7.292  19.851  0.00  0.00    +0.000 HD
ATOM     17  H   UNL     1       9.280   6.820  19.136  0.00  0.00    +0.000 HD
ENDBRANCH  14  15
BRANCH  14  19
ATOM     18  C   UNL     1       8.576   9.270  18.426  0.00  0.00    +0.000 C 
ATOM     19  C   UNL     1       7.698   8.419  17.525  0.00  0.00    +0.000 C 
ENDBRANCH  14  19
ENDBRANCH   1  14
TORSDOF 4
ENDMDL
MODEL 8
REMARK VINA RESULT:      -6.7      2.558      3.259
REMARK  Name = 
REMARK  5 active torsions:
REMARK  status: ('A' for Active; 'I' for Inactive)
REMARK    1  A    between atoms: C_1  and  C_2
REMARK    2  A    between atoms: C_2  and  C_3
REMARK    3  A    between atoms: C_3  and  N_4
REMARK    4  A    between atoms: C_3  and  C_5
REMARK    5  A    between atoms: N_7  and  C_8
REMARK                            x       y       z     vdW  Elec       q    Type
REMARK                         _______ _______ _______ _____ _____    ______ ____
ROOT
ATOM      1  C   UNL     1       6.143   6.227  18.088  0.00  0.00    +0.000 C 
ATOM      2  O   UNL     1       6.596   5.518  18.985  0.00  0.00    +0.000 OA
ATOM      3  N   UNL     1       4.803   6.346  17.750  0.00  0.00    +0.000 N 
ATOM      4  H   UNL     1       4.629   6.873  16.897  0.00  0.00    +0.000 HD
ENDROOT
BRANCH   3   5
ATOM      5  C   UNL     1       3.737   5.641  18.357  0.00  0.00    +0.000 A 
ATOM      6  C   UNL     1       3.055   6.145  19.479  0.00  0.00    +0.000 A 
ATOM      7  C   UNL     1       2.061   5.411  20.127  0.00  0.00    +0.000 A 
ATOM      8  C   UNL     1       1.735   4.170  19.625  0.00  0.00    +0.000 A 
ATOM      9  C   UNL     1       2.373   3.664  18.485  0.00  0.00    +0.000 A 
ATOM     10  C   UNL     1       3.368   4.389  17.836  0.00  0.00    +0.000 A 
ATOM     11  C   UNL     1       1.875   2.279  18.196  0.00  0.00    +0.000 C 
ATOM     12  C   UNL     1       0.563   2.253  19.000  0.00  0.00    +0.000 C 
ATOM     13  C   UNL     1       0.765   3.187  20.196  0.00  0.00    +0.000 C 
ENDBRANCH   3   5
BRANCH   1  14
ATOM     14  C   UNL     1       7.094   7.111  17.246  0.00  0.00    +0.000 C 
BRANCH  14  15
ATOM     15  N   UNL     1       7.699   6.336  16.137  0.00  0.00    +0.000 NA
ATOM     16  H   UNL     1       8.306   5.621  16.542  0.00  0.00    +0.000 HD
ATOM     17  H   UNL     1       8.330   6.959  15.628  0.00  0.00    +0.000 HD
ENDBRANCH  14  15
BRANCH  14  19
ATOM     18  C   UNL     1       8.301   9.232  18.089  0.00  0.00    +0.000 C 
ATOM     19  C   UNL     1       8.151   7.723  18.186  0.00  0.00    +0.000 C 
ENDBRANCH  14  19
ENDBRANCH   1  14
TORSDOF 4
ENDMDL
MODEL 9
REMARK VINA RESULT:      -6.7      2.482      6.243
REMARK  Name = 
REMARK  5 active torsions:
REMARK  status: ('A' for Active; 'I' for Inactive)
REMARK    1  A    between atoms: C_1  and  C_2
REMARK    2  A    between atoms: C_2  and  C_3
REMARK    3  A    between atoms: C_3  and  N_4
REMARK    4  A    between atoms: C_3  and  C_5
REMARK    5  A    between atoms: N_7  and  C_8
REMARK                            x       y       z     vdW  Elec       q    Type
REMARK                         _______ _______ _______ _____ _____    ______ ____
ROOT
ATOM      1  C   UNL     1       3.568   3.503  20.036  0.00  0.00    +0.000 C 
ATOM      2  O   UNL     1       4.135   2.411  20.013  0.00  0.00    +0.000 OA
ATOM      3  N   UNL     1       3.808   4.557  19.168  0.00  0.00    +0.000 N 
ATOM      4  H   UNL     1       3.342   5.425  19.422  0.00  0.00    +0.000 HD
ENDROOT
BRANCH   3   5
ATOM      5  C   UNL     1       4.774   4.567  18.134  0.00  0.00    +0.000 A 
ATOM      6  C   UNL     1       6.134   4.824  18.390  0.00  0.00    +0.000 A 
ATOM      7  C   UNL     1       7.072   4.917  17.362  0.00  0.00    +0.000 A 
ATOM      8  C   UNL     1       6.640   4.725  16.068  0.00  0.00    +0.000 A 
ATOM      9  C   UNL     1       5.299   4.429  15.791  0.00  0.00    +0.000 A 
ATOM     10  C   UNL     1       4.358   4.339  16.812  0.00  0.00    +0.000 A 
ATOM     11  C   UNL     1       5.095   4.334  14.308  0.00  0.00    +0.000 C 
ATOM     12  C   UNL     1       6.538   4.134  13.813  0.00  0.00    +0.000 C 
ATOM     13  C   UNL     1       7.446   4.852  14.815  0.00  0.00    +0.000 C 
ENDBRANCH   3   5
BRANCH   1  14
ATOM     14  C   UNL     1       2.459   3.776  21.080  0.00  0.00    +0.000 C 
BRANCH  14  15
ATOM     15  N   UNL     1       2.403   2.694  22.091  0.00  0.00    +0.000 NA
ATOM     16  H   UNL     1       1.765   1.971  21.752  0.00  0.00    +0.000 HD
ATOM     17  H   UNL     1       1.951   3.071  22.928  0.00  0.00    +0.000 HD
ENDBRANCH  14  15
BRANCH  14  19
ATOM     18  C   UNL     1       0.714   2.795  19.449  0.00  0.00    +0.000 C 
ATOM     19  C   UNL     1       1.122   3.960  20.335  0.00  0.00    +0.000 C 
ENDBRANCH  14  19
ENDBRANCH   1  14
TORSDOF 4
ENDMDL
