MODEL 1
REMARK VINA RESULT:      -8.5      0.000      0.000
REMARK  Name = 
REMARK  6 active torsions:
REMARK  status: ('A' for Active; 'I' for Inactive)
REMARK    1  A    between atoms: C_1  and  O_2
REMARK    2  A    between atoms: O_2  and  C_3
REMARK    3  A    between atoms: C_6  and  N_7
REMARK    4  A    between atoms: N_7  and  C_8
REMARK    5  A    between atoms: C_10  and  C_11
REMARK    6  A    between atoms: C_15  and  C_16
REMARK                            x       y       z     vdW  Elec       q    Type
REMARK                         _______ _______ _______ _____ _____    ______ ____
ROOT
ATOM      1  C   UNL     1       5.869   3.985  16.792  0.00  0.00    +0.000 A 
ATOM      2  C   UNL     1       6.305   4.792  17.778  0.00  0.00    +0.000 A 
ATOM      3  C   UNL     1       7.237   5.892  17.389  0.00  0.00    +0.000 A 
ATOM      4  C   UNL     1       7.684   6.832  18.481  0.00  0.00    +0.000 C 
ATOM      5  N   UNL     1       7.672   6.110  16.184  0.00  0.00    +0.000 NA
ATOM      6  C   UNL     1       7.231   5.263  15.212  0.00  0.00    +0.000 A 
ATOM      7  N   UNL     1       7.487   5.279  13.925  0.00  0.00    +0.000 NA
ATOM      8  C   UNL     1       6.760   4.223  13.415  0.00  0.00    +0.000 A 
ATOM      9  N   UNL     1       6.058   3.539  14.343  0.00  0.00    +0.000 NA
ATOM     10  N   UNL     1       6.357   4.210  15.490  0.00  0.00    +0.000 N 
ENDROOT
BRANCH   8  11
ATOM     11  C   UNL     1       6.762   3.884  11.937  0.00  0.00    +0.000 C 
ATOM     12  F   UNL     1       7.464   2.752  11.651  0.00  0.00    +0.000 F 
ATOM     13  F   UNL     1       5.503   3.688  11.454  0.00  0.00    +0.000 F 
ATOM     14  F   UNL     1       7.314   4.877  11.184  0.00  0.00    +0.000 F 
ENDBRANCH   8  11
BRANCH   1  15
ATOM     15  N   UNL     1       4.935   2.959  16.986  0.00  0.00    +0.000 N 
ATOM     16  H   UNL     1       4.478   2.734  16.093  0.00  0.00    +0.000 HD
BRANCH  15  20
ATOM     17  C   UNL     1       1.938   3.503  19.934  0.00  0.00    +0.000 A 
ATOM     18  C   UNL     1       3.115   2.832  20.254  0.00  0.00    +0.000 A 
ATOM     19  C   UNL     1       4.107   2.642  19.287  0.00  0.00    +0.000 A 
ATOM     20  C   UNL     1       3.915   3.080  17.973  0.00  0.00    +0.000 A 
ATOM     21  C   UNL     1       2.738   3.770  17.662  0.00  0.00    +0.000 A 
ATOM     22  C   UNL     1       1.746   3.966  18.633  0.00  0.00    +0.000 A 
BRANCH  17  24
ATOM     23  C   UNL     1       1.219   2.687  22.031  0.00  0.00    +0.000 C 
ATOM     24  O   UNL     1       1.046   3.613  20.965  0.00  0.00    +0.000 OA
ENDBRANCH  17  24
ENDBRANCH  15  20
ENDBRANCH   1  15
TORSDOF 4
ENDMDL
MODEL 2
REMARK VINA RESULT:      -8.4      4.189      5.814
REMARK  Name = 
REMARK  6 active torsions:
REMARK  status: ('A' for Active; 'I' for Inactive)
REMARK    1  A    between atoms: C_1  and  O_2
REMARK    2  A    between atoms: O_2  and  C_3
REMARK    3  A    between atoms: C_6  and  N_7
REMARK    4  A    between atoms: N_7  and  C_8
REMARK    5  A    between atoms: C_10  and  C_11
REMARK    6  A    between atoms: C_15  and  C_16
REMARK                            x       y       z     vdW  Elec       q    Type
REMARK                         _______ _______ _______ _____ _____    ______ ____
ROOT
ATOM      1  C   UNL     1       2.845   5.219  19.259  0.00  0.00    +0.000 A 
ATOM      2  C   UNL     1       1.765   4.418  19.339  0.00  0.00    +0.000 A 
ATOM      3  C   UNL     1       1.797   3.158  18.537  0.00  0.00    +0.000 A 
ATOM      4  C   UNL     1       0.613   2.232  18.666  0.00  0.00    +0.000 C 
ATOM      5  N   UNL     1       2.771   2.794  17.757  0.00  0.00    +0.000 NA
ATOM      6  C   UNL     1       3.839   3.636  17.680  0.00  0.00    +0.000 A 
ATOM      7  N   UNL     1       4.954   3.495  17.002  0.00  0.00    +0.000 NA
ATOM      8  C   UNL     1       5.692   4.619  17.312  0.00  0.00    +0.000 A 
ATOM      9  N   UNL     1       5.073   5.467  18.160  0.00  0.00    +0.000 NA
ATOM     10  N   UNL     1       3.891   4.832  18.397  0.00  0.00    +0.000 N 
ENDROOT
BRANCH   8  11
ATOM     11  C   UNL     1       7.076   4.855  16.740  0.00  0.00    +0.000 C 
ATOM     12  F   UNL     1       7.218   4.378  15.471  0.00  0.00    +0.000 F 
ATOM     13  F   UNL     1       7.390   6.180  16.689  0.00  0.00    +0.000 F 
ATOM     14  F   UNL     1       8.047   4.257  17.485  0.00  0.00    +0.000 F 
ENDBRANCH   8  11
BRANCH   1  15
ATOM     15  N   UNL     1       2.996   6.394  20.007  0.00  0.00    +0.000 N 
ATOM     16  H   UNL     1       2.827   6.193  21.002  0.00  0.00    +0.000 HD
BRANCH  15  20
ATOM     17  C   UNL     1       0.654   9.788  19.028  0.00  0.00    +0.000 A 
ATOM     18  C   UNL     1       1.429   9.172  18.050  0.00  0.00    +0.000 A 
ATOM     19  C   UNL     1       2.209   8.055  18.365  0.00  0.00    +0.000 A 
ATOM     20  C   UNL     1       2.262   7.568  19.674  0.00  0.00    +0.000 A 
ATOM     21  C   UNL     1       1.467   8.180  20.649  0.00  0.00    +0.000 A 
ATOM     22  C   UNL     1       0.679   9.295  20.332  0.00  0.00    +0.000 A 
BRANCH  17  24
ATOM     23  C   UNL     1      -1.304  10.591  17.978  0.00  0.00    +0.000 C 
ATOM     24  O   UNL     1      -0.054  10.875  18.594  0.00  0.00    +0.000 OA
ENDBRANCH  17  24
ENDBRANCH  15  20
ENDBRANCH   1  15
TORSDOF 4
ENDMDL
MODEL 3
REMARK VINA RESULT:      -8.3      4.225      5.743
REMARK  Name = 
REMARK  6 active torsions:
REMARK  status: ('A' for Active; 'I' for Inactive)
REMARK    1  A    between atoms: C_1  and  O_2
REMARK    2  A    between atoms: O_2  and  C_3
REMARK    3  A    between atoms: C_6  and  N_7
REMARK    4  A    between atoms: N_7  and  C_8
REMARK    5  A    between atoms: C_10  and  C_11
REMARK    6  A    between atoms: C_15  and  C_16
REMARK                            x       y       z     vdW  Elec       q    Type
REMARK                         _______ _______ _______ _____ _____    ______ ____
ROOT
ATOM      1  C   UNL     1       2.841   5.236  19.196  0.00  0.00    +0.000 A 
ATOM      2  C   UNL     1       1.771   4.427  19.312  0.00  0.00    +0.000 A 
ATOM      3  C   UNL     1       1.809   3.142  18.551  0.00  0.00    +0.000 A 
ATOM      4  C   UNL     1       0.637   2.209  18.722  0.00  0.00    +0.000 C 
ATOM      5  N   UNL     1       2.780   2.763  17.775  0.00  0.00    +0.000 NA
ATOM      6  C   UNL     1       3.838   3.613  17.660  0.00  0.00    +0.000 A 
ATOM      7  N   UNL     1       4.949   3.462  16.977  0.00  0.00    +0.000 NA
ATOM      8  C   UNL     1       5.677   4.602  17.243  0.00  0.00    +0.000 A 
ATOM      9  N   UNL     1       5.057   5.472  18.069  0.00  0.00    +0.000 NA
ATOM     10  N   UNL     1       3.884   4.833  18.338  0.00  0.00    +0.000 N 
ENDROOT
BRANCH   8  11
ATOM     11  C   UNL     1       7.054   4.835  16.651  0.00  0.00    +0.000 C 
ATOM     12  F   UNL     1       8.053   4.272  17.388  0.00  0.00    +0.000 F 
ATOM     13  F   UNL     1       7.166   4.318  15.395  0.00  0.00    +0.000 F 
ATOM     14  F   UNL     1       7.352   6.160  16.552  0.00  0.00    +0.000 F 
ENDBRANCH   8  11
BRANCH   1  15
ATOM     15  N   UNL     1       2.986   6.436  19.904  0.00  0.00    +0.000 N 
ATOM     16  H   UNL     1       2.872   6.259  20.911  0.00  0.00    +0.000 HD
BRANCH  15  20
ATOM     17  C   UNL     1       0.794   9.925  18.910  0.00  0.00    +0.000 A 
ATOM     18  C   UNL     1       0.761   9.429  20.210  0.00  0.00    +0.000 A 
ATOM     19  C   UNL     1       1.476   8.275  20.547  0.00  0.00    +0.000 A 
ATOM     20  C   UNL     1       2.197   7.575  19.575  0.00  0.00    +0.000 A 
ATOM     21  C   UNL     1       2.243   8.089  18.274  0.00  0.00    +0.000 A 
ATOM     22  C   UNL     1       1.531   9.249  17.939  0.00  0.00    +0.000 A 
BRANCH  17  24
ATOM     23  C   UNL     1      -1.290  11.000  19.198  0.00  0.00    +0.000 C 
ATOM     24  O   UNL     1       0.046  11.052  18.711  0.00  0.00    +0.000 OA
ENDBRANCH  17  24
ENDBRANCH  15  20
ENDBRANCH   1  15
TORSDOF 4
ENDMDL
MODEL 4
REMARK VINA RESULT:      -8.3      0.195      1.294
REMARK  Name = 
REMARK  6 active torsions:
REMARK  status: ('A' for Active; 'I' for Inactive)
REMARK    1  A    between atoms: C_1  and  O_2
REMARK    2  A    between atoms: O_2  and  C_3
REMARK    3  A    between atoms: C_6  and  N_7
REMARK    4  A    between atoms: N_7  and  C_8
REMARK    5  A    between atoms: C_10  and  C_11
REMARK    6  A    between atoms: C_15  and  C_16
REMARK                            x       y       z     vdW  Elec       q    Type
REMARK                         _______ _______ _______ _____ _____    ______ ____
ROOT
ATOM      1  C   UNL     1       5.831   4.063  16.768  0.00  0.00    +0.000 A 
ATOM      2  C   UNL     1       6.295   4.900  17.715  0.00  0.00    +0.000 A 
ATOM      3  C   UNL     1       7.235   5.971  17.269  0.00  0.00    +0.000 A 
ATOM      4  C   UNL     1       7.714   6.945  18.317  0.00  0.00    +0.000 C 
ATOM      5  N   UNL     1       7.653   6.138  16.049  0.00  0.00    +0.000 NA
ATOM      6  C   UNL     1       7.183   5.261  15.118  0.00  0.00    +0.000 A 
ATOM      7  N   UNL     1       7.417   5.225  13.827  0.00  0.00    +0.000 NA
ATOM      8  C   UNL     1       6.667   4.162  13.369  0.00  0.00    +0.000 A 
ATOM      9  N   UNL     1       5.972   3.522  14.334  0.00  0.00    +0.000 NA
ATOM     10  N   UNL     1       6.300   4.232  15.450  0.00  0.00    +0.000 N 
ENDROOT
BRANCH   8  11
ATOM     11  C   UNL     1       6.639   3.767  11.906  0.00  0.00    +0.000 C 
ATOM     12  F   UNL     1       5.375   3.614  11.419  0.00  0.00    +0.000 F 
ATOM     13  F   UNL     1       7.246   4.695  11.113  0.00  0.00    +0.000 F 
ATOM     14  F   UNL     1       7.281   2.587  11.681  0.00  0.00    +0.000 F 
ENDBRANCH   8  11
BRANCH   1  15
ATOM     15  N   UNL     1       4.887   3.058  17.016  0.00  0.00    +0.000 N 
ATOM     16  H   UNL     1       4.356   2.863  16.157  0.00  0.00    +0.000 HD
BRANCH  15  20
ATOM     17  C   UNL     1       2.055   3.263  20.163  0.00  0.00    +0.000 A 
ATOM     18  C   UNL     1       1.790   3.886  18.947  0.00  0.00    +0.000 A 
ATOM     19  C   UNL     1       2.721   3.829  17.905  0.00  0.00    +0.000 A 
ATOM     20  C   UNL     1       3.950   3.187  18.081  0.00  0.00    +0.000 A 
ATOM     21  C   UNL     1       4.203   2.547  19.300  0.00  0.00    +0.000 A 
ATOM     22  C   UNL     1       3.267   2.599  20.342  0.00  0.00    +0.000 A 
BRANCH  17  24
ATOM     23  C   UNL     1       1.167   2.542  22.230  0.00  0.00    +0.000 C 
ATOM     24  O   UNL     1       1.069   3.402  21.101  0.00  0.00    +0.000 OA
ENDBRANCH  17  24
ENDBRANCH  15  20
ENDBRANCH   1  15
TORSDOF 4
ENDMDL
MODEL 5
REMARK VINA RESULT:      -8.3      4.574      6.169
REMARK  Name = 
REMARK  6 active torsions:
REMARK  status: ('A' for Active; 'I' for Inactive)
REMARK    1  A    between atoms: C_1  and  O_2
REMARK    2  A    between atoms: O_2  and  C_3
REMARK    3  A    between atoms: C_6  and  N_7
REMARK    4  A    between atoms: N_7  and  C_8
REMARK    5  A    between atoms: C_10  and  C_11
REMARK    6  A    between atoms: C_15  and  C_16
REMARK                            x       y       z     vdW  Elec       q    Type
REMARK                         _______ _______ _______ _____ _____    ______ ____
ROOT
ATOM      1  C   UNL     1       2.789   5.395  19.594  0.00  0.00    +0.000 A 
ATOM      2  C   UNL     1       1.770   4.519  19.502  0.00  0.00    +0.000 A 
ATOM      3  C   UNL     1       2.030   3.257  18.747  0.00  0.00    +0.000 A 
ATOM      4  C   UNL     1       0.909   2.249  18.689  0.00  0.00    +0.000 C 
ATOM      5  N   UNL     1       3.148   2.957  18.156  0.00  0.00    +0.000 NA
ATOM      6  C   UNL     1       4.152   3.873  18.247  0.00  0.00    +0.000 A 
ATOM      7  N   UNL     1       5.375   3.807  17.776  0.00  0.00    +0.000 NA
ATOM      8  C   UNL     1       5.967   4.984  18.185  0.00  0.00    +0.000 A 
ATOM      9  N   UNL     1       5.152   5.793  18.893  0.00  0.00    +0.000 NA
ATOM     10  N   UNL     1       3.994   5.077  18.936  0.00  0.00    +0.000 N 
ENDROOT
BRANCH   8  11
ATOM     11  C   UNL     1       7.410   5.315  17.857  0.00  0.00    +0.000 C 
ATOM     12  F   UNL     1       7.537   6.136  16.777  0.00  0.00    +0.000 F 
ATOM     13  F   UNL     1       8.040   5.940  18.891  0.00  0.00    +0.000 F 
ATOM     14  F   UNL     1       8.141   4.199  17.578  0.00  0.00    +0.000 F 
ENDBRANCH   8  11
BRANCH   1  15
ATOM     15  N   UNL     1       2.724   6.584  20.331  0.00  0.00    +0.000 N 
ATOM     16  H   UNL     1       2.389   6.383  21.282  0.00  0.00    +0.000 HD
BRANCH  15  20
ATOM     17  C   UNL     1       0.700  10.010  18.871  0.00  0.00    +0.000 A 
ATOM     18  C   UNL     1       0.548   9.626  20.200  0.00  0.00    +0.000 A 
ATOM     19  C   UNL     1       1.207   8.493  20.690  0.00  0.00    +0.000 A 
ATOM     20  C   UNL     1       1.990   7.703  19.844  0.00  0.00    +0.000 A 
ATOM     21  C   UNL     1       2.154   8.105  18.513  0.00  0.00    +0.000 A 
ATOM     22  C   UNL     1       1.499   9.244  18.024  0.00  0.00    +0.000 A 
BRANCH  17  24
ATOM     23  C   UNL     1      -1.415  10.967  18.433  0.00  0.00    +0.000 C 
ATOM     24  O   UNL     1      -0.005  11.127  18.517  0.00  0.00    +0.000 OA
ENDBRANCH  17  24
ENDBRANCH  15  20
ENDBRANCH   1  15
TORSDOF 4
ENDMDL
MODEL 6
REMARK VINA RESULT:      -8.1      4.778      6.173
REMARK  Name = 
REMARK  6 active torsions:
REMARK  status: ('A' for Active; 'I' for Inactive)
REMARK    1  A    between atoms: C_1  and  O_2
REMARK    2  A    between atoms: O_2  and  C_3
REMARK    3  A    between atoms: C_6  and  N_7
REMARK    4  A    between atoms: N_7  and  C_8
REMARK    5  A    between atoms: C_10  and  C_11
REMARK    6  A    between atoms: C_15  and  C_16
REMARK                            x       y       z     vdW  Elec       q    Type
REMARK                         _______ _______ _______ _____ _____    ______ ____
ROOT
ATOM      1  C   UNL     1       2.671   5.810  18.243  0.00  0.00    +0.000 A 
ATOM      2  C   UNL     1       1.695   4.884  18.301  0.00  0.00    +0.000 A 
ATOM      3  C   UNL     1       2.107   3.488  18.639  0.00  0.00    +0.000 A 
ATOM      4  C   UNL     1       1.010   2.460  18.759  0.00  0.00    +0.000 C 
ATOM      5  N   UNL     1       3.329   3.101  18.854  0.00  0.00    +0.000 NA
ATOM      6  C   UNL     1       4.296   4.057  18.765  0.00  0.00    +0.000 A 
ATOM      7  N   UNL     1       5.589   3.943  18.965  0.00  0.00    +0.000 NA
ATOM      8  C   UNL     1       6.081   5.218  18.777  0.00  0.00    +0.000 A 
ATOM      9  N   UNL     1       5.138   6.131  18.458  0.00  0.00    +0.000 NA
ATOM     10  N   UNL     1       3.998   5.385  18.458  0.00  0.00    +0.000 N 
ENDROOT
BRANCH   8  11
ATOM     11  C   UNL     1       7.555   5.542  18.924  0.00  0.00    +0.000 C 
ATOM     12  F   UNL     1       8.364   4.633  18.311  0.00  0.00    +0.000 F 
ATOM     13  F   UNL     1       7.869   6.757  18.393  0.00  0.00    +0.000 F 
ATOM     14  F   UNL     1       7.943   5.580  20.230  0.00  0.00    +0.000 F 
ENDBRANCH   8  11
BRANCH   1  15
ATOM     15  N   UNL     1       2.436   7.172  18.014  0.00  0.00    +0.000 N 
ATOM     16  H   UNL     1       3.303   7.624  17.697  0.00  0.00    +0.000 HD
BRANCH  15  20
ATOM     17  C   UNL     1       0.901   9.725  21.029  0.00  0.00    +0.000 A 
ATOM     18  C   UNL     1       1.368   8.457  21.363  0.00  0.00    +0.000 A 
ATOM     19  C   UNL     1       1.871   7.605  20.374  0.00  0.00    +0.000 A 
ATOM     20  C   UNL     1       1.869   7.993  19.031  0.00  0.00    +0.000 A 
ATOM     21  C   UNL     1       1.415   9.275  18.704  0.00  0.00    +0.000 A 
ATOM     22  C   UNL     1       0.918  10.132  19.696  0.00  0.00    +0.000 A 
BRANCH  17  24
ATOM     23  C   UNL     1      -0.229   9.709  23.104  0.00  0.00    +0.000 C 
ATOM     24  O   UNL     1       0.427  10.454  22.085  0.00  0.00    +0.000 OA
ENDBRANCH  17  24
ENDBRANCH  15  20
ENDBRANCH   1  15
TORSDOF 4
ENDMDL
MODEL 7
REMARK VINA RESULT:      -8.1      0.996      1.230
REMARK  Name = 
REMARK  6 active torsions:
REMARK  status: ('A' for Active; 'I' for Inactive)
REMARK    1  A    between atoms: C_1  and  O_2
REMARK    2  A    between atoms: O_2  and  C_3
REMARK    3  A    between atoms: C_6  and  N_7
REMARK    4  A    between atoms: N_7  and  C_8
REMARK    5  A    between atoms: C_10  and  C_11
REMARK    6  A    between atoms: C_15  and  C_16
REMARK                            x       y       z     vdW  Elec       q    Type
REMARK                         _______ _______ _______ _____ _____    ______ ____
ROOT
ATOM      1  C   UNL     1       5.062   5.009  16.696  0.00  0.00    +0.000 A 
ATOM      2  C   UNL     1       5.715   5.799  17.570  0.00  0.00    +0.000 A 
ATOM      3  C   UNL     1       7.036   6.341  17.135  0.00  0.00    +0.000 A 
ATOM      4  C   UNL     1       7.745   7.270  18.089  0.00  0.00    +0.000 C 
ATOM      5  N   UNL     1       7.608   6.090  15.995  0.00  0.00    +0.000 NA
ATOM      6  C   UNL     1       6.933   5.270  15.141  0.00  0.00    +0.000 A 
ATOM      7  N   UNL     1       7.265   4.886  13.931  0.00  0.00    +0.000 NA
ATOM      8  C   UNL     1       6.213   4.096  13.518  0.00  0.00    +0.000 A 
ATOM      9  N   UNL     1       5.230   3.965  14.434  0.00  0.00    +0.000 NA
ATOM     10  N   UNL     1       5.692   4.722  15.468  0.00  0.00    +0.000 N 
ENDROOT
BRANCH   8  11
ATOM     11  C   UNL     1       6.183   3.445  12.148  0.00  0.00    +0.000 C 
ATOM     12  F   UNL     1       7.245   3.795  11.369  0.00  0.00    +0.000 F 
ATOM     13  F   UNL     1       6.195   2.085  12.227  0.00  0.00    +0.000 F 
ATOM     14  F   UNL     1       5.066   3.782  11.445  0.00  0.00    +0.000 F 
ENDBRANCH   8  11
BRANCH   1  15
ATOM     15  N   UNL     1       3.783   4.487  16.928  0.00  0.00    +0.000 N 
ATOM     16  H   UNL     1       3.073   5.151  16.590  0.00  0.00    +0.000 HD
BRANCH  15  20
ATOM     17  C   UNL     1       2.715   3.386  20.879  0.00  0.00    +0.000 A 
ATOM     18  C   UNL     1       3.669   2.649  20.185  0.00  0.00    +0.000 A 
ATOM     19  C   UNL     1       4.024   3.000  18.879  0.00  0.00    +0.000 A 
ATOM     20  C   UNL     1       3.394   4.068  18.232  0.00  0.00    +0.000 A 
ATOM     21  C   UNL     1       2.448   4.817  18.941  0.00  0.00    +0.000 A 
ATOM     22  C   UNL     1       2.098   4.468  20.252  0.00  0.00    +0.000 A 
BRANCH  17  24
ATOM     23  C   UNL     1       1.192   2.296  22.319  0.00  0.00    +0.000 C 
ATOM     24  O   UNL     1       2.452   2.933  22.142  0.00  0.00    +0.000 OA
ENDBRANCH  17  24
ENDBRANCH  15  20
ENDBRANCH   1  15
TORSDOF 4
ENDMDL
MODEL 8
REMARK VINA RESULT:      -8.1      4.660      6.290
REMARK  Name = 
REMARK  6 active torsions:
REMARK  status: ('A' for Active; 'I' for Inactive)
REMARK    1  A    between atoms: C_1  and  O_2
REMARK    2  A    between atoms: O_2  and  C_3
REMARK    3  A    between atoms: C_6  and  N_7
REMARK    4  A    between atoms: N_7  and  C_8
REMARK    5  A    between atoms: C_10  and  C_11
REMARK    6  A    between atoms: C_15  and  C_16
REMARK                            x       y       z     vdW  Elec       q    Type
REMARK                         _______ _______ _______ _____ _____    ______ ____
ROOT
ATOM      1  C   UNL     1       2.747   5.363  19.690  0.00  0.00    +0.000 A 
ATOM      2  C   UNL     1       1.718   4.505  19.551  0.00  0.00    +0.000 A 
ATOM      3  C   UNL     1       1.972   3.269  18.752  0.00  0.00    +0.000 A 
ATOM      4  C   UNL     1       0.838   2.280  18.640  0.00  0.00    +0.000 C 
ATOM      5  N   UNL     1       3.094   2.975  18.166  0.00  0.00    +0.000 NA
ATOM      6  C   UNL     1       4.109   3.874  18.306  0.00  0.00    +0.000 A 
ATOM      7  N   UNL     1       5.338   3.808  17.850  0.00  0.00    +0.000 NA
ATOM      8  C   UNL     1       5.940   4.960  18.311  0.00  0.00    +0.000 A 
ATOM      9  N   UNL     1       5.125   5.754  19.039  0.00  0.00    +0.000 NA
ATOM     10  N   UNL     1       3.958   5.053  19.038  0.00  0.00    +0.000 N 
ENDROOT
BRANCH   8  11
ATOM     11  C   UNL     1       7.392   5.283  18.017  0.00  0.00    +0.000 C 
ATOM     12  F   UNL     1       7.543   6.358  17.193  0.00  0.00    +0.000 F 
ATOM     13  F   UNL     1       8.094   5.565  19.150  0.00  0.00    +0.000 F 
ATOM     14  F   UNL     1       8.035   4.245  17.412  0.00  0.00    +0.000 F 
ENDBRANCH   8  11
BRANCH   1  15
ATOM     15  N   UNL     1       2.688   6.524  20.471  0.00  0.00    +0.000 N 
ATOM     16  H   UNL     1       2.268   6.306  21.384  0.00  0.00    +0.000 HD
BRANCH  15  20
ATOM     17  C   UNL     1       0.645   9.937  19.007  0.00  0.00    +0.000 A 
ATOM     18  C   UNL     1       1.462   9.198  18.157  0.00  0.00    +0.000 A 
ATOM     19  C   UNL     1       2.145   8.073  18.632  0.00  0.00    +0.000 A 
ATOM     20  C   UNL     1       2.056   7.701  19.977  0.00  0.00    +0.000 A 
ATOM     21  C   UNL     1       1.219   8.438  20.822  0.00  0.00    +0.000 A 
ATOM     22  C   UNL     1       0.529   9.560  20.345  0.00  0.00    +0.000 A 
BRANCH  17  24
ATOM     23  C   UNL     1       0.521  12.290  18.838  0.00  0.00    +0.000 C 
ATOM     24  O   UNL     1       0.043  11.017  18.423  0.00  0.00    +0.000 OA
ENDBRANCH  17  24
ENDBRANCH  15  20
ENDBRANCH   1  15
TORSDOF 4
ENDMDL
MODEL 9
REMARK VINA RESULT:      -8.1      1.014      1.358
REMARK  Name = 
REMARK  6 active torsions:
REMARK  status: ('A' for Active; 'I' for Inactive)
REMARK    1  A    between atoms: C_1  and  O_2
REMARK    2  A    between atoms: O_2  and  C_3
REMARK    3  A    between atoms: C_6  and  N_7
REMARK    4  A    between atoms: N_7  and  C_8
REMARK    5  A    between atoms: C_10  and  C_11
REMARK    6  A    between atoms: C_15  and  C_16
REMARK                            x       y       z     vdW  Elec       q    Type
REMARK                         _______ _______ _______ _____ _____    ______ ____
ROOT
ATOM      1  C   UNL     1       5.202   5.213  16.808  0.00  0.00    +0.000 A 
ATOM      2  C   UNL     1       5.852   6.015  17.673  0.00  0.00    +0.000 A 
ATOM      3  C   UNL     1       7.171   6.557  17.231  0.00  0.00    +0.000 A 
ATOM      4  C   UNL     1       7.876   7.500  18.174  0.00  0.00    +0.000 C 
ATOM      5  N   UNL     1       7.744   6.294  16.094  0.00  0.00    +0.000 NA
ATOM      6  C   UNL     1       7.073   5.461  15.251  0.00  0.00    +0.000 A 
ATOM      7  N   UNL     1       7.406   5.063  14.046  0.00  0.00    +0.000 NA
ATOM      8  C   UNL     1       6.357   4.264  13.642  0.00  0.00    +0.000 A 
ATOM      9  N   UNL     1       5.374   4.141  14.560  0.00  0.00    +0.000 NA
ATOM     10  N   UNL     1       5.833   4.912  15.584  0.00  0.00    +0.000 N 
ENDROOT
BRANCH   8  11
ATOM     11  C   UNL     1       6.331   3.596  12.281  0.00  0.00    +0.000 C 
ATOM     12  F   UNL     1       6.719   2.291  12.320  0.00  0.00    +0.000 F 
ATOM     13  F   UNL     1       5.086   3.610  11.727  0.00  0.00    +0.000 F 
ATOM     14  F   UNL     1       7.156   4.215  11.391  0.00  0.00    +0.000 F 
ENDBRANCH   8  11
BRANCH   1  15
ATOM     15  N   UNL     1       3.924   4.690  17.046  0.00  0.00    +0.000 N 
ATOM     16  H   UNL     1       3.214   5.320  16.651  0.00  0.00    +0.000 HD
BRANCH  15  20
ATOM     17  C   UNL     1       2.580   3.552  20.901  0.00  0.00    +0.000 A 
ATOM     18  C   UNL     1       2.215   4.787  20.373  0.00  0.00    +0.000 A 
ATOM     19  C   UNL     1       2.659   5.174  19.105  0.00  0.00    +0.000 A 
ATOM     20  C   UNL     1       3.512   4.349  18.366  0.00  0.00    +0.000 A 
ATOM     21  C   UNL     1       3.860   3.101  18.893  0.00  0.00    +0.000 A 
ATOM     22  C   UNL     1       3.410   2.710  20.162  0.00  0.00    +0.000 A 
BRANCH  17  24
ATOM     23  C   UNL     1       1.177   2.212  22.249  0.00  0.00    +0.000 C 
ATOM     24  O   UNL     1       2.089   3.299  22.152  0.00  0.00    +0.000 OA
ENDBRANCH  17  24
ENDBRANCH  15  20
ENDBRANCH   1  15
TORSDOF 4
ENDMDL
