MODEL 1
REMARK VINA RESULT:      -9.0      0.000      0.000
REMARK  Name = 
REMARK  8 active torsions:
REMARK  status: ('A' for Active; 'I' for Inactive)
REMARK    1  A    between atoms: C_1  and  N_2
REMARK    2  A    between atoms: N_2  and  C_3
REMARK    3  A    between atoms: N_6  and  C_7
REMARK    4  A    between atoms: C_10  and  N_11
REMARK    5  A    between atoms: C_14  and  C_15
REMARK    6  A    between atoms: C_17  and  O_18
REMARK    7  A    between atoms: O_18  and  C_19
REMARK    8  A    between atoms: C_27  and  C_28
REMARK                            x       y       z     vdW  Elec       q    Type
REMARK                         _______ _______ _______ _____ _____    ______ ____
ROOT
ATOM      1  C   UNL     1       1.666  11.736  18.565  0.00  0.00    +0.000 A 
ATOM      2  N   UNL     1       2.034  10.457  18.735  0.00  0.00    +0.000 NA
ATOM      3  C   UNL     1       1.164   9.553  19.244  0.00  0.00    +0.000 A 
ATOM      4  N   UNL     1       1.561   8.225  19.414  0.00  0.00    +0.000 N 
ATOM      5  N   UNL     1      -0.103   9.853  19.583  0.00  0.00    +0.000 NA
ATOM      6  C   UNL     1      -0.451  11.136  19.389  0.00  0.00    +0.000 A 
ATOM      7  C   UNL     1       0.416  12.106  18.952  0.00  0.00    +0.000 A 
ATOM      8  C   UNL     1      -0.283  13.377  18.904  0.00  0.00    +0.000 C 
ATOM      9  O   UNL     1       0.215  14.434  18.560  0.00  0.00    +0.000 OA
ATOM     10  C   UNL     1      -1.676  13.183  19.445  0.00  0.00    +0.000 C 
ATOM     11  C   UNL     1      -1.880  11.652  19.384  0.00  0.00    +0.000 C 
ATOM     12  H   UNL     1       0.820   7.693  19.846  0.00  0.00    +0.000 HD
ENDROOT
BRANCH  11  13
ATOM     13  C   UNL     1      -2.640  11.235  18.123  0.00  0.00    +0.000 A 
ATOM     14  C   UNL     1      -3.974  11.632  17.887  0.00  0.00    +0.000 A 
ATOM     15  C   UNL     1      -4.644  11.254  16.723  0.00  0.00    +0.000 A 
ATOM     16  C   UNL     1      -3.991  10.465  15.787  0.00  0.00    +0.000 A 
ATOM     17  F   UNL     1      -4.634  10.104  14.670  0.00  0.00    +0.000 F 
ATOM     18  C   UNL     1      -2.685  10.048  15.999  0.00  0.00    +0.000 A 
ATOM     19  C   UNL     1      -2.007  10.433  17.164  0.00  0.00    +0.000 A 
ENDBRANCH  11  13
BRANCH   4  20
ATOM     20  C   UNL     1       2.561   7.494  18.746  0.00  0.00    +0.000 A 
ATOM     21  C   UNL     1       3.100   7.904  17.525  0.00  0.00    +0.000 A 
ATOM     22  C   UNL     1       4.151   7.224  16.921  0.00  0.00    +0.000 A 
ATOM     23  C   UNL     1       4.674   6.074  17.518  0.00  0.00    +0.000 A 
ATOM     24  C   UNL     1       4.163   5.630  18.751  0.00  0.00    +0.000 A 
ATOM     25  C   UNL     1       3.121   6.358  19.357  0.00  0.00    +0.000 A 
BRANCH  23  26
ATOM     26  N   UNL     1       5.733   5.415  16.849  0.00  0.00    +0.000 N 
ATOM     27  C   UNL     1       6.950   4.999  17.329  0.00  0.00    +0.000 A 
ATOM     28  N   UNL     1       7.697   4.531  16.356  0.00  0.00    +0.000 NA
ATOM     29  C   UNL     1       6.878   4.641  15.269  0.00  0.00    +0.000 A 
ATOM     30  C   UNL     1       7.340   4.334  13.902  0.00  0.00    +0.000 C 
ATOM     31  N   UNL     1       5.644   5.085  15.531  0.00  0.00    +0.000 NA
ENDBRANCH  23  26
BRANCH  24  32
ATOM     32  O   UNL     1       4.775   4.551  19.328  0.00  0.00    +0.000 OA
ATOM     33  C   UNL     1       4.110   3.296  19.309  0.00  0.00    +0.000 C 
ENDBRANCH  24  32
ENDBRANCH   4  20
BRANCH   1  35
ATOM     34  C   UNL     1       3.356  13.490  18.594  0.00  0.00    +0.000 C 
ATOM     35  N   UNL     1       2.480  12.612  17.848  0.00  0.00    +0.000 N 
ATOM     36  H   UNL     1       2.002  13.038  17.056  0.00  0.00    +0.000 HD
ENDBRANCH   1  35
TORSDOF 5
ENDMDL
MODEL 2
REMARK VINA RESULT:      -8.7      1.651      2.252
REMARK  Name = 
REMARK  8 active torsions:
REMARK  status: ('A' for Active; 'I' for Inactive)
REMARK    1  A    between atoms: C_1  and  N_2
REMARK    2  A    between atoms: N_2  and  C_3
REMARK    3  A    between atoms: N_6  and  C_7
REMARK    4  A    between atoms: C_10  and  N_11
REMARK    5  A    between atoms: C_14  and  C_15
REMARK    6  A    between atoms: C_17  and  O_18
REMARK    7  A    between atoms: O_18  and  C_19
REMARK    8  A    between atoms: C_27  and  C_28
REMARK                            x       y       z     vdW  Elec       q    Type
REMARK                         _______ _______ _______ _____ _____    ______ ____
ROOT
ATOM      1  C   UNL     1       0.994  12.511  19.052  0.00  0.00    +0.000 A 
ATOM      2  N   UNL     1       1.301  11.242  19.363  0.00  0.00    +0.000 NA
ATOM      3  C   UNL     1       0.563  10.558  20.268  0.00  0.00    +0.000 A 
ATOM      4  N   UNL     1       0.894   9.238  20.579  0.00  0.00    +0.000 N 
ATOM      5  N   UNL     1      -0.515  11.072  20.887  0.00  0.00    +0.000 NA
ATOM      6  C   UNL     1      -0.810  12.339  20.548  0.00  0.00    +0.000 A 
ATOM      7  C   UNL     1      -0.048  13.101  19.698  0.00  0.00    +0.000 A 
ATOM      8  C   UNL     1      -0.632  14.425  19.598  0.00  0.00    +0.000 C 
ATOM      9  O   UNL     1      -0.186  15.334  18.923  0.00  0.00    +0.000 OA
ATOM     10  C   UNL     1      -1.805  14.507  20.542  0.00  0.00    +0.000 C 
ATOM     11  C   UNL     1      -2.130  13.027  20.848  0.00  0.00    +0.000 C 
ATOM     12  H   UNL     1       0.282   8.886  21.302  0.00  0.00    +0.000 HD
ENDROOT
BRANCH  11  13
ATOM     13  C   UNL     1      -3.267  12.507  19.965  0.00  0.00    +0.000 A 
ATOM     14  C   UNL     1      -3.022  11.819  18.757  0.00  0.00    +0.000 A 
ATOM     15  C   UNL     1      -4.074  11.339  17.975  0.00  0.00    +0.000 A 
ATOM     16  C   UNL     1      -5.382  11.551  18.388  0.00  0.00    +0.000 A 
ATOM     17  F   UNL     1      -6.390  11.088  17.639  0.00  0.00    +0.000 F 
ATOM     18  C   UNL     1      -5.652  12.235  19.565  0.00  0.00    +0.000 A 
ATOM     19  C   UNL     1      -4.597  12.711  20.356  0.00  0.00    +0.000 A 
ENDBRANCH  11  13
BRANCH   4  20
ATOM     20  C   UNL     1       1.586   8.281  19.814  0.00  0.00    +0.000 A 
ATOM     21  C   UNL     1       1.993   8.523  18.500  0.00  0.00    +0.000 A 
ATOM     22  C   UNL     1       2.757   7.606  17.787  0.00  0.00    +0.000 A 
ATOM     23  C   UNL     1       3.107   6.385  18.370  0.00  0.00    +0.000 A 
ATOM     24  C   UNL     1       2.722   6.104  19.693  0.00  0.00    +0.000 A 
ATOM     25  C   UNL     1       1.978   7.065  20.404  0.00  0.00    +0.000 A 
BRANCH  23  26
ATOM     26  N   UNL     1       3.872   5.485  17.590  0.00  0.00    +0.000 N 
ATOM     27  C   UNL     1       3.636   4.167  17.287  0.00  0.00    +0.000 A 
ATOM     28  N   UNL     1       4.651   3.654  16.630  0.00  0.00    +0.000 NA
ATOM     29  C   UNL     1       5.499   4.717  16.509  0.00  0.00    +0.000 A 
ATOM     30  C   UNL     1       6.848   4.585  15.925  0.00  0.00    +0.000 C 
ATOM     31  N   UNL     1       5.033   5.873  16.993  0.00  0.00    +0.000 NA
ENDBRANCH  23  26
BRANCH  24  32
ATOM     32  O   UNL     1       3.169   4.931  20.237  0.00  0.00    +0.000 OA
ATOM     33  C   UNL     1       2.267   4.139  20.994  0.00  0.00    +0.000 C 
ENDBRANCH  24  32
ENDBRANCH   4  20
BRANCH   1  35
ATOM     34  C   UNL     1       2.906  13.754  18.195  0.00  0.00    +0.000 C 
ATOM     35  N   UNL     1       1.614  13.140  17.974  0.00  0.00    +0.000 N 
ATOM     36  H   UNL     1       0.964  13.678  17.404  0.00  0.00    +0.000 HD
ENDBRANCH   1  35
TORSDOF 5
ENDMDL
MODEL 3
REMARK VINA RESULT:      -8.4      0.932      1.267
REMARK  Name = 
REMARK  8 active torsions:
REMARK  status: ('A' for Active; 'I' for Inactive)
REMARK    1  A    between atoms: C_1  and  N_2
REMARK    2  A    between atoms: N_2  and  C_3
REMARK    3  A    between atoms: N_6  and  C_7
REMARK    4  A    between atoms: C_10  and  N_11
REMARK    5  A    between atoms: C_14  and  C_15
REMARK    6  A    between atoms: C_17  and  O_18
REMARK    7  A    between atoms: O_18  and  C_19
REMARK    8  A    between atoms: C_27  and  C_28
REMARK                            x       y       z     vdW  Elec       q    Type
REMARK                         _______ _______ _______ _____ _____    ______ ____
ROOT
ATOM      1  C   UNL     1       1.393  12.144  19.378  0.00  0.00    +0.000 A 
ATOM      2  N   UNL     1       1.727  10.844  19.407  0.00  0.00    +0.000 NA
ATOM      3  C   UNL     1       0.840   9.915  19.832  0.00  0.00    +0.000 A 
ATOM      4  N   UNL     1       1.201   8.567  19.855  0.00  0.00    +0.000 N 
ATOM      5  N   UNL     1      -0.413  10.211  20.224  0.00  0.00    +0.000 NA
ATOM      6  C   UNL     1      -0.728  11.516  20.173  0.00  0.00    +0.000 A 
ATOM      7  C   UNL     1       0.160  12.504  19.825  0.00  0.00    +0.000 A 
ATOM      8  C   UNL     1      -0.504  13.791  19.924  0.00  0.00    +0.000 C 
ATOM      9  O   UNL     1       0.018  14.864  19.684  0.00  0.00    +0.000 OA
ATOM     10  C   UNL     1      -1.894  13.577  20.467  0.00  0.00    +0.000 C 
ATOM     11  C   UNL     1      -2.141  12.067  20.248  0.00  0.00    +0.000 C 
ATOM     12  H   UNL     1       0.452   8.011  20.241  0.00  0.00    +0.000 HD
ENDROOT
BRANCH  11  13
ATOM     13  C   UNL     1      -2.932  11.806  18.964  0.00  0.00    +0.000 A 
ATOM     14  C   UNL     1      -2.312  11.346  17.783  0.00  0.00    +0.000 A 
ATOM     15  C   UNL     1      -3.055  11.100  16.627  0.00  0.00    +0.000 A 
ATOM     16  C   UNL     1      -4.424  11.323  16.637  0.00  0.00    +0.000 A 
ATOM     17  F   UNL     1      -5.136  11.084  15.529  0.00  0.00    +0.000 F 
ATOM     18  C   UNL     1      -5.058  11.788  17.780  0.00  0.00    +0.000 A 
ATOM     19  C   UNL     1      -4.316  12.028  18.945  0.00  0.00    +0.000 A 
ENDBRANCH  11  13
BRANCH   4  20
ATOM     20  C   UNL     1       2.170   7.884  19.095  0.00  0.00    +0.000 A 
ATOM     21  C   UNL     1       2.598   8.336  17.845  0.00  0.00    +0.000 A 
ATOM     22  C   UNL     1       3.622   7.706  17.147  0.00  0.00    +0.000 A 
ATOM     23  C   UNL     1       4.227   6.564  17.676  0.00  0.00    +0.000 A 
ATOM     24  C   UNL     1       3.830   6.078  18.935  0.00  0.00    +0.000 A 
ATOM     25  C   UNL     1       2.815   6.757  19.636  0.00  0.00    +0.000 A 
BRANCH  23  26
ATOM     26  N   UNL     1       5.253   5.955  16.913  0.00  0.00    +0.000 N 
ATOM     27  C   UNL     1       6.603   6.202  16.903  0.00  0.00    +0.000 A 
ATOM     28  N   UNL     1       7.196   5.500  15.965  0.00  0.00    +0.000 NA
ATOM     29  C   UNL     1       6.163   4.787  15.426  0.00  0.00    +0.000 A 
ATOM     30  C   UNL     1       6.337   3.926  14.240  0.00  0.00    +0.000 C 
ATOM     31  N   UNL     1       4.981   4.958  16.027  0.00  0.00    +0.000 NA
ENDBRANCH  23  26
BRANCH  24  32
ATOM     32  O   UNL     1       4.521   5.010  19.439  0.00  0.00    +0.000 OA
ATOM     33  C   UNL     1       3.911   3.729  19.420  0.00  0.00    +0.000 C 
ENDBRANCH  24  32
ENDBRANCH   4  20
BRANCH   1  35
ATOM     34  C   UNL     1       3.137  13.834  19.562  0.00  0.00    +0.000 C 
ATOM     35  N   UNL     1       2.221  13.068  18.744  0.00  0.00    +0.000 N 
ATOM     36  H   UNL     1       1.741  13.592  18.014  0.00  0.00    +0.000 HD
ENDBRANCH   1  35
TORSDOF 5
ENDMDL
MODEL 4
REMARK VINA RESULT:      -8.2      1.105      1.528
REMARK  Name = 
REMARK  8 active torsions:
REMARK  status: ('A' for Active; 'I' for Inactive)
REMARK    1  A    between atoms: C_1  and  N_2
REMARK    2  A    between atoms: N_2  and  C_3
REMARK    3  A    between atoms: N_6  and  C_7
REMARK    4  A    between atoms: C_10  and  N_11
REMARK    5  A    between atoms: C_14  and  C_15
REMARK    6  A    between atoms: C_17  and  O_18
REMARK    7  A    between atoms: O_18  and  C_19
REMARK    8  A    between atoms: C_27  and  C_28
REMARK                            x       y       z     vdW  Elec       q    Type
REMARK                         _______ _______ _______ _____ _____    ______ ____
ROOT
ATOM      1  C   UNL     1       1.877  11.443  18.366  0.00  0.00    +0.000 A 
ATOM      2  N   UNL     1       2.195  10.148  18.517  0.00  0.00    +0.000 NA
ATOM      3  C   UNL     1       1.306   9.279  19.051  0.00  0.00    +0.000 A 
ATOM      4  N   UNL     1       1.652   7.934  19.200  0.00  0.00    +0.000 N 
ATOM      5  N   UNL     1       0.066   9.630  19.437  0.00  0.00    +0.000 NA
ATOM      6  C   UNL     1      -0.234  10.928  19.263  0.00  0.00    +0.000 A 
ATOM      7  C   UNL     1       0.658  11.864  18.801  0.00  0.00    +0.000 A 
ATOM      8  C   UNL     1       0.013  13.163  18.785  0.00  0.00    +0.000 C 
ATOM      9  O   UNL     1       0.543  14.200  18.429  0.00  0.00    +0.000 OA
ATOM     10  C   UNL     1      -1.368  13.024  19.375  0.00  0.00    +0.000 C 
ATOM     11  C   UNL     1      -1.638  11.504  19.312  0.00  0.00    +0.000 C 
ATOM     12  H   UNL     1       0.904   7.430  19.655  0.00  0.00    +0.000 HD
ENDROOT
BRANCH  11  13
ATOM     13  C   UNL     1      -2.460  11.129  18.077  0.00  0.00    +0.000 A 
ATOM     14  C   UNL     1      -3.758  11.639  17.858  0.00  0.00    +0.000 A 
ATOM     15  C   UNL     1      -4.484  11.297  16.717  0.00  0.00    +0.000 A 
ATOM     16  C   UNL     1      -3.925  10.431  15.788  0.00  0.00    +0.000 A 
ATOM     17  F   UNL     1      -4.621  10.105  14.692  0.00  0.00    +0.000 F 
ATOM     18  C   UNL     1      -2.657   9.903  15.984  0.00  0.00    +0.000 A 
ATOM     19  C   UNL     1      -1.922  10.252  17.125  0.00  0.00    +0.000 A 
ENDBRANCH  11  13
BRANCH   4  20
ATOM     20  C   UNL     1       2.595   7.166  18.492  0.00  0.00    +0.000 A 
ATOM     21  C   UNL     1       2.385   5.821  18.182  0.00  0.00    +0.000 A 
ATOM     22  C   UNL     1       3.282   5.098  17.402  0.00  0.00    +0.000 A 
ATOM     23  C   UNL     1       4.451   5.707  16.938  0.00  0.00    +0.000 A 
ATOM     24  C   UNL     1       4.698   7.062  17.223  0.00  0.00    +0.000 A 
ATOM     25  C   UNL     1       3.755   7.778  17.985  0.00  0.00    +0.000 A 
BRANCH  23  26
ATOM     26  N   UNL     1       5.334   4.917  16.162  0.00  0.00    +0.000 N 
ATOM     27  C   UNL     1       6.500   4.291  16.525  0.00  0.00    +0.000 A 
ATOM     28  N   UNL     1       7.083   3.753  15.479  0.00  0.00    +0.000 NA
ATOM     29  C   UNL     1       6.211   4.042  14.468  0.00  0.00    +0.000 A 
ATOM     30  C   UNL     1       6.510   3.727  13.058  0.00  0.00    +0.000 C 
ATOM     31  N   UNL     1       5.090   4.666  14.846  0.00  0.00    +0.000 NA
ENDBRANCH  23  26
BRANCH  24  32
ATOM     32  O   UNL     1       5.814   7.623  16.666  0.00  0.00    +0.000 OA
ATOM     33  C   UNL     1       7.003   7.693  17.438  0.00  0.00    +0.000 C 
ENDBRANCH  24  32
ENDBRANCH   4  20
BRANCH   1  35
ATOM     34  C   UNL     1       3.500  13.259  18.344  0.00  0.00    +0.000 C 
ATOM     35  N   UNL     1       2.701  12.288  17.626  0.00  0.00    +0.000 N 
ATOM     36  H   UNL     1       2.257  12.628  16.775  0.00  0.00    +0.000 HD
ENDBRANCH   1  35
TORSDOF 5
ENDMDL
MODEL 5
REMARK VINA RESULT:      -8.1      1.534      1.796
REMARK  Name = 
REMARK  8 active torsions:
REMARK  status: ('A' for Active; 'I' for Inactive)
REMARK    1  A    between atoms: C_1  and  N_2
REMARK    2  A    between atoms: N_2  and  C_3
REMARK    3  A    between atoms: N_6  and  C_7
REMARK    4  A    between atoms: C_10  and  N_11
REMARK    5  A    between atoms: C_14  and  C_15
REMARK    6  A    between atoms: C_17  and  O_18
REMARK    7  A    between atoms: O_18  and  C_19
REMARK    8  A    between atoms: C_27  and  C_28
REMARK                            x       y       z     vdW  Elec       q    Type
REMARK                         _______ _______ _______ _____ _____    ______ ____
ROOT
ATOM      1  C   UNL     1       1.026  12.522  19.966  0.00  0.00    +0.000 A 
ATOM      2  N   UNL     1       1.341  11.217  19.950  0.00  0.00    +0.000 NA
ATOM      3  C   UNL     1       0.467  10.293  20.412  0.00  0.00    +0.000 A 
ATOM      4  N   UNL     1       0.809   8.939  20.388  0.00  0.00    +0.000 N 
ATOM      5  N   UNL     1      -0.755  10.598  20.884  0.00  0.00    +0.000 NA
ATOM      6  C   UNL     1      -1.053  11.909  20.875  0.00  0.00    +0.000 A 
ATOM      7  C   UNL     1      -0.173  12.890  20.492  0.00  0.00    +0.000 A 
ATOM      8  C   UNL     1      -0.810  14.184  20.654  0.00  0.00    +0.000 C 
ATOM      9  O   UNL     1      -0.287  15.254  20.402  0.00  0.00    +0.000 OA
ATOM     10  C   UNL     1      -2.168  13.980  21.276  0.00  0.00    +0.000 C 
ATOM     11  C   UNL     1      -2.451  12.478  21.045  0.00  0.00    +0.000 C 
ATOM     12  H   UNL     1       0.076   8.387  20.809  0.00  0.00    +0.000 HD
ENDROOT
BRANCH  11  13
ATOM     13  C   UNL     1      -3.321  12.252  19.806  0.00  0.00    +0.000 A 
ATOM     14  C   UNL     1      -4.693  12.583  19.785  0.00  0.00    +0.000 A 
ATOM     15  C   UNL     1      -5.465  12.384  18.640  0.00  0.00    +0.000 A 
ATOM     16  C   UNL     1      -4.876  11.841  17.507  0.00  0.00    +0.000 A 
ATOM     17  F   UNL     1      -5.616  11.653  16.408  0.00  0.00    +0.000 F 
ATOM     18  C   UNL     1      -3.532  11.494  17.503  0.00  0.00    +0.000 A 
ATOM     19  C   UNL     1      -2.753  11.700  18.650  0.00  0.00    +0.000 A 
ENDBRANCH  11  13
BRANCH   4  20
ATOM     20  C   UNL     1       1.720   8.258  19.560  0.00  0.00    +0.000 A 
ATOM     21  C   UNL     1       2.127   8.759  18.322  0.00  0.00    +0.000 A 
ATOM     22  C   UNL     1       3.097   8.123  17.555  0.00  0.00    +0.000 A 
ATOM     23  C   UNL     1       3.667   6.928  18.001  0.00  0.00    +0.000 A 
ATOM     24  C   UNL     1       3.289   6.392  19.245  0.00  0.00    +0.000 A 
ATOM     25  C   UNL     1       2.330   7.075  20.017  0.00  0.00    +0.000 A 
BRANCH  23  26
ATOM     26  N   UNL     1       4.639   6.318  17.171  0.00  0.00    +0.000 N 
ATOM     27  C   UNL     1       5.919   6.717  16.879  0.00  0.00    +0.000 A 
ATOM     28  N   UNL     1       6.454   5.933  15.972  0.00  0.00    +0.000 NA
ATOM     29  C   UNL     1       5.466   5.017  15.747  0.00  0.00    +0.000 A 
ATOM     30  C   UNL     1       5.575   3.984  14.698  0.00  0.00    +0.000 C 
ATOM     31  N   UNL     1       4.381   5.153  16.515  0.00  0.00    +0.000 NA
ENDBRANCH  23  26
BRANCH  24  32
ATOM     32  O   UNL     1       3.947   5.268  19.666  0.00  0.00    +0.000 OA
ATOM     33  C   UNL     1       3.196   4.092  19.925  0.00  0.00    +0.000 C 
ENDBRANCH  24  32
ENDBRANCH   4  20
BRANCH   1  35
ATOM     34  C   UNL     1       2.645  12.972  18.203  0.00  0.00    +0.000 C 
ATOM     35  N   UNL     1       1.828  13.446  19.299  0.00  0.00    +0.000 N 
ATOM     36  H   UNL     1       2.279  14.105  19.931  0.00  0.00    +0.000 HD
ENDBRANCH   1  35
TORSDOF 5
ENDMDL
MODEL 6
REMARK VINA RESULT:      -8.1      3.789      9.108
REMARK  Name = 
REMARK  8 active torsions:
REMARK  status: ('A' for Active; 'I' for Inactive)
REMARK    1  A    between atoms: C_1  and  N_2
REMARK    2  A    between atoms: N_2  and  C_3
REMARK    3  A    between atoms: N_6  and  C_7
REMARK    4  A    between atoms: C_10  and  N_11
REMARK    5  A    between atoms: C_14  and  C_15
REMARK    6  A    between atoms: C_17  and  O_18
REMARK    7  A    between atoms: O_18  and  C_19
REMARK    8  A    between atoms: C_27  and  C_28
REMARK                            x       y       z     vdW  Elec       q    Type
REMARK                         _______ _______ _______ _____ _____    ______ ____
ROOT
ATOM      1  C   UNL     1       4.760   6.832  17.840  0.00  0.00    +0.000 A 
ATOM      2  N   UNL     1       3.824   7.790  17.924  0.00  0.00    +0.000 NA
ATOM      3  C   UNL     1       2.515   7.489  17.757  0.00  0.00    +0.000 A 
ATOM      4  N   UNL     1       1.553   8.497  17.848  0.00  0.00    +0.000 N 
ATOM      5  N   UNL     1       2.064   6.243  17.524  0.00  0.00    +0.000 NA
ATOM      6  C   UNL     1       3.019   5.300  17.459  0.00  0.00    +0.000 A 
ATOM      7  C   UNL     1       4.363   5.565  17.544  0.00  0.00    +0.000 A 
ATOM      8  C   UNL     1       5.100   4.325  17.386  0.00  0.00    +0.000 C 
ATOM      9  O   UNL     1       6.313   4.227  17.409  0.00  0.00    +0.000 OA
ATOM     10  C   UNL     1       4.122   3.217  17.090  0.00  0.00    +0.000 C 
ATOM     11  C   UNL     1       2.762   3.805  17.531  0.00  0.00    +0.000 C 
ATOM     12  H   UNL     1       0.636   8.122  17.651  0.00  0.00    +0.000 HD
ENDROOT
BRANCH  11  13
ATOM     13  C   UNL     1       2.382   3.350  18.941  0.00  0.00    +0.000 A 
ATOM     14  C   UNL     1       3.346   2.892  19.865  0.00  0.00    +0.000 A 
ATOM     15  C   UNL     1       2.979   2.496  21.152  0.00  0.00    +0.000 A 
ATOM     16  C   UNL     1       1.644   2.543  21.526  0.00  0.00    +0.000 A 
ATOM     17  F   UNL     1       1.294   2.166  22.761  0.00  0.00    +0.000 F 
ATOM     18  C   UNL     1       0.674   2.977  20.634  0.00  0.00    +0.000 A 
ATOM     19  C   UNL     1       1.040   3.383  19.343  0.00  0.00    +0.000 A 
ENDBRANCH  11  13
BRANCH   4  20
ATOM     20  C   UNL     1       1.602   9.726  18.531  0.00  0.00    +0.000 A 
ATOM     21  C   UNL     1       2.107  10.889  17.947  0.00  0.00    +0.000 A 
ATOM     22  C   UNL     1       2.065  12.117  18.598  0.00  0.00    +0.000 A 
ATOM     23  C   UNL     1       1.540  12.204  19.890  0.00  0.00    +0.000 A 
ATOM     24  C   UNL     1       1.015  11.057  20.513  0.00  0.00    +0.000 A 
ATOM     25  C   UNL     1       1.040   9.834  19.816  0.00  0.00    +0.000 A 
BRANCH  23  26
ATOM     26  N   UNL     1       1.537  13.477  20.509  0.00  0.00    +0.000 N 
ATOM     27  C   UNL     1       0.667  14.527  20.353  0.00  0.00    +0.000 A 
ATOM     28  N   UNL     1       1.082  15.577  21.024  0.00  0.00    +0.000 NA
ATOM     29  C   UNL     1       2.219  15.118  21.626  0.00  0.00    +0.000 A 
ATOM     30  C   UNL     1       3.105  16.001  22.409  0.00  0.00    +0.000 C 
ATOM     31  N   UNL     1       2.488  13.825  21.420  0.00  0.00    +0.000 NA
ENDBRANCH  23  26
BRANCH  24  32
ATOM     32  O   UNL     1       0.436  11.224  21.741  0.00  0.00    +0.000 OA
ATOM     33  C   UNL     1      -0.084  10.087  22.413  0.00  0.00    +0.000 C 
ENDBRANCH  24  32
ENDBRANCH   4  20
BRANCH   1  35
ATOM     34  C   UNL     1       6.993   7.574  17.211  0.00  0.00    +0.000 C 
ATOM     35  N   UNL     1       6.074   7.098  18.223  0.00  0.00    +0.000 N 
ATOM     36  H   UNL     1       6.448   6.399  18.862  0.00  0.00    +0.000 HD
ENDBRANCH   1  35
TORSDOF 5
ENDMDL
MODEL 7
REMARK VINA RESULT:      -7.8      2.222      2.771
REMARK  Name = 
REMARK  8 active torsions:
REMARK  status: ('A' for Active; 'I' for Inactive)
REMARK    1  A    between atoms: C_1  and  N_2
REMARK    2  A    between atoms: N_2  and  C_3
REMARK    3  A    between atoms: N_6  and  C_7
REMARK    4  A    between atoms: C_10  and  N_11
REMARK    5  A    between atoms: C_14  and  C_15
REMARK    6  A    between atoms: C_17  and  O_18
REMARK    7  A    between atoms: O_18  and  C_19
REMARK    8  A    between atoms: C_27  and  C_28
REMARK                            x       y       z     vdW  Elec       q    Type
REMARK                         _______ _______ _______ _____ _____    ______ ____
ROOT
ATOM      1  C   UNL     1       1.233  12.186  20.880  0.00  0.00    +0.000 A 
ATOM      2  N   UNL     1       1.372  10.851  20.869  0.00  0.00    +0.000 NA
ATOM      3  C   UNL     1       0.420  10.056  21.411  0.00  0.00    +0.000 A 
ATOM      4  N   UNL     1       0.579   8.669  21.391  0.00  0.00    +0.000 N 
ATOM      5  N   UNL     1      -0.713  10.526  21.962  0.00  0.00    +0.000 NA
ATOM      6  C   UNL     1      -0.836  11.864  21.948  0.00  0.00    +0.000 A 
ATOM      7  C   UNL     1       0.135  12.717  21.483  0.00  0.00    +0.000 A 
ATOM      8  C   UNL     1      -0.313  14.085  21.663  0.00  0.00    +0.000 C 
ATOM      9  O   UNL     1       0.327  15.074  21.353  0.00  0.00    +0.000 OA
ATOM     10  C   UNL     1      -1.636  14.069  22.384  0.00  0.00    +0.000 C 
ATOM     11  C   UNL     1      -2.130  12.616  22.205  0.00  0.00    +0.000 C 
ATOM     12  H   UNL     1      -0.187   8.224  21.874  0.00  0.00    +0.000 HD
ENDROOT
BRANCH  11  13
ATOM     13  C   UNL     1      -3.111  12.494  21.036  0.00  0.00    +0.000 A 
ATOM     14  C   UNL     1      -4.489  12.759  21.185  0.00  0.00    +0.000 A 
ATOM     15  C   UNL     1      -5.364  12.658  20.103  0.00  0.00    +0.000 A 
ATOM     16  C   UNL     1      -4.872  12.278  18.862  0.00  0.00    +0.000 A 
ATOM     17  F   UNL     1      -5.711  12.184  17.823  0.00  0.00    +0.000 F 
ATOM     18  C   UNL     1      -3.524  11.999  18.690  0.00  0.00    +0.000 A 
ATOM     19  C   UNL     1      -2.641  12.108  19.774  0.00  0.00    +0.000 A 
ENDBRANCH  11  13
BRANCH   4  20
ATOM     20  C   UNL     1       1.329   7.864  20.514  0.00  0.00    +0.000 A 
ATOM     21  C   UNL     1       1.876   8.355  19.327  0.00  0.00    +0.000 A 
ATOM     22  C   UNL     1       2.693   7.576  18.515  0.00  0.00    +0.000 A 
ATOM     23  C   UNL     1       2.956   6.248  18.861  0.00  0.00    +0.000 A 
ATOM     24  C   UNL     1       2.430   5.715  20.052  0.00  0.00    +0.000 A 
ATOM     25  C   UNL     1       1.635   6.538  20.871  0.00  0.00    +0.000 A 
BRANCH  23  26
ATOM     26  N   UNL     1       3.782   5.498  17.989  0.00  0.00    +0.000 N 
ATOM     27  C   UNL     1       3.487   4.383  17.244  0.00  0.00    +0.000 A 
ATOM     28  N   UNL     1       4.566   3.921  16.655  0.00  0.00    +0.000 NA
ATOM     29  C   UNL     1       5.524   4.816  17.037  0.00  0.00    +0.000 A 
ATOM     30  C   UNL     1       6.949   4.634  16.700  0.00  0.00    +0.000 C 
ATOM     31  N   UNL     1       5.081   5.842  17.771  0.00  0.00    +0.000 NA
ENDBRANCH  23  26
BRANCH  24  32
ATOM     32  O   UNL     1       2.797   4.438  20.379  0.00  0.00    +0.000 OA
ATOM     33  C   UNL     1       2.207   3.827  21.516  0.00  0.00    +0.000 C 
ENDBRANCH  24  32
ENDBRANCH   4  20
BRANCH   1  35
ATOM     34  C   UNL     1       1.893  13.071  18.709  0.00  0.00    +0.000 C 
ATOM     35  N   UNL     1       2.099  12.989  20.139  0.00  0.00    +0.000 N 
ATOM     36  H   UNL     1       3.068  12.907  20.440  0.00  0.00    +0.000 HD
ENDBRANCH   1  35
TORSDOF 5
ENDMDL
MODEL 8
REMARK VINA RESULT:      -7.7      3.706      5.458
REMARK  Name = 
REMARK  8 active torsions:
REMARK  status: ('A' for Active; 'I' for Inactive)
REMARK    1  A    between atoms: C_1  and  N_2
REMARK    2  A    between atoms: N_2  and  C_3
REMARK    3  A    between atoms: N_6  and  C_7
REMARK    4  A    between atoms: C_10  and  N_11
REMARK    5  A    between atoms: C_14  and  C_15
REMARK    6  A    between atoms: C_17  and  O_18
REMARK    7  A    between atoms: O_18  and  C_19
REMARK    8  A    between atoms: C_27  and  C_28
REMARK                            x       y       z     vdW  Elec       q    Type
REMARK                         _______ _______ _______ _____ _____    ______ ____
ROOT
ATOM      1  C   UNL     1      -0.064  11.377  21.090  0.00  0.00    +0.000 A 
ATOM      2  N   UNL     1       0.476  10.510  20.220  0.00  0.00    +0.000 NA
ATOM      3  C   UNL     1       0.956  10.939  19.030  0.00  0.00    +0.000 A 
ATOM      4  N   UNL     1       1.516  10.024  18.135  0.00  0.00    +0.000 N 
ATOM      5  N   UNL     1       0.952  12.229  18.650  0.00  0.00    +0.000 NA
ATOM      6  C   UNL     1       0.420  13.080  19.544  0.00  0.00    +0.000 A 
ATOM      7  C   UNL     1      -0.151  12.685  20.729  0.00  0.00    +0.000 A 
ATOM      8  C   UNL     1      -0.663  13.855  21.418  0.00  0.00    +0.000 C 
ATOM      9  O   UNL     1      -1.231  13.837  22.495  0.00  0.00    +0.000 OA
ATOM     10  C   UNL     1      -0.467  15.061  20.535  0.00  0.00    +0.000 C 
ATOM     11  C   UNL     1       0.584  14.589  19.504  0.00  0.00    +0.000 C 
ATOM     12  H   UNL     1       1.781  10.491  17.280  0.00  0.00    +0.000 HD
ENDROOT
BRANCH  11  13
ATOM     13  C   UNL     1       1.996  15.028  19.899  0.00  0.00    +0.000 A 
ATOM     14  C   UNL     1       2.233  15.911  20.973  0.00  0.00    +0.000 A 
ATOM     15  C   UNL     1       3.530  16.286  21.326  0.00  0.00    +0.000 A 
ATOM     16  C   UNL     1       4.604  15.791  20.601  0.00  0.00    +0.000 A 
ATOM     17  F   UNL     1       5.848  16.149  20.941  0.00  0.00    +0.000 F 
ATOM     18  C   UNL     1       4.400  14.931  19.531  0.00  0.00    +0.000 A 
ATOM     19  C   UNL     1       3.099  14.546  19.179  0.00  0.00    +0.000 A 
ENDBRANCH  11  13
BRANCH   4  20
ATOM     20  C   UNL     1       2.109   8.772  18.385  0.00  0.00    +0.000 A 
ATOM     21  C   UNL     1       1.754   7.979  19.478  0.00  0.00    +0.000 A 
ATOM     22  C   UNL     1       2.278   6.704  19.662  0.00  0.00    +0.000 A 
ATOM     23  C   UNL     1       3.218   6.200  18.759  0.00  0.00    +0.000 A 
ATOM     24  C   UNL     1       3.599   6.964  17.642  0.00  0.00    +0.000 A 
ATOM     25  C   UNL     1       3.025   8.237  17.462  0.00  0.00    +0.000 A 
BRANCH  23  26
ATOM     26  N   UNL     1       3.729   4.902  19.006  0.00  0.00    +0.000 N 
ATOM     27  C   UNL     1       4.928   4.522  19.556  0.00  0.00    +0.000 A 
ATOM     28  N   UNL     1       5.068   3.217  19.504  0.00  0.00    +0.000 NA
ATOM     29  C   UNL     1       3.894   2.812  18.937  0.00  0.00    +0.000 A 
ATOM     30  C   UNL     1       3.643   1.404  18.572  0.00  0.00    +0.000 C 
ATOM     31  N   UNL     1       3.011   3.787  18.701  0.00  0.00    +0.000 NA
ENDBRANCH  23  26
BRANCH  24  32
ATOM     32  O   UNL     1       4.455   6.380  16.748  0.00  0.00    +0.000 OA
ATOM     33  C   UNL     1       5.826   6.746  16.773  0.00  0.00    +0.000 C 
ENDBRANCH  24  32
ENDBRANCH   4  20
BRANCH   1  35
ATOM     34  C   UNL     1      -0.369   9.556  22.679  0.00  0.00    +0.000 C 
ATOM     35  N   UNL     1      -0.360  10.975  22.392  0.00  0.00    +0.000 N 
ATOM     36  H   UNL     1      -1.118  11.512  22.809  0.00  0.00    +0.000 HD
ENDBRANCH   1  35
TORSDOF 5
ENDMDL
MODEL 9
REMARK VINA RESULT:      -7.7      4.504      6.607
REMARK  Name = 
REMARK  8 active torsions:
REMARK  status: ('A' for Active; 'I' for Inactive)
REMARK    1  A    between atoms: C_1  and  N_2
REMARK    2  A    between atoms: N_2  and  C_3
REMARK    3  A    between atoms: N_6  and  C_7
REMARK    4  A    between atoms: C_10  and  N_11
REMARK    5  A    between atoms: C_14  and  C_15
REMARK    6  A    between atoms: C_17  and  O_18
REMARK    7  A    between atoms: O_18  and  C_19
REMARK    8  A    between atoms: C_27  and  C_28
REMARK                            x       y       z     vdW  Elec       q    Type
REMARK                         _______ _______ _______ _____ _____    ______ ____
ROOT
ATOM      1  C   UNL     1       0.961  13.473  20.429  0.00  0.00    +0.000 A 
ATOM      2  N   UNL     1       1.091  12.318  19.758  0.00  0.00    +0.000 NA
ATOM      3  C   UNL     1       1.611  12.303  18.508  0.00  0.00    +0.000 A 
ATOM      4  N   UNL     1       1.741  11.093  17.823  0.00  0.00    +0.000 N 
ATOM      5  N   UNL     1       2.045  13.406  17.872  0.00  0.00    +0.000 NA
ATOM      6  C   UNL     1       1.917  14.547  18.570  0.00  0.00    +0.000 A 
ATOM      7  C   UNL     1       1.326  14.626  19.806  0.00  0.00    +0.000 A 
ATOM      8  C   UNL     1       1.318  16.011  20.238  0.00  0.00    +0.000 C 
ATOM      9  O   UNL     1       0.857  16.410  21.292  0.00  0.00    +0.000 OA
ATOM     10  C   UNL     1       1.873  16.867  19.128  0.00  0.00    +0.000 C 
ATOM     11  C   UNL     1       2.610  15.853  18.223  0.00  0.00    +0.000 C 
ATOM     12  H   UNL     1       2.096  11.256  16.892  0.00  0.00    +0.000 HD
ENDROOT
BRANCH  11  13
ATOM     13  C   UNL     1       4.109  15.812  18.528  0.00  0.00    +0.000 A 
ATOM     14  C   UNL     1       4.698  16.644  19.504  0.00  0.00    +0.000 A 
ATOM     15  C   UNL     1       6.065  16.579  19.778  0.00  0.00    +0.000 A 
ATOM     16  C   UNL     1       6.860  15.689  19.071  0.00  0.00    +0.000 A 
ATOM     17  F   UNL     1       8.170  15.625  19.335  0.00  0.00    +0.000 F 
ATOM     18  C   UNL     1       6.310  14.868  18.096  0.00  0.00    +0.000 A 
ATOM     19  C   UNL     1       4.936  14.926  17.824  0.00  0.00    +0.000 A 
ENDBRANCH  11  13
BRANCH   4  20
ATOM     20  C   UNL     1       1.859   9.784  18.328  0.00  0.00    +0.000 A 
ATOM     21  C   UNL     1       2.467   8.755  17.606  0.00  0.00    +0.000 A 
ATOM     22  C   UNL     1       2.662   7.491  18.151  0.00  0.00    +0.000 A 
ATOM     23  C   UNL     1       2.210   7.211  19.443  0.00  0.00    +0.000 A 
ATOM     24  C   UNL     1       1.597   8.221  20.206  0.00  0.00    +0.000 A 
ATOM     25  C   UNL     1       1.444   9.502  19.641  0.00  0.00    +0.000 A 
BRANCH  23  26
ATOM     26  N   UNL     1       2.422   5.902  19.940  0.00  0.00    +0.000 N 
ATOM     27  C   UNL     1       3.523   5.090  19.832  0.00  0.00    +0.000 A 
ATOM     28  N   UNL     1       3.274   3.902  20.332  0.00  0.00    +0.000 NA
ATOM     29  C   UNL     1       1.992   4.029  20.784  0.00  0.00    +0.000 A 
ATOM     30  C   UNL     1       1.235   2.888  21.334  0.00  0.00    +0.000 C 
ATOM     31  N   UNL     1       1.462   5.250  20.652  0.00  0.00    +0.000 NA
ENDBRANCH  23  26
BRANCH  24  32
ATOM     32  O   UNL     1       1.256   7.910  21.494  0.00  0.00    +0.000 OA
ATOM     33  C   UNL     1       0.852   8.954  22.367  0.00  0.00    +0.000 C 
ENDBRANCH  24  32
ENDBRANCH   4  20
BRANCH   1  35
ATOM     34  C   UNL     1      -0.665  12.946  22.164  0.00  0.00    +0.000 C 
ATOM     35  N   UNL     1       0.631  13.466  21.783  0.00  0.00    +0.000 N 
ATOM     36  H   UNL     1       0.923  14.314  22.265  0.00  0.00    +0.000 HD
ENDBRANCH   1  35
TORSDOF 5
ENDMDL
