MODEL 1
REMARK VINA RESULT:      -8.6      0.000      0.000
REMARK  Name = 
REMARK  8 active torsions:
REMARK  status: ('A' for Active; 'I' for Inactive)
REMARK    1  A    between atoms: C_1  and  O_2
REMARK    2  A    between atoms: O_2  and  C_3
REMARK    3  A    between atoms: C_3  and  C_5
REMARK    4  A    between atoms: C_10  and  O_11
REMARK    5  A    between atoms: N_14  and  C_15
REMARK    6  A    between atoms: C_15  and  C_16
REMARK    7  A    between atoms: C_19  and  O_20
REMARK    8  A    between atoms: O_20  and  C_21
REMARK                            x       y       z     vdW  Elec       q    Type
REMARK                         _______ _______ _______ _____ _____    ______ ____
ROOT
ATOM      1  C   UNL     1       5.540   5.130  15.402  0.00  0.00    +0.000 C 
ATOM      2  C   UNL     1       5.435   6.632  15.679  0.00  0.00    +0.000 C 
ATOM      3  C   UNL     1       5.858   6.789  17.133  0.00  0.00    +0.000 C 
ATOM      4  C   UNL     1       7.355   7.127  17.230  0.00  0.00    +0.000 C 
ATOM      5  C   UNL     1       7.901   6.935  18.636  0.00  0.00    +0.000 C 
ATOM      6  C   UNL     1       7.622   5.517  19.115  0.00  0.00    +0.000 C 
ATOM      7  C   UNL     1       6.119   5.256  19.125  0.00  0.00    +0.000 C 
ATOM      8  C   UNL     1       5.453   5.440  17.753  0.00  0.00    +0.000 C 
ATOM      9  N   UNL     1       5.811   4.451  16.715  0.00  0.00    +0.000 NA
ENDROOT
BRANCH   1  10
ATOM     10  C   UNL     1       6.629   4.792  14.380  0.00  0.00    +0.000 C 
ATOM     11  O   UNL     1       7.688   5.397  14.238  0.00  0.00    +0.000 OA
BRANCH  10  13
ATOM     12  C   UNL     1       6.687   3.785  12.263  0.00  0.00    +0.000 C 
ATOM     13  O   UNL     1       6.246   3.722  13.619  0.00  0.00    +0.000 OA
ENDBRANCH  10  13
ENDBRANCH   1  10
BRANCH   6  14
ATOM     14  O   UNL     1       8.164   5.353  20.426  0.00  0.00    +0.000 OA
ATOM     15  H   UNL     1       8.575   6.192  20.695  0.00  0.00    +0.000 HD
ENDBRANCH   6  14
BRANCH   9  16
ATOM     16  C   UNL     1       5.016   3.205  16.742  0.00  0.00    +0.000 C 
BRANCH  16  17
ATOM     17  C   UNL     1       3.814   3.139  17.657  0.00  0.00    +0.000 A 
ATOM     18  C   UNL     1       3.851   2.357  18.823  0.00  0.00    +0.000 A 
ATOM     19  C   UNL     1       2.807   2.411  19.749  0.00  0.00    +0.000 A 
ATOM     20  C   UNL     1       1.740   3.286  19.553  0.00  0.00    +0.000 A 
ATOM     21  C   UNL     1       1.662   4.019  18.368  0.00  0.00    +0.000 A 
ATOM     22  C   UNL     1       2.688   3.935  17.418  0.00  0.00    +0.000 A 
BRANCH  20  23
ATOM     23  O   UNL     1       0.818   3.338  20.561  0.00  0.00    +0.000 OA
ATOM     24  C   UNL     1       1.291   2.844  21.812  0.00  0.00    +0.000 C 
ENDBRANCH  20  23
ENDBRANCH  16  17
ENDBRANCH   9  16
TORSDOF 6
ENDMDL
MODEL 2
REMARK VINA RESULT:      -8.2      0.350      1.045
REMARK  Name = 
REMARK  8 active torsions:
REMARK  status: ('A' for Active; 'I' for Inactive)
REMARK    1  A    between atoms: C_1  and  O_2
REMARK    2  A    between atoms: O_2  and  C_3
REMARK    3  A    between atoms: C_3  and  C_5
REMARK    4  A    between atoms: C_10  and  O_11
REMARK    5  A    between atoms: N_14  and  C_15
REMARK    6  A    between atoms: C_15  and  C_16
REMARK    7  A    between atoms: C_19  and  O_20
REMARK    8  A    between atoms: O_20  and  C_21
REMARK                            x       y       z     vdW  Elec       q    Type
REMARK                         _______ _______ _______ _____ _____    ______ ____
ROOT
ATOM      1  C   UNL     1       5.518   5.257  15.445  0.00  0.00    +0.000 C 
ATOM      2  C   UNL     1       5.529   6.773  15.655  0.00  0.00    +0.000 C 
ATOM      3  C   UNL     1       5.974   6.963  17.097  0.00  0.00    +0.000 C 
ATOM      4  C   UNL     1       7.494   7.190  17.173  0.00  0.00    +0.000 C 
ATOM      5  C   UNL     1       8.034   7.019  18.583  0.00  0.00    +0.000 C 
ATOM      6  C   UNL     1       7.653   5.649  19.127  0.00  0.00    +0.000 C 
ATOM      7  C   UNL     1       6.134   5.504  19.156  0.00  0.00    +0.000 C 
ATOM      8  C   UNL     1       5.473   5.677  17.780  0.00  0.00    +0.000 C 
ATOM      9  N   UNL     1       5.746   4.619  16.785  0.00  0.00    +0.000 NA
ENDROOT
BRANCH   1  10
ATOM     10  C   UNL     1       6.570   4.792  14.434  0.00  0.00    +0.000 C 
ATOM     11  O   UNL     1       7.661   5.321  14.246  0.00  0.00    +0.000 OA
BRANCH  10  13
ATOM     12  C   UNL     1       6.528   3.665  12.378  0.00  0.00    +0.000 C 
ATOM     13  O   UNL     1       6.111   3.704  13.743  0.00  0.00    +0.000 OA
ENDBRANCH  10  13
ENDBRANCH   1  10
BRANCH   6  14
ATOM     14  O   UNL     1       8.191   5.503  20.441  0.00  0.00    +0.000 OA
ATOM     15  H   UNL     1       9.084   5.128  20.367  0.00  0.00    +0.000 HD
ENDBRANCH   6  14
BRANCH   9  16
ATOM     16  C   UNL     1       4.860   3.439  16.873  0.00  0.00    +0.000 C 
BRANCH  16  17
ATOM     17  C   UNL     1       3.843   3.385  17.990  0.00  0.00    +0.000 A 
ATOM     18  C   UNL     1       2.532   3.841  17.780  0.00  0.00    +0.000 A 
ATOM     19  C   UNL     1       1.548   3.653  18.753  0.00  0.00    +0.000 A 
ATOM     20  C   UNL     1       1.845   2.960  19.924  0.00  0.00    +0.000 A 
ATOM     21  C   UNL     1       3.159   2.559  20.172  0.00  0.00    +0.000 A 
ATOM     22  C   UNL     1       4.155   2.783  19.215  0.00  0.00    +0.000 A 
BRANCH  20  23
ATOM     23  O   UNL     1       0.793   2.741  20.771  0.00  0.00    +0.000 OA
ATOM     24  C   UNL     1       1.173   2.482  22.120  0.00  0.00    +0.000 C 
ENDBRANCH  20  23
ENDBRANCH  16  17
ENDBRANCH   9  16
TORSDOF 6
ENDMDL
MODEL 3
REMARK VINA RESULT:      -7.6      2.334      6.341
REMARK  Name = 
REMARK  8 active torsions:
REMARK  status: ('A' for Active; 'I' for Inactive)
REMARK    1  A    between atoms: C_1  and  O_2
REMARK    2  A    between atoms: O_2  and  C_3
REMARK    3  A    between atoms: C_3  and  C_5
REMARK    4  A    between atoms: C_10  and  O_11
REMARK    5  A    between atoms: N_14  and  C_15
REMARK    6  A    between atoms: C_15  and  C_16
REMARK    7  A    between atoms: C_19  and  O_20
REMARK    8  A    between atoms: O_20  and  C_21
REMARK                            x       y       z     vdW  Elec       q    Type
REMARK                         _______ _______ _______ _____ _____    ______ ____
ROOT
ATOM      1  C   UNL     1       2.832   5.753  18.054  0.00  0.00    +0.000 C 
ATOM      2  C   UNL     1       1.559   4.963  17.739  0.00  0.00    +0.000 C 
ATOM      3  C   UNL     1       1.621   3.747  18.652  0.00  0.00    +0.000 C 
ATOM      4  C   UNL     1       0.843   4.003  19.954  0.00  0.00    +0.000 C 
ATOM      5  C   UNL     1       1.174   2.987  21.034  0.00  0.00    +0.000 C 
ATOM      6  C   UNL     1       2.676   2.958  21.284  0.00  0.00    +0.000 C 
ATOM      7  C   UNL     1       3.410   2.578  20.002  0.00  0.00    +0.000 C 
ATOM      8  C   UNL     1       3.135   3.531  18.829  0.00  0.00    +0.000 C 
ATOM      9  N   UNL     1       3.675   4.901  18.958  0.00  0.00    +0.000 NA
ENDROOT
BRANCH   1  10
ATOM     10  C   UNL     1       2.540   7.110  18.700  0.00  0.00    +0.000 C 
ATOM     11  O   UNL     1       2.197   7.288  19.865  0.00  0.00    +0.000 OA
BRANCH  10  13
ATOM     12  C   UNL     1       1.745   9.171  17.911  0.00  0.00    +0.000 C 
ATOM     13  O   UNL     1       2.695   8.113  17.782  0.00  0.00    +0.000 OA
ENDBRANCH  10  13
ENDBRANCH   1  10
BRANCH   6  14
ATOM     14  O   UNL     1       2.958   2.015  22.318  0.00  0.00    +0.000 OA
ATOM     15  H   UNL     1       2.246   2.060  22.977  0.00  0.00    +0.000 HD
ENDBRANCH   6  14
BRANCH   9  16
ATOM     16  C   UNL     1       5.081   5.057  18.532  0.00  0.00    +0.000 C 
BRANCH  16  17
ATOM     17  C   UNL     1       5.408   4.914  17.063  0.00  0.00    +0.000 A 
ATOM     18  C   UNL     1       5.773   6.036  16.303  0.00  0.00    +0.000 A 
ATOM     19  C   UNL     1       6.224   5.891  14.989  0.00  0.00    +0.000 A 
ATOM     20  C   UNL     1       6.370   4.621  14.435  0.00  0.00    +0.000 A 
ATOM     21  C   UNL     1       5.950   3.503  15.158  0.00  0.00    +0.000 A 
ATOM     22  C   UNL     1       5.458   3.651  16.460  0.00  0.00    +0.000 A 
BRANCH  20  23
ATOM     23  O   UNL     1       6.911   4.576  13.180  0.00  0.00    +0.000 OA
ATOM     24  C   UNL     1       6.400   3.528  12.360  0.00  0.00    +0.000 C 
ENDBRANCH  20  23
ENDBRANCH  16  17
ENDBRANCH   9  16
TORSDOF 6
ENDMDL
MODEL 4
REMARK VINA RESULT:      -7.6      2.413      6.294
REMARK  Name = 
REMARK  8 active torsions:
REMARK  status: ('A' for Active; 'I' for Inactive)
REMARK    1  A    between atoms: C_1  and  O_2
REMARK    2  A    between atoms: O_2  and  C_3
REMARK    3  A    between atoms: C_3  and  C_5
REMARK    4  A    between atoms: C_10  and  O_11
REMARK    5  A    between atoms: N_14  and  C_15
REMARK    6  A    between atoms: C_15  and  C_16
REMARK    7  A    between atoms: C_19  and  O_20
REMARK    8  A    between atoms: O_20  and  C_21
REMARK                            x       y       z     vdW  Elec       q    Type
REMARK                         _______ _______ _______ _____ _____    ______ ____
ROOT
ATOM      1  C   UNL     1       2.859   5.954  18.279  0.00  0.00    +0.000 C 
ATOM      2  C   UNL     1       1.754   5.032  17.757  0.00  0.00    +0.000 C 
ATOM      3  C   UNL     1       1.855   3.780  18.616  0.00  0.00    +0.000 C 
ATOM      4  C   UNL     1       0.886   3.858  19.808  0.00  0.00    +0.000 C 
ATOM      5  C   UNL     1       1.202   2.826  20.879  0.00  0.00    +0.000 C 
ATOM      6  C   UNL     1       2.649   2.970  21.332  0.00  0.00    +0.000 C 
ATOM      7  C   UNL     1       3.589   2.763  20.148  0.00  0.00    +0.000 C 
ATOM      8  C   UNL     1       3.348   3.744  18.992  0.00  0.00    +0.000 C 
ATOM      9  N   UNL     1       3.680   5.160  19.253  0.00  0.00    +0.000 NA
ENDROOT
BRANCH   1  10
ATOM     10  C   UNL     1       2.309   7.222  18.937  0.00  0.00    +0.000 C 
ATOM     11  O   UNL     1       1.999   7.337  20.120  0.00  0.00    +0.000 OA
BRANCH  10  13
ATOM     12  C   UNL     1       1.423   9.341  18.458  0.00  0.00    +0.000 C 
ATOM     13  O   UNL     1       2.186   8.220  18.010  0.00  0.00    +0.000 OA
ENDBRANCH  10  13
ENDBRANCH   1  10
BRANCH   6  14
ATOM     14  O   UNL     1       2.915   2.008  22.353  0.00  0.00    +0.000 OA
ATOM     15  H   UNL     1       3.724   1.526  22.116  0.00  0.00    +0.000 HD
ENDBRANCH   6  14
BRANCH   9  16
ATOM     16  C   UNL     1       5.098   5.516  19.033  0.00  0.00    +0.000 C 
BRANCH  16  17
ATOM     17  C   UNL     1       5.651   5.433  17.629  0.00  0.00    +0.000 A 
ATOM     18  C   UNL     1       6.552   4.415  17.280  0.00  0.00    +0.000 A 
ATOM     19  C   UNL     1       6.947   4.238  15.952  0.00  0.00    +0.000 A 
ATOM     20  C   UNL     1       6.405   5.037  14.947  0.00  0.00    +0.000 A 
ATOM     21  C   UNL     1       5.558   6.093  15.290  0.00  0.00    +0.000 A 
ATOM     22  C   UNL     1       5.194   6.297  16.627  0.00  0.00    +0.000 A 
BRANCH  20  23
ATOM     23  O   UNL     1       6.778   4.724  13.669  0.00  0.00    +0.000 OA
ATOM     24  C   UNL     1       6.089   3.605  13.117  0.00  0.00    +0.000 C 
ENDBRANCH  20  23
ENDBRANCH  16  17
ENDBRANCH   9  16
TORSDOF 6
ENDMDL
MODEL 5
REMARK VINA RESULT:      -7.6      2.670      6.265
REMARK  Name = 
REMARK  8 active torsions:
REMARK  status: ('A' for Active; 'I' for Inactive)
REMARK    1  A    between atoms: C_1  and  O_2
REMARK    2  A    between atoms: O_2  and  C_3
REMARK    3  A    between atoms: C_3  and  C_5
REMARK    4  A    between atoms: C_10  and  O_11
REMARK    5  A    between atoms: N_14  and  C_15
REMARK    6  A    between atoms: C_15  and  C_16
REMARK    7  A    between atoms: C_19  and  O_20
REMARK    8  A    between atoms: O_20  and  C_21
REMARK                            x       y       z     vdW  Elec       q    Type
REMARK                         _______ _______ _______ _____ _____    ______ ____
ROOT
ATOM      1  C   UNL     1       2.577   5.081  17.859  0.00  0.00    +0.000 C 
ATOM      2  C   UNL     1       1.383   4.184  18.195  0.00  0.00    +0.000 C 
ATOM      3  C   UNL     1       1.982   3.010  18.955  0.00  0.00    +0.000 C 
ATOM      4  C   UNL     1       1.912   3.250  20.473  0.00  0.00    +0.000 C 
ATOM      5  C   UNL     1       2.809   2.301  21.250  0.00  0.00    +0.000 C 
ATOM      6  C   UNL     1       4.240   2.398  20.741  0.00  0.00    +0.000 C 
ATOM      7  C   UNL     1       4.293   2.032  19.261  0.00  0.00    +0.000 C 
ATOM      8  C   UNL     1       3.406   2.918  18.375  0.00  0.00    +0.000 C 
ATOM      9  N   UNL     1       3.821   4.329  18.236  0.00  0.00    +0.000 NA
ENDROOT
BRANCH   1  10
ATOM     10  C   UNL     1       2.520   6.434  18.575  0.00  0.00    +0.000 C 
ATOM     11  O   UNL     1       2.560   6.600  19.790  0.00  0.00    +0.000 OA
BRANCH  10  13
ATOM     12  C   UNL     1       2.061   8.709  18.238  0.00  0.00    +0.000 C 
ATOM     13  O   UNL     1       2.394   7.445  17.662  0.00  0.00    +0.000 OA
ENDBRANCH  10  13
ENDBRANCH   1  10
BRANCH   6  14
ATOM     14  O   UNL     1       5.067   1.517  21.502  0.00  0.00    +0.000 OA
ATOM     15  H   UNL     1       5.948   1.917  21.584  0.00  0.00    +0.000 HD
ENDBRANCH   6  14
BRANCH   9  16
ATOM     16  C   UNL     1       4.828   4.580  17.182  0.00  0.00    +0.000 C 
BRANCH  16  17
ATOM     17  C   UNL     1       5.997   5.481  17.505  0.00  0.00    +0.000 A 
ATOM     18  C   UNL     1       6.125   6.731  16.879  0.00  0.00    +0.000 A 
ATOM     19  C   UNL     1       7.113   7.632  17.282  0.00  0.00    +0.000 A 
ATOM     20  C   UNL     1       7.950   7.322  18.352  0.00  0.00    +0.000 A 
ATOM     21  C   UNL     1       7.874   6.058  18.940  0.00  0.00    +0.000 A 
ATOM     22  C   UNL     1       6.911   5.138  18.509  0.00  0.00    +0.000 A 
BRANCH  20  23
ATOM     23  O   UNL     1       8.818   8.307  18.736  0.00  0.00    +0.000 OA
ATOM     24  C   UNL     1       8.498   9.599  18.227  0.00  0.00    +0.000 C 
ENDBRANCH  20  23
ENDBRANCH  16  17
ENDBRANCH   9  16
TORSDOF 6
ENDMDL
MODEL 6
REMARK VINA RESULT:      -7.4      2.316      6.381
REMARK  Name = 
REMARK  8 active torsions:
REMARK  status: ('A' for Active; 'I' for Inactive)
REMARK    1  A    between atoms: C_1  and  O_2
REMARK    2  A    between atoms: O_2  and  C_3
REMARK    3  A    between atoms: C_3  and  C_5
REMARK    4  A    between atoms: C_10  and  O_11
REMARK    5  A    between atoms: N_14  and  C_15
REMARK    6  A    between atoms: C_15  and  C_16
REMARK    7  A    between atoms: C_19  and  O_20
REMARK    8  A    between atoms: O_20  and  C_21
REMARK                            x       y       z     vdW  Elec       q    Type
REMARK                         _______ _______ _______ _____ _____    ______ ____
ROOT
ATOM      1  C   UNL     1       3.035   5.857  18.280  0.00  0.00    +0.000 C 
ATOM      2  C   UNL     1       1.897   4.993  17.730  0.00  0.00    +0.000 C 
ATOM      3  C   UNL     1       1.896   3.749  18.606  0.00  0.00    +0.000 C 
ATOM      4  C   UNL     1       0.892   3.897  19.761  0.00  0.00    +0.000 C 
ATOM      5  C   UNL     1       1.112   2.863  20.854  0.00  0.00    +0.000 C 
ATOM      6  C   UNL     1       2.547   2.930  21.356  0.00  0.00    +0.000 C 
ATOM      7  C   UNL     1       3.514   2.655  20.209  0.00  0.00    +0.000 C 
ATOM      8  C   UNL     1       3.370   3.632  19.034  0.00  0.00    +0.000 C 
ATOM      9  N   UNL     1       3.775   5.030  19.292  0.00  0.00    +0.000 NA
ENDROOT
BRANCH   1  10
ATOM     10  C   UNL     1       2.536   7.163  18.905  0.00  0.00    +0.000 C 
ATOM     11  O   UNL     1       2.434   8.240  18.324  0.00  0.00    +0.000 OA
BRANCH  10  13
ATOM     12  C   UNL     1       1.444   8.011  20.800  0.00  0.00    +0.000 C 
ATOM     13  O   UNL     1       2.236   6.970  20.226  0.00  0.00    +0.000 OA
ENDBRANCH  10  13
ENDBRANCH   1  10
BRANCH   6  14
ATOM     14  O   UNL     1       2.722   1.968  22.396  0.00  0.00    +0.000 OA
ATOM     15  H   UNL     1       1.857   1.574  22.599  0.00  0.00    +0.000 HD
ENDBRANCH   6  14
BRANCH   9  16
ATOM     16  C   UNL     1       5.217   5.302  19.118  0.00  0.00    +0.000 C 
BRANCH  16  17
ATOM     17  C   UNL     1       5.831   5.086  17.754  0.00  0.00    +0.000 A 
ATOM     18  C   UNL     1       5.504   3.948  17.000  0.00  0.00    +0.000 A 
ATOM     19  C   UNL     1       5.943   3.816  15.681  0.00  0.00    +0.000 A 
ATOM     20  C   UNL     1       6.667   4.843  15.078  0.00  0.00    +0.000 A 
ATOM     21  C   UNL     1       7.053   5.950  15.837  0.00  0.00    +0.000 A 
ATOM     22  C   UNL     1       6.648   6.063  17.172  0.00  0.00    +0.000 A 
BRANCH  20  23
ATOM     23  O   UNL     1       6.968   4.665  13.756  0.00  0.00    +0.000 OA
ATOM     24  C   UNL     1       6.168   3.683  13.101  0.00  0.00    +0.000 C 
ENDBRANCH  20  23
ENDBRANCH  16  17
ENDBRANCH   9  16
TORSDOF 6
ENDMDL
MODEL 7
REMARK VINA RESULT:      -7.0      3.500      5.155
REMARK  Name = 
REMARK  8 active torsions:
REMARK  status: ('A' for Active; 'I' for Inactive)
REMARK    1  A    between atoms: C_1  and  O_2
REMARK    2  A    between atoms: O_2  and  C_3
REMARK    3  A    between atoms: C_3  and  C_5
REMARK    4  A    between atoms: C_10  and  O_11
REMARK    5  A    between atoms: N_14  and  C_15
REMARK    6  A    between atoms: C_15  and  C_16
REMARK    7  A    between atoms: C_19  and  O_20
REMARK    8  A    between atoms: O_20  and  C_21
REMARK                            x       y       z     vdW  Elec       q    Type
REMARK                         _______ _______ _______ _____ _____    ______ ____
ROOT
ATOM      1  C   UNL     1       3.768   3.616  18.008  0.00  0.00    +0.000 C 
ATOM      2  C   UNL     1       4.806   3.034  17.044  0.00  0.00    +0.000 C 
ATOM      3  C   UNL     1       5.593   4.239  16.548  0.00  0.00    +0.000 C 
ATOM      4  C   UNL     1       6.860   4.449  17.395  0.00  0.00    +0.000 C 
ATOM      5  C   UNL     1       7.475   5.823  17.184  0.00  0.00    +0.000 C 
ATOM      6  C   UNL     1       6.441   6.906  17.458  0.00  0.00    +0.000 C 
ATOM      7  C   UNL     1       5.252   6.743  16.515  0.00  0.00    +0.000 C 
ATOM      8  C   UNL     1       4.560   5.377  16.628  0.00  0.00    +0.000 C 
ATOM      9  N   UNL     1       3.838   5.111  17.890  0.00  0.00    +0.000 NA
ENDROOT
BRANCH   1  10
ATOM     10  C   UNL     1       3.992   3.172  19.456  0.00  0.00    +0.000 C 
ATOM     11  O   UNL     1       5.077   2.894  19.958  0.00  0.00    +0.000 OA
BRANCH  10  13
ATOM     12  C   UNL     1       1.828   2.268  19.486  0.00  0.00    +0.000 C 
ATOM     13  O   UNL     1       2.797   3.105  20.119  0.00  0.00    +0.000 OA
ENDBRANCH  10  13
ENDBRANCH   1  10
BRANCH   6  14
ATOM     14  O   UNL     1       7.048   8.186  17.277  0.00  0.00    +0.000 OA
ATOM     15  H   UNL     1       6.369   8.869  17.410  0.00  0.00    +0.000 HD
ENDBRANCH   6  14
BRANCH   9  16
ATOM     16  C   UNL     1       2.453   5.625  17.935  0.00  0.00    +0.000 C 
BRANCH  16  17
ATOM     17  C   UNL     1       2.203   6.959  18.601  0.00  0.00    +0.000 A 
ATOM     18  C   UNL     1       2.062   8.123  17.829  0.00  0.00    +0.000 A 
ATOM     19  C   UNL     1       1.679   9.329  18.421  0.00  0.00    +0.000 A 
ATOM     20  C   UNL     1       1.376   9.377  19.780  0.00  0.00    +0.000 A 
ATOM     21  C   UNL     1       1.575   8.242  20.569  0.00  0.00    +0.000 A 
ATOM     22  C   UNL     1       1.999   7.043  19.984  0.00  0.00    +0.000 A 
BRANCH  20  23
ATOM     23  O   UNL     1       0.917  10.577  20.247  0.00  0.00    +0.000 OA
ATOM     24  C   UNL     1       0.375  10.523  21.565  0.00  0.00    +0.000 C 
ENDBRANCH  20  23
ENDBRANCH  16  17
ENDBRANCH   9  16
TORSDOF 6
ENDMDL
MODEL 8
REMARK VINA RESULT:      -7.0      2.213      6.647
REMARK  Name = 
REMARK  8 active torsions:
REMARK  status: ('A' for Active; 'I' for Inactive)
REMARK    1  A    between atoms: C_1  and  O_2
REMARK    2  A    between atoms: O_2  and  C_3
REMARK    3  A    between atoms: C_3  and  C_5
REMARK    4  A    between atoms: C_10  and  O_11
REMARK    5  A    between atoms: N_14  and  C_15
REMARK    6  A    between atoms: C_15  and  C_16
REMARK    7  A    between atoms: C_19  and  O_20
REMARK    8  A    between atoms: O_20  and  C_21
REMARK                            x       y       z     vdW  Elec       q    Type
REMARK                         _______ _______ _______ _____ _____    ______ ____
ROOT
ATOM      1  C   UNL     1       2.554   5.947  18.660  0.00  0.00    +0.000 C 
ATOM      2  C   UNL     1       1.358   5.354  17.910  0.00  0.00    +0.000 C 
ATOM      3  C   UNL     1       1.753   3.912  17.629  0.00  0.00    +0.000 C 
ATOM      4  C   UNL     1       1.214   2.976  18.724  0.00  0.00    +0.000 C 
ATOM      5  C   UNL     1       1.876   1.608  18.694  0.00  0.00    +0.000 C 
ATOM      6  C   UNL     1       3.388   1.757  18.788  0.00  0.00    +0.000 C 
ATOM      7  C   UNL     1       3.905   2.586  17.616  0.00  0.00    +0.000 C 
ATOM      8  C   UNL     1       3.288   3.990  17.536  0.00  0.00    +0.000 C 
ATOM      9  N   UNL     1       3.659   4.931  18.613  0.00  0.00    +0.000 NA
ENDROOT
BRANCH   1  10
ATOM     10  C   UNL     1       2.219   6.320  20.107  0.00  0.00    +0.000 C 
ATOM     11  O   UNL     1       2.037   5.527  21.025  0.00  0.00    +0.000 OA
BRANCH  10  13
ATOM     12  C   UNL     1       1.135   8.110  21.167  0.00  0.00    +0.000 C 
ATOM     13  O   UNL     1       2.126   7.679  20.233  0.00  0.00    +0.000 OA
ENDBRANCH  10  13
ENDBRANCH   1  10
BRANCH   6  14
ATOM     14  O   UNL     1       3.985   0.460  18.781  0.00  0.00    +0.000 OA
ATOM     15  H   UNL     1       3.280  -0.202  18.690  0.00  0.00    +0.000 HD
ENDBRANCH   6  14
BRANCH   9  16
ATOM     16  C   UNL     1       4.925   5.662  18.391  0.00  0.00    +0.000 C 
BRANCH  16  17
ATOM     17  C   UNL     1       5.612   5.519  17.052  0.00  0.00    +0.000 A 
ATOM     18  C   UNL     1       6.734   4.686  16.914  0.00  0.00    +0.000 A 
ATOM     19  C   UNL     1       7.280   4.429  15.655  0.00  0.00    +0.000 A 
ATOM     20  C   UNL     1       6.680   4.953  14.511  0.00  0.00    +0.000 A 
ATOM     21  C   UNL     1       5.605   5.833  14.641  0.00  0.00    +0.000 A 
ATOM     22  C   UNL     1       5.082   6.125  15.907  0.00  0.00    +0.000 A 
BRANCH  20  23
ATOM     23  O   UNL     1       7.228   4.565  13.320  0.00  0.00    +0.000 OA
ATOM     24  C   UNL     1       6.410   3.679  12.560  0.00  0.00    +0.000 C 
ENDBRANCH  20  23
ENDBRANCH  16  17
ENDBRANCH   9  16
TORSDOF 6
ENDMDL
MODEL 9
REMARK VINA RESULT:      -7.0      2.410      6.567
REMARK  Name = 
REMARK  8 active torsions:
REMARK  status: ('A' for Active; 'I' for Inactive)
REMARK    1  A    between atoms: C_1  and  O_2
REMARK    2  A    between atoms: O_2  and  C_3
REMARK    3  A    between atoms: C_3  and  C_5
REMARK    4  A    between atoms: C_10  and  O_11
REMARK    5  A    between atoms: N_14  and  C_15
REMARK    6  A    between atoms: C_15  and  C_16
REMARK    7  A    between atoms: C_19  and  O_20
REMARK    8  A    between atoms: O_20  and  C_21
REMARK                            x       y       z     vdW  Elec       q    Type
REMARK                         _______ _______ _______ _____ _____    ______ ____
ROOT
ATOM      1  C   UNL     1       2.737   6.105  18.200  0.00  0.00    +0.000 C 
ATOM      2  C   UNL     1       1.545   5.233  17.800  0.00  0.00    +0.000 C 
ATOM      3  C   UNL     1       1.712   3.953  18.607  0.00  0.00    +0.000 C 
ATOM      4  C   UNL     1       0.905   4.023  19.914  0.00  0.00    +0.000 C 
ATOM      5  C   UNL     1       1.321   2.951  20.908  0.00  0.00    +0.000 C 
ATOM      6  C   UNL     1       2.817   3.038  21.176  0.00  0.00    +0.000 C 
ATOM      7  C   UNL     1       3.591   2.839  19.877  0.00  0.00    +0.000 C 
ATOM      8  C   UNL     1       3.238   3.861  18.787  0.00  0.00    +0.000 C 
ATOM      9  N   UNL     1       3.649   5.257  19.040  0.00  0.00    +0.000 NA
ENDROOT
BRANCH   1  10
ATOM     10  C   UNL     1       2.318   7.369  18.957  0.00  0.00    +0.000 C 
ATOM     11  O   UNL     1       2.185   8.485  18.464  0.00  0.00    +0.000 OA
BRANCH  10  13
ATOM     12  C   UNL     1       1.321   8.038  20.972  0.00  0.00    +0.000 C 
ATOM     13  O   UNL     1       2.131   7.085  20.282  0.00  0.00    +0.000 OA
ENDBRANCH  10  13
ENDBRANCH   1  10
BRANCH   6  14
ATOM     14  O   UNL     1       3.178   2.038  22.129  0.00  0.00    +0.000 OA
ATOM     15  H   UNL     1       4.141   2.066  22.253  0.00  0.00    +0.000 HD
ENDBRANCH   6  14
BRANCH   9  16
ATOM     16  C   UNL     1       5.038   5.577  18.650  0.00  0.00    +0.000 C 
BRANCH  16  17
ATOM     17  C   UNL     1       5.503   5.190  17.265  0.00  0.00    +0.000 A 
ATOM     18  C   UNL     1       4.973   5.828  16.133  0.00  0.00    +0.000 A 
ATOM     19  C   UNL     1       5.505   5.587  14.864  0.00  0.00    +0.000 A 
ATOM     20  C   UNL     1       6.609   4.750  14.715  0.00  0.00    +0.000 A 
ATOM     21  C   UNL     1       7.103   4.060  15.823  0.00  0.00    +0.000 A 
ATOM     22  C   UNL     1       6.544   4.269  17.090  0.00  0.00    +0.000 A 
BRANCH  20  23
ATOM     23  O   UNL     1       7.118   4.654  13.450  0.00  0.00    +0.000 OA
ATOM     24  C   UNL     1       8.121   5.621  13.147  0.00  0.00    +0.000 C 
ENDBRANCH  20  23
ENDBRANCH  16  17
ENDBRANCH   9  16
TORSDOF 6
ENDMDL
