MODEL 1
REMARK VINA RESULT:      -7.9      0.000      0.000
REMARK  Name = 
REMARK  5 active torsions:
REMARK  status: ('A' for Active; 'I' for Inactive)
REMARK    1  A    between atoms: C_2  and  C_12
REMARK    2  A    between atoms: N_3  and  C_4
REMARK    3  A    between atoms: C_4  and  C_5
REMARK    4  A    between atoms: C_5  and  C_6
REMARK    5  A    between atoms: C_16  and  C_18
REMARK                            x       y       z     vdW  Elec       q    Type
REMARK                         _______ _______ _______ _____ _____    ______ ____
ROOT
ATOM      1  C   UNL     1       5.744   5.502  17.939  0.00  0.00    +0.000 C 
ATOM      2  C   UNL     1       4.963   5.773  19.223  0.00  0.00    +0.000 C 
ATOM      3  C   UNL     1       3.538   6.243  18.961  0.00  0.00    +0.000 C 
ATOM      4  N   UNL     1       3.427   7.298  17.951  0.00  0.00    +0.000 N 
ATOM      5  C   UNL     1       2.519   8.379  17.975  0.00  0.00    +0.000 C 
ATOM      6  O   UNL     1       2.440   9.194  17.060  0.00  0.00    +0.000 OA
ATOM      7  C   UNL     1       4.177   7.066  16.716  0.00  0.00    +0.000 C 
ATOM      8  C   UNL     1       5.628   6.732  17.031  0.00  0.00    +0.000 C 
ENDROOT
BRANCH   5   9
ATOM      9  C   UNL     1       1.682   8.617  19.175  0.00  0.00    +0.000 A 
ATOM     10  C   UNL     1       0.787   9.700  19.158  0.00  0.00    +0.000 A 
ATOM     11  C   UNL     1       0.086  10.048  20.316  0.00  0.00    +0.000 A 
ATOM     12  C   UNL     1       0.290   9.325  21.491  0.00  0.00    +0.000 A 
ATOM     13 BR   UNL     1      -0.561   9.861  23.090  0.00  0.00    +0.000 Br
ATOM     14  C   UNL     1       1.118   8.207  21.497  0.00  0.00    +0.000 A 
ATOM     15  C   UNL     1       1.758   7.817  20.319  0.00  0.00    +0.000 A 
ENDBRANCH   5   9
BRANCH   1  17
ATOM     16  O   UNL     1       5.414   4.053  16.018  0.00  0.00    +0.000 OA
ATOM     17  C   UNL     1       5.295   4.223  17.227  0.00  0.00    +0.000 C 
ATOM     18  N   UNL     1       4.772   3.256  18.059  0.00  0.00    +0.000 N 
ATOM     19  H   UNL     1       4.977   3.312  19.047  0.00  0.00    +0.000 HD
BRANCH  18  20
ATOM     20  C   UNL     1       4.329   1.983  17.512  0.00  0.00    +0.000 C 
BRANCH  20  21
ATOM     21  C   UNL     1       3.416   1.233  18.483  0.00  0.00    +0.000 C 
BRANCH  21  22
ATOM     22  C   UNL     1       2.578   2.144  19.352  0.00  0.00    +0.000 C 
ATOM     23  C   UNL     1       1.386   2.614  18.940  0.00  0.00    +0.000 C 
ATOM     24  C   UNL     1       0.529   3.543  19.751  0.00  0.00    +0.000 C 
ATOM     25  C   UNL     1       1.290   4.192  20.906  0.00  0.00    +0.000 C 
ATOM     26  C   UNL     1       2.121   3.155  21.652  0.00  0.00    +0.000 C 
ATOM     27  C   UNL     1       3.132   2.482  20.721  0.00  0.00    +0.000 C 
ENDBRANCH  21  22
ENDBRANCH  20  21
ENDBRANCH  18  20
ENDBRANCH   1  17
TORSDOF 5
ENDMDL
MODEL 2
REMARK VINA RESULT:      -7.6      0.396      1.054
REMARK  Name = 
REMARK  5 active torsions:
REMARK  status: ('A' for Active; 'I' for Inactive)
REMARK    1  A    between atoms: C_2  and  C_12
REMARK    2  A    between atoms: N_3  and  C_4
REMARK    3  A    between atoms: C_4  and  C_5
REMARK    4  A    between atoms: C_5  and  C_6
REMARK    5  A    between atoms: C_16  and  C_18
REMARK                            x       y       z     vdW  Elec       q    Type
REMARK                         _______ _______ _______ _____ _____    ______ ____
ROOT
ATOM      1  C   UNL     1       6.022   5.503  17.865  0.00  0.00    +0.000 C 
ATOM      2  C   UNL     1       5.240   5.727  19.157  0.00  0.00    +0.000 C 
ATOM      3  C   UNL     1       3.793   6.137  18.910  0.00  0.00    +0.000 C 
ATOM      4  N   UNL     1       3.629   7.197  17.912  0.00  0.00    +0.000 N 
ATOM      5  C   UNL     1       2.676   8.237  17.954  0.00  0.00    +0.000 C 
ATOM      6  O   UNL     1       2.554   9.058  17.048  0.00  0.00    +0.000 OA
ATOM      7  C   UNL     1       4.379   7.010  16.669  0.00  0.00    +0.000 C 
ATOM      8  C   UNL     1       5.846   6.736  16.970  0.00  0.00    +0.000 C 
ENDROOT
BRANCH   5   9
ATOM      9  C   UNL     1       1.838   8.426  19.162  0.00  0.00    +0.000 A 
ATOM     10  C   UNL     1       0.996   9.550  19.219  0.00  0.00    +0.000 A 
ATOM     11  C   UNL     1       0.300   9.845  20.395  0.00  0.00    +0.000 A 
ATOM     12  C   UNL     1       0.457   9.028  21.514  0.00  0.00    +0.000 A 
ATOM     13 BR   UNL     1      -0.385   9.485  23.142  0.00  0.00    +0.000 Br
ATOM     14  C   UNL     1       1.230   7.874  21.443  0.00  0.00    +0.000 A 
ATOM     15  C   UNL     1       1.863   7.542  20.244  0.00  0.00    +0.000 A 
ENDBRANCH   5   9
BRANCH   1  17
ATOM     16  O   UNL     1       6.174   3.822  16.119  0.00  0.00    +0.000 OA
ATOM     17  C   UNL     1       5.623   4.214  17.143  0.00  0.00    +0.000 C 
ATOM     18  N   UNL     1       4.612   3.503  17.753  0.00  0.00    +0.000 N 
ATOM     19  H   UNL     1       4.412   3.692  18.725  0.00  0.00    +0.000 HD
BRANCH  18  20
ATOM     20  C   UNL     1       4.154   2.246  17.182  0.00  0.00    +0.000 C 
BRANCH  20  21
ATOM     21  C   UNL     1       3.473   1.360  18.226  0.00  0.00    +0.000 C 
BRANCH  21  22
ATOM     22  C   UNL     1       2.744   2.140  19.298  0.00  0.00    +0.000 C 
ATOM     23  C   UNL     1       3.304   2.385  20.497  0.00  0.00    +0.000 C 
ATOM     24  C   UNL     1       2.614   3.129  21.604  0.00  0.00    +0.000 C 
ATOM     25  C   UNL     1       1.108   3.253  21.383  0.00  0.00    +0.000 C 
ATOM     26  C   UNL     1       0.807   3.670  19.949  0.00  0.00    +0.000 C 
ATOM     27  C   UNL     1       1.363   2.655  18.948  0.00  0.00    +0.000 C 
ENDBRANCH  21  22
ENDBRANCH  20  21
ENDBRANCH  18  20
ENDBRANCH   1  17
TORSDOF 5
ENDMDL
MODEL 3
REMARK VINA RESULT:      -7.6      4.393      8.521
REMARK  Name = 
REMARK  5 active torsions:
REMARK  status: ('A' for Active; 'I' for Inactive)
REMARK    1  A    between atoms: C_2  and  C_12
REMARK    2  A    between atoms: N_3  and  C_4
REMARK    3  A    between atoms: C_4  and  C_5
REMARK    4  A    between atoms: C_5  and  C_6
REMARK    5  A    between atoms: C_16  and  C_18
REMARK                            x       y       z     vdW  Elec       q    Type
REMARK                         _______ _______ _______ _____ _____    ______ ____
ROOT
ATOM      1  C   UNL     1       1.102  10.322  19.205  0.00  0.00    +0.000 C 
ATOM      2  C   UNL     1       1.882   9.883  17.968  0.00  0.00    +0.000 C 
ATOM      3  C   UNL     1       1.902   8.370  17.787  0.00  0.00    +0.000 C 
ATOM      4  N   UNL     1       2.225   7.621  19.004  0.00  0.00    +0.000 N 
ATOM      5  C   UNL     1       2.990   6.437  19.071  0.00  0.00    +0.000 C 
ATOM      6  O   UNL     1       3.169   5.826  20.123  0.00  0.00    +0.000 OA
ATOM      7  C   UNL     1       1.498   8.033  20.205  0.00  0.00    +0.000 C 
ATOM      8  C   UNL     1       1.623   9.536  20.413  0.00  0.00    +0.000 C 
ENDROOT
BRANCH   5   9
ATOM      9  C   UNL     1       3.689   5.935  17.864  0.00  0.00    +0.000 A 
ATOM     10  C   UNL     1       3.560   4.575  17.537  0.00  0.00    +0.000 A 
ATOM     11  C   UNL     1       4.316   4.030  16.495  0.00  0.00    +0.000 A 
ATOM     12  C   UNL     1       5.207   4.839  15.792  0.00  0.00    +0.000 A 
ATOM     13 BR   UNL     1       6.319   4.088  14.462  0.00  0.00    +0.000 Br
ATOM     14  C   UNL     1       5.286   6.203  16.060  0.00  0.00    +0.000 A 
ATOM     15  C   UNL     1       4.474   6.757  17.051  0.00  0.00    +0.000 A 
ENDBRANCH   5   9
BRANCH   1  17
ATOM     16  O   UNL     1      -1.176  10.000  19.983  0.00  0.00    +0.000 OA
ATOM     17  C   UNL     1      -0.412  10.172  19.038  0.00  0.00    +0.000 C 
ATOM     18  N   UNL     1      -0.861  10.280  17.739  0.00  0.00    +0.000 N 
ATOM     19  H   UNL     1      -0.257  10.719  17.058  0.00  0.00    +0.000 HD
BRANCH  18  20
ATOM     20  C   UNL     1      -2.282  10.180  17.446  0.00  0.00    +0.000 C 
BRANCH  20  21
ATOM     21  C   UNL     1      -2.964  11.549  17.458  0.00  0.00    +0.000 C 
BRANCH  21  22
ATOM     22  C   UNL     1      -4.241  11.581  18.269  0.00  0.00    +0.000 C 
ATOM     23  C   UNL     1      -4.330  12.273  19.420  0.00  0.00    +0.000 C 
ATOM     24  C   UNL     1      -5.563  12.315  20.276  0.00  0.00    +0.000 C 
ATOM     25  C   UNL     1      -6.566  11.218  19.921  0.00  0.00    +0.000 C 
ATOM     26  C   UNL     1      -6.749  11.125  18.411  0.00  0.00    +0.000 C 
ATOM     27  C   UNL     1      -5.424  10.818  17.710  0.00  0.00    +0.000 C 
ENDBRANCH  21  22
ENDBRANCH  20  21
ENDBRANCH  18  20
ENDBRANCH   1  17
TORSDOF 5
ENDMDL
MODEL 4
REMARK VINA RESULT:      -7.5      4.404      8.497
REMARK  Name = 
REMARK  5 active torsions:
REMARK  status: ('A' for Active; 'I' for Inactive)
REMARK    1  A    between atoms: C_2  and  C_12
REMARK    2  A    between atoms: N_3  and  C_4
REMARK    3  A    between atoms: C_4  and  C_5
REMARK    4  A    between atoms: C_5  and  C_6
REMARK    5  A    between atoms: C_16  and  C_18
REMARK                            x       y       z     vdW  Elec       q    Type
REMARK                         _______ _______ _______ _____ _____    ______ ____
ROOT
ATOM      1  C   UNL     1       1.092  10.273  19.307  0.00  0.00    +0.000 C 
ATOM      2  C   UNL     1       1.895   9.875  18.072  0.00  0.00    +0.000 C 
ATOM      3  C   UNL     1       1.927   8.368  17.846  0.00  0.00    +0.000 C 
ATOM      4  N   UNL     1       2.233   7.584  19.045  0.00  0.00    +0.000 N 
ATOM      5  C   UNL     1       3.002   6.402  19.091  0.00  0.00    +0.000 C 
ATOM      6  O   UNL     1       3.167   5.761  20.126  0.00  0.00    +0.000 OA
ATOM      7  C   UNL     1       1.483   7.956  20.245  0.00  0.00    +0.000 C 
ATOM      8  C   UNL     1       1.596   9.453  20.501  0.00  0.00    +0.000 C 
ENDROOT
BRANCH   5   9
ATOM      9  C   UNL     1       3.725   5.941  17.881  0.00  0.00    +0.000 A 
ATOM     10  C   UNL     1       3.610   4.590  17.512  0.00  0.00    +0.000 A 
ATOM     11  C   UNL     1       4.386   4.081  16.467  0.00  0.00    +0.000 A 
ATOM     12  C   UNL     1       5.285   4.915  15.804  0.00  0.00    +0.000 A 
ATOM     13 BR   UNL     1       6.424   4.209  14.472  0.00  0.00    +0.000 Br
ATOM     14  C   UNL     1       5.352   6.270  16.115  0.00  0.00    +0.000 A 
ATOM     15  C   UNL     1       4.520   6.791  17.107  0.00  0.00    +0.000 A 
ENDBRANCH   5   9
BRANCH   1  17
ATOM     16  O   UNL     1      -1.194   9.884  20.031  0.00  0.00    +0.000 OA
ATOM     17  C   UNL     1      -0.419  10.121  19.110  0.00  0.00    +0.000 C 
ATOM     18  N   UNL     1      -0.850  10.304  17.813  0.00  0.00    +0.000 N 
ATOM     19  H   UNL     1      -0.241  10.790  17.170  0.00  0.00    +0.000 HD
BRANCH  18  20
ATOM     20  C   UNL     1      -2.266  10.210  17.494  0.00  0.00    +0.000 C 
BRANCH  20  21
ATOM     21  C   UNL     1      -2.951  11.577  17.533  0.00  0.00    +0.000 C 
BRANCH  21  22
ATOM     22  C   UNL     1      -4.273  11.570  18.269  0.00  0.00    +0.000 C 
ATOM     23  C   UNL     1      -5.313  10.828  17.845  0.00  0.00    +0.000 C 
ATOM     24  C   UNL     1      -6.654  10.806  18.521  0.00  0.00    +0.000 C 
ATOM     25  C   UNL     1      -6.842  11.966  19.497  0.00  0.00    +0.000 C 
ATOM     26  C   UNL     1      -5.606  12.140  20.370  0.00  0.00    +0.000 C 
ATOM     27  C   UNL     1      -4.362  12.416  19.522  0.00  0.00    +0.000 C 
ENDBRANCH  21  22
ENDBRANCH  20  21
ENDBRANCH  18  20
ENDBRANCH   1  17
TORSDOF 5
ENDMDL
MODEL 5
REMARK VINA RESULT:      -7.3      4.555      6.689
REMARK  Name = 
REMARK  5 active torsions:
REMARK  status: ('A' for Active; 'I' for Inactive)
REMARK    1  A    between atoms: C_2  and  C_12
REMARK    2  A    between atoms: N_3  and  C_4
REMARK    3  A    between atoms: C_4  and  C_5
REMARK    4  A    between atoms: C_5  and  C_6
REMARK    5  A    between atoms: C_16  and  C_18
REMARK                            x       y       z     vdW  Elec       q    Type
REMARK                         _______ _______ _______ _____ _____    ______ ____
ROOT
ATOM      1  C   UNL     1      -0.310  10.206  19.509  0.00  0.00    +0.000 C 
ATOM      2  C   UNL     1      -0.443  11.421  18.594  0.00  0.00    +0.000 C 
ATOM      3  C   UNL     1       0.628  12.475  18.850  0.00  0.00    +0.000 C 
ATOM      4  N   UNL     1       0.827  12.801  20.265  0.00  0.00    +0.000 N 
ATOM      5  C   UNL     1       1.121  14.078  20.789  0.00  0.00    +0.000 C 
ATOM      6  O   UNL     1       1.337  14.267  21.983  0.00  0.00    +0.000 OA
ATOM      7  C   UNL     1       0.945  11.652  21.163  0.00  0.00    +0.000 C 
ATOM      8  C   UNL     1      -0.223  10.696  20.959  0.00  0.00    +0.000 C 
ENDROOT
BRANCH   5   9
ATOM      9  C   UNL     1       1.087  15.268  19.905  0.00  0.00    +0.000 A 
ATOM     10  C   UNL     1      -0.154  15.883  19.666  0.00  0.00    +0.000 A 
ATOM     11  C   UNL     1      -0.254  16.915  18.728  0.00  0.00    +0.000 A 
ATOM     12  C   UNL     1       0.877  17.320  18.022  0.00  0.00    +0.000 A 
ATOM     13 BR   UNL     1       0.729  18.630  16.669  0.00  0.00    +0.000 Br
ATOM     14  C   UNL     1       2.122  16.767  18.306  0.00  0.00    +0.000 A 
ATOM     15  C   UNL     1       2.232  15.790  19.297  0.00  0.00    +0.000 A 
ENDBRANCH   5   9
BRANCH   1  17
ATOM     16  O   UNL     1       1.564   9.487  18.141  0.00  0.00    +0.000 OA
ATOM     17  C   UNL     1       0.874   9.308  19.140  0.00  0.00    +0.000 C 
ATOM     18  N   UNL     1       1.129   8.295  20.039  0.00  0.00    +0.000 N 
ATOM     19  H   UNL     1       0.748   8.374  20.971  0.00  0.00    +0.000 HD
BRANCH  18  20
ATOM     20  C   UNL     1       2.242   7.385  19.818  0.00  0.00    +0.000 C 
BRANCH  20  21
ATOM     21  C   UNL     1       2.083   6.087  20.612  0.00  0.00    +0.000 C 
BRANCH  21  22
ATOM     22  C   UNL     1       1.863   4.869  19.742  0.00  0.00    +0.000 C 
ATOM     23  C   UNL     1       1.028   3.879  20.109  0.00  0.00    +0.000 C 
ATOM     24  C   UNL     1       0.796   2.638  19.297  0.00  0.00    +0.000 C 
ATOM     25  C   UNL     1       1.857   2.431  18.218  0.00  0.00    +0.000 C 
ATOM     26  C   UNL     1       2.126   3.731  17.471  0.00  0.00    +0.000 C 
ATOM     27  C   UNL     1       2.608   4.828  18.424  0.00  0.00    +0.000 C 
ENDBRANCH  21  22
ENDBRANCH  20  21
ENDBRANCH  18  20
ENDBRANCH   1  17
TORSDOF 5
ENDMDL
MODEL 6
REMARK VINA RESULT:      -7.2      4.381      6.463
REMARK  Name = 
REMARK  5 active torsions:
REMARK  status: ('A' for Active; 'I' for Inactive)
REMARK    1  A    between atoms: C_2  and  C_12
REMARK    2  A    between atoms: N_3  and  C_4
REMARK    3  A    between atoms: C_4  and  C_5
REMARK    4  A    between atoms: C_5  and  C_6
REMARK    5  A    between atoms: C_16  and  C_18
REMARK                            x       y       z     vdW  Elec       q    Type
REMARK                         _______ _______ _______ _____ _____    ______ ____
ROOT
ATOM      1  C   UNL     1      -0.234   9.598  20.231  0.00  0.00    +0.000 C 
ATOM      2  C   UNL     1      -0.283  10.631  19.107  0.00  0.00    +0.000 C 
ATOM      3  C   UNL     1       0.657  11.806  19.343  0.00  0.00    +0.000 C 
ATOM      4  N   UNL     1       0.586  12.375  20.692  0.00  0.00    +0.000 N 
ATOM      5  C   UNL     1       0.703  13.742  21.024  0.00  0.00    +0.000 C 
ATOM      6  O   UNL     1       0.695  14.141  22.186  0.00  0.00    +0.000 OA
ATOM      7  C   UNL     1       0.619  11.402  21.785  0.00  0.00    +0.000 C 
ATOM      8  C   UNL     1      -0.433  10.323  21.567  0.00  0.00    +0.000 C 
ENDROOT
BRANCH   5   9
ATOM      9  C   UNL     1       0.747  14.764  19.951  0.00  0.00    +0.000 A 
ATOM     10  C   UNL     1       2.003  15.240  19.537  0.00  0.00    +0.000 A 
ATOM     11  C   UNL     1       2.086  16.304  18.635  0.00  0.00    +0.000 A 
ATOM     12  C   UNL     1       0.918  16.901  18.161  0.00  0.00    +0.000 A 
ATOM     13 BR   UNL     1       1.020  18.415  17.036  0.00  0.00    +0.000 Br
ATOM     14  C   UNL     1      -0.328  16.388  18.509  0.00  0.00    +0.000 A 
ATOM     15  C   UNL     1      -0.405  15.277  19.349  0.00  0.00    +0.000 A 
ENDBRANCH   5   9
BRANCH   1  17
ATOM     16  O   UNL     1       1.613   8.389  21.243  0.00  0.00    +0.000 OA
ATOM     17  C   UNL     1       1.050   8.765  20.219  0.00  0.00    +0.000 C 
ATOM     18  N   UNL     1       1.512   8.438  18.962  0.00  0.00    +0.000 N 
ATOM     19  H   UNL     1       0.869   8.498  18.185  0.00  0.00    +0.000 HD
BRANCH  18  20
ATOM     20  C   UNL     1       2.712   7.630  18.812  0.00  0.00    +0.000 C 
BRANCH  20  21
ATOM     21  C   UNL     1       2.465   6.402  17.933  0.00  0.00    +0.000 C 
BRANCH  21  22
ATOM     22  C   UNL     1       2.075   5.167  18.715  0.00  0.00    +0.000 C 
ATOM     23  C   UNL     1       1.548   4.086  18.112  0.00  0.00    +0.000 C 
ATOM     24  C   UNL     1       1.119   2.847  18.844  0.00  0.00    +0.000 C 
ATOM     25  C   UNL     1       0.988   3.067  20.350  0.00  0.00    +0.000 C 
ATOM     26  C   UNL     1       2.191   3.832  20.888  0.00  0.00    +0.000 C 
ATOM     27  C   UNL     1       2.329   5.196  20.208  0.00  0.00    +0.000 C 
ENDBRANCH  21  22
ENDBRANCH  20  21
ENDBRANCH  18  20
ENDBRANCH   1  17
TORSDOF 5
ENDMDL
MODEL 7
REMARK VINA RESULT:      -7.2      0.489      1.050
REMARK  Name = 
REMARK  5 active torsions:
REMARK  status: ('A' for Active; 'I' for Inactive)
REMARK    1  A    between atoms: C_2  and  C_12
REMARK    2  A    between atoms: N_3  and  C_4
REMARK    3  A    between atoms: C_4  and  C_5
REMARK    4  A    between atoms: C_5  and  C_6
REMARK    5  A    between atoms: C_16  and  C_18
REMARK                            x       y       z     vdW  Elec       q    Type
REMARK                         _______ _______ _______ _____ _____    ______ ____
ROOT
ATOM      1  C   UNL     1       5.637   5.423  17.636  0.00  0.00    +0.000 C 
ATOM      2  C   UNL     1       5.050   5.777  19.000  0.00  0.00    +0.000 C 
ATOM      3  C   UNL     1       3.620   6.296  18.913  0.00  0.00    +0.000 C 
ATOM      4  N   UNL     1       3.410   7.314  17.880  0.00  0.00    +0.000 N 
ATOM      5  C   UNL     1       2.554   8.433  17.978  0.00  0.00    +0.000 C 
ATOM      6  O   UNL     1       2.380   9.213  17.046  0.00  0.00    +0.000 OA
ATOM      7  C   UNL     1       3.975   7.001  16.567  0.00  0.00    +0.000 C 
ATOM      8  C   UNL     1       5.442   6.619  16.697  0.00  0.00    +0.000 C 
ENDROOT
BRANCH   5   9
ATOM      9  C   UNL     1       1.899   8.754  19.268  0.00  0.00    +0.000 A 
ATOM     10  C   UNL     1       1.835   7.750  20.250  0.00  0.00    +0.000 A 
ATOM     11  C   UNL     1       1.102   7.962  21.421  0.00  0.00    +0.000 A 
ATOM     12  C   UNL     1       0.422   9.165  21.603  0.00  0.00    +0.000 A 
ATOM     13 BR   UNL     1      -0.668   9.414  23.126  0.00  0.00    +0.000 Br
ATOM     14  C   UNL     1       0.540  10.191  20.670  0.00  0.00    +0.000 A 
ATOM     15  C   UNL     1       1.335  10.004  19.538  0.00  0.00    +0.000 A 
ENDBRANCH   5   9
BRANCH   1  17
ATOM     16  O   UNL     1       4.930   3.943  15.845  0.00  0.00    +0.000 OA
ATOM     17  C   UNL     1       5.048   4.137  17.051  0.00  0.00    +0.000 C 
ATOM     18  N   UNL     1       4.688   3.191  17.987  0.00  0.00    +0.000 N 
ATOM     19  H   UNL     1       5.079   3.263  18.916  0.00  0.00    +0.000 HD
BRANCH  18  20
ATOM     20  C   UNL     1       4.137   1.914  17.562  0.00  0.00    +0.000 C 
BRANCH  20  21
ATOM     21  C   UNL     1       2.651   1.791  17.905  0.00  0.00    +0.000 C 
BRANCH  21  22
ATOM     22  C   UNL     1       2.254   2.550  19.153  0.00  0.00    +0.000 C 
ATOM     23  C   UNL     1       1.246   3.441  19.147  0.00  0.00    +0.000 C 
ATOM     24  C   UNL     1       0.830   4.240  20.349  0.00  0.00    +0.000 C 
ATOM     25  C   UNL     1       1.879   4.224  21.459  0.00  0.00    +0.000 C 
ATOM     26  C   UNL     1       2.399   2.811  21.688  0.00  0.00    +0.000 C 
ATOM     27  C   UNL     1       3.030   2.239  20.416  0.00  0.00    +0.000 C 
ENDBRANCH  21  22
ENDBRANCH  20  21
ENDBRANCH  18  20
ENDBRANCH   1  17
TORSDOF 5
ENDMDL
MODEL 8
REMARK VINA RESULT:      -7.1      3.874      6.631
REMARK  Name = 
REMARK  5 active torsions:
REMARK  status: ('A' for Active; 'I' for Inactive)
REMARK    1  A    between atoms: C_2  and  C_12
REMARK    2  A    between atoms: N_3  and  C_4
REMARK    3  A    between atoms: C_4  and  C_5
REMARK    4  A    between atoms: C_5  and  C_6
REMARK    5  A    between atoms: C_16  and  C_18
REMARK                            x       y       z     vdW  Elec       q    Type
REMARK                         _______ _______ _______ _____ _____    ______ ____
ROOT
ATOM      1  C   UNL     1       5.374   5.935  16.646  0.00  0.00    +0.000 C 
ATOM      2  C   UNL     1       4.452   7.124  16.388  0.00  0.00    +0.000 C 
ATOM      3  C   UNL     1       3.953   7.776  17.672  0.00  0.00    +0.000 C 
ATOM      4  N   UNL     1       3.455   6.830  18.674  0.00  0.00    +0.000 N 
ATOM      5  C   UNL     1       2.361   7.039  19.541  0.00  0.00    +0.000 C 
ATOM      6  O   UNL     1       2.038   6.225  20.403  0.00  0.00    +0.000 OA
ATOM      7  C   UNL     1       4.317   5.676  18.930  0.00  0.00    +0.000 C 
ATOM      8  C   UNL     1       4.676   4.981  17.623  0.00  0.00    +0.000 C 
ENDROOT
BRANCH   5   9
ATOM      9  C   UNL     1       1.498   8.232  19.372  0.00  0.00    +0.000 A 
ATOM     10  C   UNL     1       0.947   8.824  20.521  0.00  0.00    +0.000 A 
ATOM     11  C   UNL     1       0.014   9.857  20.399  0.00  0.00    +0.000 A 
ATOM     12  C   UNL     1      -0.378  10.288  19.132  0.00  0.00    +0.000 A 
ATOM     13 BR   UNL     1      -1.724  11.601  18.955  0.00  0.00    +0.000 Br
ATOM     14  C   UNL     1       0.217   9.758  17.991  0.00  0.00    +0.000 A 
ATOM     15  C   UNL     1       1.204   8.779  18.120  0.00  0.00    +0.000 A 
ENDBRANCH   5   9
BRANCH   1  17
ATOM     16  O   UNL     1       7.686   5.562  17.290  0.00  0.00    +0.000 OA
ATOM     17  C   UNL     1       6.759   6.353  17.149  0.00  0.00    +0.000 C 
ATOM     18  N   UNL     1       6.895   7.701  17.401  0.00  0.00    +0.000 N 
ATOM     19  H   UNL     1       6.228   8.337  16.986  0.00  0.00    +0.000 HD
BRANCH  18  20
ATOM     20  C   UNL     1       8.168   8.233  17.861  0.00  0.00    +0.000 C 
BRANCH  20  21
ATOM     21  C   UNL     1       8.314   9.722  17.539  0.00  0.00    +0.000 C 
BRANCH  21  22
ATOM     22  C   UNL     1       9.262  10.451  18.466  0.00  0.00    +0.000 C 
ATOM     23  C   UNL     1       9.113  10.410  19.803  0.00  0.00    +0.000 C 
ATOM     24  C   UNL     1      10.009  11.137  20.765  0.00  0.00    +0.000 C 
ATOM     25  C   UNL     1      10.859  12.209  20.085  0.00  0.00    +0.000 C 
ATOM     26  C   UNL     1      11.480  11.670  18.803  0.00  0.00    +0.000 C 
ATOM     27  C   UNL     1      10.403  11.207  17.818  0.00  0.00    +0.000 C 
ENDBRANCH  21  22
ENDBRANCH  20  21
ENDBRANCH  18  20
ENDBRANCH   1  17
TORSDOF 5
ENDMDL
MODEL 9
REMARK VINA RESULT:      -7.0      2.496      4.715
REMARK  Name = 
REMARK  5 active torsions:
REMARK  status: ('A' for Active; 'I' for Inactive)
REMARK    1  A    between atoms: C_2  and  C_12
REMARK    2  A    between atoms: N_3  and  C_4
REMARK    3  A    between atoms: C_4  and  C_5
REMARK    4  A    between atoms: C_5  and  C_6
REMARK    5  A    between atoms: C_16  and  C_18
REMARK                            x       y       z     vdW  Elec       q    Type
REMARK                         _______ _______ _______ _____ _____    ______ ____
ROOT
ATOM      1  C   UNL     1       2.729   4.657  18.747  0.00  0.00    +0.000 C 
ATOM      2  C   UNL     1       2.570   6.015  18.068  0.00  0.00    +0.000 C 
ATOM      3  C   UNL     1       2.601   7.178  19.052  0.00  0.00    +0.000 C 
ATOM      4  N   UNL     1       1.757   6.990  20.235  0.00  0.00    +0.000 N 
ATOM      5  C   UNL     1       1.018   7.995  20.896  0.00  0.00    +0.000 C 
ATOM      6  O   UNL     1       0.379   7.777  21.922  0.00  0.00    +0.000 OA
ATOM      7  C   UNL     1       1.883   5.691  20.896  0.00  0.00    +0.000 C 
ATOM      8  C   UNL     1       1.709   4.563  19.889  0.00  0.00    +0.000 C 
ENDROOT
BRANCH   5   9
ATOM      9  C   UNL     1       0.917   9.351  20.305  0.00  0.00    +0.000 A 
ATOM     10  C   UNL     1       1.027  10.460  21.161  0.00  0.00    +0.000 A 
ATOM     11  C   UNL     1       0.795  11.748  20.671  0.00  0.00    +0.000 A 
ATOM     12  C   UNL     1       0.438  11.926  19.335  0.00  0.00    +0.000 A 
ATOM     13 BR   UNL     1       0.006  13.650  18.694  0.00  0.00    +0.000 Br
ATOM     14  C   UNL     1       0.399  10.841  18.464  0.00  0.00    +0.000 A 
ATOM     15  C   UNL     1       0.707   9.566  18.940  0.00  0.00    +0.000 A 
ENDBRANCH   5   9
BRANCH   1  17
ATOM     16  O   UNL     1       4.537   3.307  19.645  0.00  0.00    +0.000 OA
ATOM     17  C   UNL     1       4.156   4.399  19.236  0.00  0.00    +0.000 C 
ATOM     18  N   UNL     1       4.998   5.487  19.150  0.00  0.00    +0.000 N 
ATOM     19  H   UNL     1       4.738   6.248  18.537  0.00  0.00    +0.000 HD
BRANCH  18  20
ATOM     20  C   UNL     1       6.389   5.370  19.559  0.00  0.00    +0.000 C 
BRANCH  20  21
ATOM     21  C   UNL     1       7.349   5.776  18.440  0.00  0.00    +0.000 C 
BRANCH  21  22
ATOM     22  C   UNL     1       6.769   5.606  17.054  0.00  0.00    +0.000 C 
ATOM     23  C   UNL     1       5.937   6.519  16.519  0.00  0.00    +0.000 C 
ATOM     24  C   UNL     1       5.312   6.385  15.160  0.00  0.00    +0.000 C 
ATOM     25  C   UNL     1       5.407   4.965  14.604  0.00  0.00    +0.000 C 
ATOM     26  C   UNL     1       6.809   4.403  14.802  0.00  0.00    +0.000 C 
ATOM     27  C   UNL     1       7.189   4.371  16.285  0.00  0.00    +0.000 C 
ENDBRANCH  21  22
ENDBRANCH  20  21
ENDBRANCH  18  20
ENDBRANCH   1  17
TORSDOF 5
ENDMDL
