MODEL 1
REMARK VINA RESULT:      -7.4      0.000      0.000
REMARK  Name = 
REMARK  7 active torsions:
REMARK  status: ('A' for Active; 'I' for Inactive)
REMARK    1  A    between atoms: C_1  and  N_2
REMARK    2  A    between atoms: N_2  and  C_3
REMARK    3  A    between atoms: N_2  and  C_4
REMARK    4  A    between atoms: C_4  and  C_5
REMARK    5  A    between atoms: C_5  and  S_6
REMARK    6  A    between atoms: S_6  and  C_7
REMARK    7  A    between atoms: C_17  and  C_18
REMARK                            x       y       z     vdW  Elec       q    Type
REMARK                         _______ _______ _______ _____ _____    ______ ____
ROOT
ATOM      1  C   UNL     1       3.973   5.411  18.776  0.00  0.00    +0.000 A 
ATOM      2  N   UNL     1       3.138   5.928  19.718  0.00  0.00    +0.000 NA
ATOM      3  C   UNL     1       2.510   7.072  19.484  0.00  0.00    +0.000 A 
ATOM      4  C   UNL     1       1.700   7.593  20.482  0.00  0.00    +0.000 A 
ATOM      5  C   UNL     1       1.037   8.807  20.315  0.00  0.00    +0.000 A 
ATOM      6  C   UNL     1       1.183   9.497  19.119  0.00  0.00    +0.000 A 
ATOM      7 BR   UNL     1       0.312  11.158  18.889  0.00  0.00    +0.000 Br
ATOM      8  C   UNL     1       1.979   8.981  18.095  0.00  0.00    +0.000 A 
ATOM      9  C   UNL     1       2.660   7.761  18.275  0.00  0.00    +0.000 A 
ATOM     10  C   UNL     1       3.519   7.199  17.303  0.00  0.00    +0.000 A 
ATOM     11  C   UNL     1       4.234   5.999  17.524  0.00  0.00    +0.000 A 
ENDROOT
BRANCH  11  12
ATOM     12  C   UNL     1       5.179   5.472  16.475  0.00  0.00    +0.000 A 
ATOM     13  C   UNL     1       6.551   5.793  16.440  0.00  0.00    +0.000 A 
ATOM     14  C   UNL     1       7.429   5.297  15.467  0.00  0.00    +0.000 A 
ATOM     15  C   UNL     1       6.946   4.511  14.436  0.00  0.00    +0.000 A 
ATOM     16  C   UNL     1       5.593   4.194  14.406  0.00  0.00    +0.000 A 
ATOM     17  C   UNL     1       4.733   4.646  15.422  0.00  0.00    +0.000 A 
ENDBRANCH  11  12
BRANCH   1  18
ATOM     18  S   UNL     1       4.712   3.922  19.383  0.00  0.00    +0.000 S 
BRANCH  18  19
ATOM     19  C   UNL     1       3.695   2.723  18.482  0.00  0.00    +0.000 C 
BRANCH  19  20
ATOM     20  C   UNL     1       2.889   1.996  19.554  0.00  0.00    +0.000 C 
BRANCH  20  22
ATOM     21  C   UNL     1       1.281   3.023  20.961  0.00  0.00    +0.000 C 
ATOM     22  N   UNL     1       1.467   2.360  19.667  0.00  0.00    +0.000 NA
ATOM     23  C   UNL     1       0.990   3.188  18.565  0.00  0.00    +0.000 C 
ENDBRANCH  20  22
ENDBRANCH  19  20
ENDBRANCH  18  19
ENDBRANCH   1  18
TORSDOF 5
ENDMDL
MODEL 2
REMARK VINA RESULT:      -7.4      0.116      1.001
REMARK  Name = 
REMARK  7 active torsions:
REMARK  status: ('A' for Active; 'I' for Inactive)
REMARK    1  A    between atoms: C_1  and  N_2
REMARK    2  A    between atoms: N_2  and  C_3
REMARK    3  A    between atoms: N_2  and  C_4
REMARK    4  A    between atoms: C_4  and  C_5
REMARK    5  A    between atoms: C_5  and  S_6
REMARK    6  A    between atoms: S_6  and  C_7
REMARK    7  A    between atoms: C_17  and  C_18
REMARK                            x       y       z     vdW  Elec       q    Type
REMARK                         _______ _______ _______ _____ _____    ______ ____
ROOT
ATOM      1  C   UNL     1       3.929   5.532  18.792  0.00  0.00    +0.000 A 
ATOM      2  N   UNL     1       3.093   6.052  19.732  0.00  0.00    +0.000 NA
ATOM      3  C   UNL     1       2.456   7.189  19.489  0.00  0.00    +0.000 A 
ATOM      4  C   UNL     1       1.645   7.712  20.485  0.00  0.00    +0.000 A 
ATOM      5  C   UNL     1       0.973   8.920  20.310  0.00  0.00    +0.000 A 
ATOM      6  C   UNL     1       1.111   9.602  19.107  0.00  0.00    +0.000 A 
ATOM      7 BR   UNL     1       0.229  11.254  18.866  0.00  0.00    +0.000 Br
ATOM      8  C   UNL     1       1.908   9.082  18.086  0.00  0.00    +0.000 A 
ATOM      9  C   UNL     1       2.598   7.869  18.275  0.00  0.00    +0.000 A 
ATOM     10  C   UNL     1       3.459   7.304  17.305  0.00  0.00    +0.000 A 
ATOM     11  C   UNL     1       4.183   6.111  17.535  0.00  0.00    +0.000 A 
ENDROOT
BRANCH  11  12
ATOM     12  C   UNL     1       5.129   5.582  16.487  0.00  0.00    +0.000 A 
ATOM     13  C   UNL     1       4.724   4.730  15.440  0.00  0.00    +0.000 A 
ATOM     14  C   UNL     1       5.604   4.244  14.464  0.00  0.00    +0.000 A 
ATOM     15  C   UNL     1       6.955   4.536  14.545  0.00  0.00    +0.000 A 
ATOM     16  C   UNL     1       7.410   5.345  15.579  0.00  0.00    +0.000 A 
ATOM     17  C   UNL     1       6.508   5.878  16.516  0.00  0.00    +0.000 A 
ENDBRANCH  11  12
BRANCH   1  18
ATOM     18  S   UNL     1       4.680   4.053  19.409  0.00  0.00    +0.000 S 
BRANCH  18  19
ATOM     19  C   UNL     1       3.691   2.841  18.497  0.00  0.00    +0.000 C 
BRANCH  19  20
ATOM     20  C   UNL     1       2.934   2.056  19.564  0.00  0.00    +0.000 C 
BRANCH  20  22
ATOM     21  C   UNL     1       1.335   3.006  21.032  0.00  0.00    +0.000 C 
ATOM     22  N   UNL     1       1.505   2.370  19.723  0.00  0.00    +0.000 NA
ATOM     23  C   UNL     1       0.970   3.200  18.648  0.00  0.00    +0.000 C 
ENDBRANCH  20  22
ENDBRANCH  19  20
ENDBRANCH  18  19
ENDBRANCH   1  18
TORSDOF 5
ENDMDL
MODEL 3
REMARK VINA RESULT:      -7.0      1.249      2.235
REMARK  Name = 
REMARK  7 active torsions:
REMARK  status: ('A' for Active; 'I' for Inactive)
REMARK    1  A    between atoms: C_1  and  N_2
REMARK    2  A    between atoms: N_2  and  C_3
REMARK    3  A    between atoms: N_2  and  C_4
REMARK    4  A    between atoms: C_4  and  C_5
REMARK    5  A    between atoms: C_5  and  S_6
REMARK    6  A    between atoms: S_6  and  C_7
REMARK    7  A    between atoms: C_17  and  C_18
REMARK                            x       y       z     vdW  Elec       q    Type
REMARK                         _______ _______ _______ _____ _____    ______ ____
ROOT
ATOM      1  C   UNL     1       2.479   6.615  19.638  0.00  0.00    +0.000 A 
ATOM      2  N   UNL     1       1.701   7.400  20.434  0.00  0.00    +0.000 NA
ATOM      3  C   UNL     1       1.292   8.581  19.993  0.00  0.00    +0.000 A 
ATOM      4  C   UNL     1       0.537   9.374  20.845  0.00  0.00    +0.000 A 
ATOM      5  C   UNL     1       0.101  10.640  20.459  0.00  0.00    +0.000 A 
ATOM      6  C   UNL     1       0.420  11.105  19.189  0.00  0.00    +0.000 A 
ATOM      7 BR   UNL     1      -0.140  12.831  18.662  0.00  0.00    +0.000 Br
ATOM      8  C   UNL     1       1.163  10.315  18.310  0.00  0.00    +0.000 A 
ATOM      9  C   UNL     1       1.615   9.043  18.712  0.00  0.00    +0.000 A 
ATOM     10  C   UNL     1       2.409   8.206  17.896  0.00  0.00    +0.000 A 
ATOM     11  C   UNL     1       2.895   6.954  18.337  0.00  0.00    +0.000 A 
ENDROOT
BRANCH  11  12
ATOM     12  C   UNL     1       3.784   6.125  17.446  0.00  0.00    +0.000 A 
ATOM     13  C   UNL     1       3.670   4.725  17.327  0.00  0.00    +0.000 A 
ATOM     14  C   UNL     1       4.493   3.958  16.492  0.00  0.00    +0.000 A 
ATOM     15  C   UNL     1       5.526   4.561  15.795  0.00  0.00    +0.000 A 
ATOM     16  C   UNL     1       5.702   5.935  15.905  0.00  0.00    +0.000 A 
ATOM     17  C   UNL     1       4.831   6.704  16.696  0.00  0.00    +0.000 A 
ENDBRANCH  11  12
BRANCH   1  18
ATOM     18  S   UNL     1       2.920   5.136  20.504  0.00  0.00    +0.000 S 
BRANCH  18  19
ATOM     19  C   UNL     1       1.292   4.344  20.544  0.00  0.00    +0.000 C 
BRANCH  19  20
ATOM     20  C   UNL     1       1.572   2.868  20.812  0.00  0.00    +0.000 C 
BRANCH  20  22
ATOM     21  C   UNL     1       0.749   2.573  18.609  0.00  0.00    +0.000 C 
ATOM     22  N   UNL     1       1.611   1.982  19.637  0.00  0.00    +0.000 NA
ATOM     23  C   UNL     1       2.960   1.742  19.136  0.00  0.00    +0.000 C 
ENDBRANCH  20  22
ENDBRANCH  19  20
ENDBRANCH  18  19
ENDBRANCH   1  18
TORSDOF 5
ENDMDL
MODEL 4
REMARK VINA RESULT:      -6.8      0.996      1.441
REMARK  Name = 
REMARK  7 active torsions:
REMARK  status: ('A' for Active; 'I' for Inactive)
REMARK    1  A    between atoms: C_1  and  N_2
REMARK    2  A    between atoms: N_2  and  C_3
REMARK    3  A    between atoms: N_2  and  C_4
REMARK    4  A    between atoms: C_4  and  C_5
REMARK    5  A    between atoms: C_5  and  S_6
REMARK    6  A    between atoms: S_6  and  C_7
REMARK    7  A    between atoms: C_17  and  C_18
REMARK                            x       y       z     vdW  Elec       q    Type
REMARK                         _______ _______ _______ _____ _____    ______ ____
ROOT
ATOM      1  C   UNL     1       3.144   6.162  19.341  0.00  0.00    +0.000 A 
ATOM      2  N   UNL     1       2.246   6.812  20.131  0.00  0.00    +0.000 NA
ATOM      3  C   UNL     1       1.759   7.983  19.746  0.00  0.00    +0.000 A 
ATOM      4  C   UNL     1       0.878   8.638  20.594  0.00  0.00    +0.000 A 
ATOM      5  C   UNL     1       0.353   9.887  20.267  0.00  0.00    +0.000 A 
ATOM      6  C   UNL     1       0.712  10.476  19.061  0.00  0.00    +0.000 A 
ATOM      7 BR   UNL     1       0.031  12.181  18.617  0.00  0.00    +0.000 Br
ATOM      8  C   UNL     1       1.582   9.824  18.185  0.00  0.00    +0.000 A 
ATOM      9  C   UNL     1       2.122   8.569  18.528  0.00  0.00    +0.000 A 
ATOM     10  C   UNL     1       3.043   7.870  17.715  0.00  0.00    +0.000 A 
ATOM     11  C   UNL     1       3.613   6.635  18.102  0.00  0.00    +0.000 A 
ENDROOT
BRANCH  11  12
ATOM     12  C   UNL     1       4.633   5.959  17.221  0.00  0.00    +0.000 A 
ATOM     13  C   UNL     1       5.930   6.469  17.008  0.00  0.00    +0.000 A 
ATOM     14  C   UNL     1       6.878   5.835  16.194  0.00  0.00    +0.000 A 
ATOM     15  C   UNL     1       6.535   4.692  15.494  0.00  0.00    +0.000 A 
ATOM     16  C   UNL     1       5.257   4.167  15.644  0.00  0.00    +0.000 A 
ATOM     17  C   UNL     1       4.334   4.777  16.512  0.00  0.00    +0.000 A 
ENDBRANCH  11  12
BRANCH   1  18
ATOM     18  S   UNL     1       3.662   4.665  20.130  0.00  0.00    +0.000 S 
BRANCH  18  19
ATOM     19  C   UNL     1       2.038   4.040  20.630  0.00  0.00    +0.000 C 
BRANCH  19  20
ATOM     20  C   UNL     1       2.171   2.520  20.614  0.00  0.00    +0.000 C 
BRANCH  20  22
ATOM     21  C   UNL     1       0.785   2.629  18.695  0.00  0.00    +0.000 C 
ATOM     22  N   UNL     1       1.834   1.843  19.351  0.00  0.00    +0.000 NA
ATOM     23  C   UNL     1       2.983   1.643  18.475  0.00  0.00    +0.000 C 
ENDBRANCH  20  22
ENDBRANCH  19  20
ENDBRANCH  18  19
ENDBRANCH   1  18
TORSDOF 5
ENDMDL
MODEL 5
REMARK VINA RESULT:      -6.7      2.088      5.246
REMARK  Name = 
REMARK  7 active torsions:
REMARK  status: ('A' for Active; 'I' for Inactive)
REMARK    1  A    between atoms: C_1  and  N_2
REMARK    2  A    between atoms: N_2  and  C_3
REMARK    3  A    between atoms: N_2  and  C_4
REMARK    4  A    between atoms: C_4  and  C_5
REMARK    5  A    between atoms: C_5  and  S_6
REMARK    6  A    between atoms: S_6  and  C_7
REMARK    7  A    between atoms: C_17  and  C_18
REMARK                            x       y       z     vdW  Elec       q    Type
REMARK                         _______ _______ _______ _____ _____    ______ ____
ROOT
ATOM      1  C   UNL     1       2.805   6.671  18.442  0.00  0.00    +0.000 A 
ATOM      2  N   UNL     1       2.888   7.933  17.937  0.00  0.00    +0.000 NA
ATOM      3  C   UNL     1       2.215   8.918  18.514  0.00  0.00    +0.000 A 
ATOM      4  C   UNL     1       2.288  10.182  17.948  0.00  0.00    +0.000 A 
ATOM      5  C   UNL     1       1.580  11.257  18.483  0.00  0.00    +0.000 A 
ATOM      6  C   UNL     1       0.799  11.054  19.613  0.00  0.00    +0.000 A 
ATOM      7 BR   UNL     1      -0.189  12.495  20.333  0.00  0.00    +0.000 Br
ATOM      8  C   UNL     1       0.726   9.793  20.209  0.00  0.00    +0.000 A 
ATOM      9  C   UNL     1       1.431   8.708  19.654  0.00  0.00    +0.000 A 
ATOM     10  C   UNL     1       1.371   7.394  20.173  0.00  0.00    +0.000 A 
ATOM     11  C   UNL     1       2.046   6.307  19.570  0.00  0.00    +0.000 A 
ENDROOT
BRANCH  11  12
ATOM     12  C   UNL     1       1.903   4.916  20.133  0.00  0.00    +0.000 A 
ATOM     13  C   UNL     1       1.153   3.902  19.505  0.00  0.00    +0.000 A 
ATOM     14  C   UNL     1       1.027   2.608  20.027  0.00  0.00    +0.000 A 
ATOM     15  C   UNL     1       1.592   2.298  21.252  0.00  0.00    +0.000 A 
ATOM     16  C   UNL     1       2.313   3.275  21.928  0.00  0.00    +0.000 A 
ATOM     17  C   UNL     1       2.485   4.551  21.366  0.00  0.00    +0.000 A 
ENDBRANCH  11  12
BRANCH   1  18
ATOM     18  S   UNL     1       3.752   5.561  17.442  0.00  0.00    +0.000 S 
BRANCH  18  19
ATOM     19  C   UNL     1       4.962   6.740  16.790  0.00  0.00    +0.000 C 
BRANCH  19  20
ATOM     20  C   UNL     1       6.044   5.885  16.138  0.00  0.00    +0.000 C 
BRANCH  20  22
ATOM     21  C   UNL     1       7.459   7.052  17.639  0.00  0.00    +0.000 C 
ATOM     22  N   UNL     1       7.348   5.842  16.819  0.00  0.00    +0.000 NA
ATOM     23  C   UNL     1       7.548   4.635  17.613  0.00  0.00    +0.000 C 
ENDBRANCH  20  22
ENDBRANCH  19  20
ENDBRANCH  18  19
ENDBRANCH   1  18
TORSDOF 5
ENDMDL
MODEL 6
REMARK VINA RESULT:      -6.7      1.031      1.678
REMARK  Name = 
REMARK  7 active torsions:
REMARK  status: ('A' for Active; 'I' for Inactive)
REMARK    1  A    between atoms: C_1  and  N_2
REMARK    2  A    between atoms: N_2  and  C_3
REMARK    3  A    between atoms: N_2  and  C_4
REMARK    4  A    between atoms: C_4  and  C_5
REMARK    5  A    between atoms: C_5  and  S_6
REMARK    6  A    between atoms: S_6  and  C_7
REMARK    7  A    between atoms: C_17  and  C_18
REMARK                            x       y       z     vdW  Elec       q    Type
REMARK                         _______ _______ _______ _____ _____    ______ ____
ROOT
ATOM      1  C   UNL     1       3.480   5.984  19.217  0.00  0.00    +0.000 A 
ATOM      2  N   UNL     1       2.572   6.557  20.053  0.00  0.00    +0.000 NA
ATOM      3  C   UNL     1       1.986   7.695  19.706  0.00  0.00    +0.000 A 
ATOM      4  C   UNL     1       1.098   8.274  20.600  0.00  0.00    +0.000 A 
ATOM      5  C   UNL     1       0.471   9.485  20.315  0.00  0.00    +0.000 A 
ATOM      6  C   UNL     1       0.735  10.113  19.104  0.00  0.00    +0.000 A 
ATOM      7 BR   UNL     1      -0.085  11.770  18.716  0.00  0.00    +0.000 Br
ATOM      8  C   UNL     1       1.612   9.537  18.183  0.00  0.00    +0.000 A 
ATOM      9  C   UNL     1       2.255   8.320  18.484  0.00  0.00    +0.000 A 
ATOM     10  C   UNL     1       3.188   7.700  17.623  0.00  0.00    +0.000 A 
ATOM     11  C   UNL     1       3.861   6.505  17.966  0.00  0.00    +0.000 A 
ENDROOT
BRANCH  11  12
ATOM     12  C   UNL     1       4.889   5.915  17.034  0.00  0.00    +0.000 A 
ATOM     13  C   UNL     1       4.612   4.851  16.153  0.00  0.00    +0.000 A 
ATOM     14  C   UNL     1       5.566   4.308  15.282  0.00  0.00    +0.000 A 
ATOM     15  C   UNL     1       6.872   4.766  15.317  0.00  0.00    +0.000 A 
ATOM     16  C   UNL     1       7.205   5.791  16.194  0.00  0.00    +0.000 A 
ATOM     17  C   UNL     1       6.224   6.370  17.018  0.00  0.00    +0.000 A 
ENDBRANCH  11  12
BRANCH   1  18
ATOM     18  S   UNL     1       4.138   4.519  19.960  0.00  0.00    +0.000 S 
BRANCH  18  19
ATOM     19  C   UNL     1       2.608   3.860  20.672  0.00  0.00    +0.000 C 
BRANCH  19  20
ATOM     20  C   UNL     1       2.327   2.575  19.899  0.00  0.00    +0.000 C 
BRANCH  20  22
ATOM     21  C   UNL     1       3.773   1.087  18.755  0.00  0.00    +0.000 C 
ATOM     22  N   UNL     1       3.086   2.378  18.653  0.00  0.00    +0.000 NA
ATOM     23  C   UNL     1       2.262   2.455  17.452  0.00  0.00    +0.000 C 
ENDBRANCH  20  22
ENDBRANCH  19  20
ENDBRANCH  18  19
ENDBRANCH   1  18
TORSDOF 5
ENDMDL
MODEL 7
REMARK VINA RESULT:      -6.7      2.487      5.673
REMARK  Name = 
REMARK  7 active torsions:
REMARK  status: ('A' for Active; 'I' for Inactive)
REMARK    1  A    between atoms: C_1  and  N_2
REMARK    2  A    between atoms: N_2  and  C_3
REMARK    3  A    between atoms: N_2  and  C_4
REMARK    4  A    between atoms: C_4  and  C_5
REMARK    5  A    between atoms: C_5  and  S_6
REMARK    6  A    between atoms: S_6  and  C_7
REMARK    7  A    between atoms: C_17  and  C_18
REMARK                            x       y       z     vdW  Elec       q    Type
REMARK                         _______ _______ _______ _____ _____    ______ ____
ROOT
ATOM      1  C   UNL     1       2.757   5.950  19.249  0.00  0.00    +0.000 A 
ATOM      2  N   UNL     1       3.535   4.896  18.875  0.00  0.00    +0.000 NA
ATOM      3  C   UNL     1       4.319   5.003  17.812  0.00  0.00    +0.000 A 
ATOM      4  C   UNL     1       5.066   3.897  17.435  0.00  0.00    +0.000 A 
ATOM      5  C   UNL     1       5.886   3.927  16.309  0.00  0.00    +0.000 A 
ATOM      6  C   UNL     1       5.964   5.096  15.562  0.00  0.00    +0.000 A 
ATOM      7 BR   UNL     1       7.049   5.144  14.017  0.00  0.00    +0.000 Br
ATOM      8  C   UNL     1       5.234   6.226  15.936  0.00  0.00    +0.000 A 
ATOM      9  C   UNL     1       4.394   6.184  17.066  0.00  0.00    +0.000 A 
ATOM     10  C   UNL     1       3.591   7.271  17.479  0.00  0.00    +0.000 A 
ATOM     11  C   UNL     1       2.716   7.191  18.587  0.00  0.00    +0.000 A 
ENDROOT
BRANCH  11  12
ATOM     12  C   UNL     1       1.841   8.363  18.952  0.00  0.00    +0.000 A 
ATOM     13  C   UNL     1       1.450   8.653  20.275  0.00  0.00    +0.000 A 
ATOM     14  C   UNL     1       0.642   9.747  20.613  0.00  0.00    +0.000 A 
ATOM     15  C   UNL     1       0.125  10.558  19.617  0.00  0.00    +0.000 A 
ATOM     16  C   UNL     1       0.454  10.294  18.293  0.00  0.00    +0.000 A 
ATOM     17  C   UNL     1       1.316   9.231  17.971  0.00  0.00    +0.000 A 
ENDBRANCH  11  12
BRANCH   1  18
ATOM     18  S   UNL     1       1.778   5.504  20.654  0.00  0.00    +0.000 S 
BRANCH  18  19
ATOM     19  C   UNL     1       2.537   3.901  21.021  0.00  0.00    +0.000 C 
BRANCH  19  20
ATOM     20  C   UNL     1       1.408   2.884  20.888  0.00  0.00    +0.000 C 
BRANCH  20  22
ATOM     21  C   UNL     1       0.636   2.551  18.672  0.00  0.00    +0.000 C 
ATOM     22  N   UNL     1       1.473   1.978  19.729  0.00  0.00    +0.000 NA
ATOM     23  C   UNL     1       2.833   1.728  19.263  0.00  0.00    +0.000 C 
ENDBRANCH  20  22
ENDBRANCH  19  20
ENDBRANCH  18  19
ENDBRANCH   1  18
TORSDOF 5
ENDMDL
MODEL 8
REMARK VINA RESULT:      -6.6      1.380      2.264
REMARK  Name = 
REMARK  7 active torsions:
REMARK  status: ('A' for Active; 'I' for Inactive)
REMARK    1  A    between atoms: C_1  and  N_2
REMARK    2  A    between atoms: N_2  and  C_3
REMARK    3  A    between atoms: N_2  and  C_4
REMARK    4  A    between atoms: C_4  and  C_5
REMARK    5  A    between atoms: C_5  and  S_6
REMARK    6  A    between atoms: S_6  and  C_7
REMARK    7  A    between atoms: C_17  and  C_18
REMARK                            x       y       z     vdW  Elec       q    Type
REMARK                         _______ _______ _______ _____ _____    ______ ____
ROOT
ATOM      1  C   UNL     1       2.555   6.666  19.565  0.00  0.00    +0.000 A 
ATOM      2  N   UNL     1       1.674   7.394  20.304  0.00  0.00    +0.000 NA
ATOM      3  C   UNL     1       1.255   8.570  19.857  0.00  0.00    +0.000 A 
ATOM      4  C   UNL     1       0.392   9.305  20.655  0.00  0.00    +0.000 A 
ATOM      5  C   UNL     1      -0.063  10.563  20.262  0.00  0.00    +0.000 A 
ATOM      6  C   UNL     1       0.350  11.077  19.039  0.00  0.00    +0.000 A 
ATOM      7 BR   UNL     1      -0.235  12.793  18.506  0.00  0.00    +0.000 Br
ATOM      8  C   UNL     1       1.204  10.345  18.213  0.00  0.00    +0.000 A 
ATOM      9  C   UNL     1       1.673   9.081  18.623  0.00  0.00    +0.000 A 
ATOM     10  C   UNL     1       2.574   8.302  17.863  0.00  0.00    +0.000 A 
ATOM     11  C   UNL     1       3.073   7.059  18.316  0.00  0.00    +0.000 A 
ENDROOT
BRANCH  11  12
ATOM     12  C   UNL     1       4.075   6.294  17.490  0.00  0.00    +0.000 A 
ATOM     13  C   UNL     1       3.855   4.979  17.030  0.00  0.00    +0.000 A 
ATOM     14  C   UNL     1       4.785   4.273  16.257  0.00  0.00    +0.000 A 
ATOM     15  C   UNL     1       6.019   4.834  15.976  0.00  0.00    +0.000 A 
ATOM     16  C   UNL     1       6.299   6.114  16.437  0.00  0.00    +0.000 A 
ATOM     17  C   UNL     1       5.334   6.838  17.158  0.00  0.00    +0.000 A 
ENDBRANCH  11  12
BRANCH   1  18
ATOM     18  S   UNL     1       2.980   5.182  20.430  0.00  0.00    +0.000 S 
BRANCH  18  19
ATOM     19  C   UNL     1       1.665   4.108  19.800  0.00  0.00    +0.000 C 
BRANCH  19  20
ATOM     20  C   UNL     1       2.197   2.687  19.958  0.00  0.00    +0.000 C 
BRANCH  20  22
ATOM     21  C   UNL     1       4.394   1.945  20.449  0.00  0.00    +0.000 C 
ATOM     22  N   UNL     1       3.519   2.412  19.370  0.00  0.00    +0.000 NA
ATOM     23  C   UNL     1       3.476   1.461  18.264  0.00  0.00    +0.000 C 
ENDBRANCH  20  22
ENDBRANCH  19  20
ENDBRANCH  18  19
ENDBRANCH   1  18
TORSDOF 5
ENDMDL
MODEL 9
REMARK VINA RESULT:      -6.6      2.010      5.089
REMARK  Name = 
REMARK  7 active torsions:
REMARK  status: ('A' for Active; 'I' for Inactive)
REMARK    1  A    between atoms: C_1  and  N_2
REMARK    2  A    between atoms: N_2  and  C_3
REMARK    3  A    between atoms: N_2  and  C_4
REMARK    4  A    between atoms: C_4  and  C_5
REMARK    5  A    between atoms: C_5  and  S_6
REMARK    6  A    between atoms: S_6  and  C_7
REMARK    7  A    between atoms: C_17  and  C_18
REMARK                            x       y       z     vdW  Elec       q    Type
REMARK                         _______ _______ _______ _____ _____    ______ ____
ROOT
ATOM      1  C   UNL     1       2.880   6.676  18.415  0.00  0.00    +0.000 A 
ATOM      2  N   UNL     1       2.995   7.927  17.892  0.00  0.00    +0.000 NA
ATOM      3  C   UNL     1       2.315   8.930  18.431  0.00  0.00    +0.000 A 
ATOM      4  C   UNL     1       2.422  10.183  17.848  0.00  0.00    +0.000 A 
ATOM      5  C   UNL     1       1.710  11.275  18.342  0.00  0.00    +0.000 A 
ATOM      6  C   UNL     1       0.890  11.100  19.449  0.00  0.00    +0.000 A 
ATOM      7 BR   UNL     1      -0.103  12.563  20.113  0.00  0.00    +0.000 Br
ATOM      8  C   UNL     1       0.783   9.850  20.062  0.00  0.00    +0.000 A 
ATOM      9  C   UNL     1       1.493   8.747  19.548  0.00  0.00    +0.000 A 
ATOM     10  C   UNL     1       1.400   7.443  20.086  0.00  0.00    +0.000 A 
ATOM     11  C   UNL     1       2.081   6.339  19.523  0.00  0.00    +0.000 A 
ENDROOT
BRANCH  11  12
ATOM     12  C   UNL     1       1.903   4.959  20.104  0.00  0.00    +0.000 A 
ATOM     13  C   UNL     1       2.473   4.557  21.329  0.00  0.00    +0.000 A 
ATOM     14  C   UNL     1       2.301   3.276  21.870  0.00  0.00    +0.000 A 
ATOM     15  C   UNL     1       1.607   2.313  21.158  0.00  0.00    +0.000 A 
ATOM     16  C   UNL     1       1.055   2.650  19.928  0.00  0.00    +0.000 A 
ATOM     17  C   UNL     1       1.180   3.956  19.425  0.00  0.00    +0.000 A 
ENDBRANCH  11  12
BRANCH   1  18
ATOM     18  S   UNL     1       3.846   5.538  17.464  0.00  0.00    +0.000 S 
BRANCH  18  19
ATOM     19  C   UNL     1       4.934   6.725  16.635  0.00  0.00    +0.000 C 
BRANCH  19  20
ATOM     20  C   UNL     1       6.282   6.590  17.336  0.00  0.00    +0.000 C 
BRANCH  20  22
ATOM     21  C   UNL     1       7.590   4.641  17.664  0.00  0.00    +0.000 C 
ATOM     22  N   UNL     1       7.267   5.697  16.701  0.00  0.00    +0.000 NA
ATOM     23  C   UNL     1       6.814   5.145  15.429  0.00  0.00    +0.000 C 
ENDBRANCH  20  22
ENDBRANCH  19  20
ENDBRANCH  18  19
ENDBRANCH   1  18
TORSDOF 5
ENDMDL
