MODEL 1
REMARK VINA RESULT:      -7.8      0.000      0.000
REMARK  Name = 
REMARK  11 active torsions:
REMARK  status: ('A' for Active; 'I' for Inactive)
REMARK    1  A    between atoms: C_1  and  C_2
REMARK    2  A    between atoms: N_4  and  N_5
REMARK    3  A    between atoms: C_6  and  C_7
REMARK    4  A    between atoms: C_6  and  C_8
REMARK    5  A    between atoms: C_9  and  O_10
REMARK    6  A    between atoms: C_11  and  N_12
REMARK    7  A    between atoms: C_17  and  O_18
REMARK    8  A    between atoms: C_20  and  O_21
REMARK    9  A    between atoms: C_22  and  C_23
REMARK   10  A    between atoms: C_27  and  C_28
REMARK   11  A    between atoms: C_31  and  O_32
REMARK                            x       y       z     vdW  Elec       q    Type
REMARK                         _______ _______ _______ _____ _____    ______ ____
ROOT
ATOM      1  C   UNL     1      -2.280  12.930  20.205  0.00  0.00    +0.000 C 
ATOM      2  C   UNL     1      -2.758  12.086  19.271  0.00  0.00    +0.000 C 
ATOM      3  C   UNL     1      -1.857  11.460  18.334  0.00  0.00    +0.000 C 
ATOM      4  C   UNL     1      -0.555  11.150  19.030  0.00  0.00    +0.000 C 
ATOM      5  C   UNL     1      -0.363  10.535  20.441  0.00  0.00    +0.000 C 
ATOM      6  C   UNL     1       0.792   9.577  20.242  0.00  0.00    +0.000 A 
ATOM      7  C   UNL     1       1.668   9.873  19.188  0.00  0.00    +0.000 A 
ATOM      8  C   UNL     1       2.301   8.742  18.599  0.00  0.00    +0.000 A 
ATOM      9  C   UNL     1       2.230   7.391  19.172  0.00  0.00    +0.000 A 
ATOM     10  C   UNL     1       2.795   6.146  18.644  0.00  0.00    +0.000 A 
ATOM     11  C   UNL     1       2.681   4.881  19.278  0.00  0.00    +0.000 A 
ATOM     12  C   UNL     1       3.266   3.590  18.779  0.00  0.00    +0.000 C 
ATOM     13  C   UNL     1       1.970   4.813  20.462  0.00  0.00    +0.000 A 
ATOM     14  C   UNL     1       1.380   5.955  20.989  0.00  0.00    +0.000 A 
ATOM     15  C   UNL     1       1.489   7.243  20.375  0.00  0.00    +0.000 A 
ATOM     16  C   UNL     1       0.798   8.347  20.925  0.00  0.00    +0.000 A 
ATOM     17  C   UNL     1      -0.061   8.246  22.162  0.00  0.00    +0.000 C 
ATOM     18  C   UNL     1       1.534  11.368  18.583  0.00  0.00    +0.000 C 
ATOM     19  O   UNL     1       2.240  11.606  17.587  0.00  0.00    +0.000 OA
ATOM     20  C   UNL     1       0.326  12.388  19.000  0.00  0.00    +0.000 C 
ATOM     21  C   UNL     1      -0.698  13.273  20.086  0.00  0.00    +0.000 C 
ATOM     22  O   UNL     1      -0.305  14.274  20.732  0.00  0.00    +0.000 OA
ENDROOT
BRANCH   1  24
ATOM     23  N   UNL     1      -4.040  12.455  21.797  0.00  0.00    +0.000 NA
ATOM     24  C   UNL     1      -3.510  13.390  21.018  0.00  0.00    +0.000 C 
ATOM     25  C   UNL     1      -4.235  14.670  20.660  0.00  0.00    +0.000 C 
BRANCH  23  29
ATOM     26  C   UNL     1      -7.189  12.606  23.808  0.00  0.00    +0.000 C 
ATOM     27  C   UNL     1      -5.752  12.858  23.403  0.00  0.00    +0.000 C 
ATOM     28  O   UNL     1      -4.961  13.386  24.185  0.00  0.00    +0.000 OA
ATOM     29  N   UNL     1      -5.387  12.381  22.133  0.00  0.00    +0.000 N 
ATOM     30  H   UNL     1      -5.959  11.635  21.749  0.00  0.00    +0.000 HD
ENDBRANCH  23  29
ENDBRANCH   1  24
BRANCH   3  31
ATOM     31  N   UNL     1      -1.750  12.330  17.161  0.00  0.00    +0.000 NA
ATOM     32  H   UNL     1      -1.791  13.305  17.438  0.00  0.00    +0.000 HD
ATOM     33  H   UNL     1      -2.443  12.191  16.431  0.00  0.00    +0.000 HD
ENDBRANCH   3  31
BRANCH   2  34
ATOM     34  O   UNL     1      -4.057  11.632  19.121  0.00  0.00    +0.000 OA
ATOM     35  H   UNL     1      -4.058  10.664  19.320  0.00  0.00    +0.000 HD
ENDBRANCH   2  34
BRANCH   8  36
ATOM     36  O   UNL     1       2.894   8.837  17.349  0.00  0.00    +0.000 OA
ATOM     37  H   UNL     1       3.087   9.784  17.171  0.00  0.00    +0.000 HD
ENDBRANCH   8  36
BRANCH  10  38
ATOM     38  O   UNL     1       3.470   6.151  17.439  0.00  0.00    +0.000 OA
ATOM     39  H   UNL     1       3.582   5.216  17.177  0.00  0.00    +0.000 HD
ENDBRANCH  10  38
BRANCH  20  40
ATOM     40  O   UNL     1       1.462  12.643  20.015  0.00  0.00    +0.000 OA
ATOM     41  H   UNL     1       2.093  13.241  19.555  0.00  0.00    +0.000 HD
ENDBRANCH  20  40
TORSDOF 7
ENDMDL
MODEL 2
REMARK VINA RESULT:      -7.1      1.260      1.397
REMARK  Name = 
REMARK  11 active torsions:
REMARK  status: ('A' for Active; 'I' for Inactive)
REMARK    1  A    between atoms: C_1  and  C_2
REMARK    2  A    between atoms: N_4  and  N_5
REMARK    3  A    between atoms: C_6  and  C_7
REMARK    4  A    between atoms: C_6  and  C_8
REMARK    5  A    between atoms: C_9  and  O_10
REMARK    6  A    between atoms: C_11  and  N_12
REMARK    7  A    between atoms: C_17  and  O_18
REMARK    8  A    between atoms: C_20  and  O_21
REMARK    9  A    between atoms: C_22  and  C_23
REMARK   10  A    between atoms: C_27  and  C_28
REMARK   11  A    between atoms: C_31  and  O_32
REMARK                            x       y       z     vdW  Elec       q    Type
REMARK                         _______ _______ _______ _____ _____    ______ ____
ROOT
ATOM      1  C   UNL     1      -2.565  12.734  20.107  0.00  0.00    +0.000 C 
ATOM      2  C   UNL     1      -2.952  11.886  19.136  0.00  0.00    +0.000 C 
ATOM      3  C   UNL     1      -1.977  11.333  18.228  0.00  0.00    +0.000 C 
ATOM      4  C   UNL     1      -0.691  11.082  18.975  0.00  0.00    +0.000 C 
ATOM      5  C   UNL     1      -0.525  10.448  20.381  0.00  0.00    +0.000 C 
ATOM      6  C   UNL     1       0.691   9.562  20.215  0.00  0.00    +0.000 A 
ATOM      7  C   UNL     1       1.594   9.931  19.207  0.00  0.00    +0.000 A 
ATOM      8  C   UNL     1       2.316   8.851  18.625  0.00  0.00    +0.000 A 
ATOM      9  C   UNL     1       2.298   7.486  19.167  0.00  0.00    +0.000 A 
ATOM     10  C   UNL     1       2.957   6.287  18.639  0.00  0.00    +0.000 A 
ATOM     11  C   UNL     1       2.888   5.004  19.242  0.00  0.00    +0.000 A 
ATOM     12  C   UNL     1       3.568   3.759  18.744  0.00  0.00    +0.000 C 
ATOM     13  C   UNL     1       2.132   4.869  20.392  0.00  0.00    +0.000 A 
ATOM     14  C   UNL     1       1.454   5.963  20.915  0.00  0.00    +0.000 A 
ATOM     15  C   UNL     1       1.515   7.269  20.331  0.00  0.00    +0.000 A 
ATOM     16  C   UNL     1       0.738   8.319  20.873  0.00  0.00    +0.000 A 
ATOM     17  C   UNL     1      -0.167   8.142  22.067  0.00  0.00    +0.000 C 
ATOM     18  C   UNL     1       1.400  11.429  18.626  0.00  0.00    +0.000 C 
ATOM     19  O   UNL     1       2.133  11.729  17.668  0.00  0.00    +0.000 OA
ATOM     20  C   UNL     1       0.118  12.369  19.009  0.00  0.00    +0.000 C 
ATOM     21  C   UNL     1      -1.002  13.170  20.066  0.00  0.00    +0.000 C 
ATOM     22  O   UNL     1      -0.696  14.176  20.749  0.00  0.00    +0.000 OA
ENDROOT
BRANCH   1  24
ATOM     23  N   UNL     1      -4.729  13.816  20.174  0.00  0.00    +0.000 NA
ATOM     24  C   UNL     1      -3.854  13.105  20.874  0.00  0.00    +0.000 C 
ATOM     25  C   UNL     1      -3.918  12.975  22.381  0.00  0.00    +0.000 C 
BRANCH  23  29
ATOM     26  C   UNL     1      -7.915  15.475  21.214  0.00  0.00    +0.000 C 
ATOM     27  C   UNL     1      -6.963  14.382  20.774  0.00  0.00    +0.000 C 
ATOM     28  O   UNL     1      -7.387  13.280  20.427  0.00  0.00    +0.000 OA
ATOM     29  N   UNL     1      -5.607  14.745  20.723  0.00  0.00    +0.000 N 
ATOM     30  H   UNL     1      -5.407  15.736  20.634  0.00  0.00    +0.000 HD
ENDBRANCH  23  29
ENDBRANCH   1  24
BRANCH   3  31
ATOM     31  N   UNL     1      -1.869  12.234  17.078  0.00  0.00    +0.000 NA
ATOM     32  H   UNL     1      -1.068  11.986  16.507  0.00  0.00    +0.000 HD
ATOM     33  H   UNL     1      -1.798  13.226  17.288  0.00  0.00    +0.000 HD
ENDBRANCH   3  31
BRANCH   2  34
ATOM     34  O   UNL     1      -4.215  11.362  18.919  0.00  0.00    +0.000 OA
ATOM     35  H   UNL     1      -4.827  12.121  18.758  0.00  0.00    +0.000 HD
ENDBRANCH   2  34
BRANCH   8  36
ATOM     36  O   UNL     1       2.956   9.007  17.404  0.00  0.00    +0.000 OA
ATOM     37  H   UNL     1       3.644   9.702  17.504  0.00  0.00    +0.000 HD
ENDBRANCH   8  36
BRANCH  10  38
ATOM     38  O   UNL     1       3.682   6.358  17.466  0.00  0.00    +0.000 OA
ATOM     39  H   UNL     1       3.531   7.250  17.097  0.00  0.00    +0.000 HD
ENDBRANCH  10  38
BRANCH  20  40
ATOM     40  O   UNL     1       1.191  12.665  20.079  0.00  0.00    +0.000 OA
ATOM     41  H   UNL     1       1.984  12.154  19.801  0.00  0.00    +0.000 HD
ENDBRANCH  20  40
TORSDOF 7
ENDMDL
MODEL 3
REMARK VINA RESULT:      -7.0      1.085      1.085
REMARK  Name = 
REMARK  11 active torsions:
REMARK  status: ('A' for Active; 'I' for Inactive)
REMARK    1  A    between atoms: C_1  and  C_2
REMARK    2  A    between atoms: N_4  and  N_5
REMARK    3  A    between atoms: C_6  and  C_7
REMARK    4  A    between atoms: C_6  and  C_8
REMARK    5  A    between atoms: C_9  and  O_10
REMARK    6  A    between atoms: C_11  and  N_12
REMARK    7  A    between atoms: C_17  and  O_18
REMARK    8  A    between atoms: C_20  and  O_21
REMARK    9  A    between atoms: C_22  and  C_23
REMARK   10  A    between atoms: C_27  and  C_28
REMARK   11  A    between atoms: C_31  and  O_32
REMARK                            x       y       z     vdW  Elec       q    Type
REMARK                         _______ _______ _______ _____ _____    ______ ____
ROOT
ATOM      1  C   UNL     1      -1.995  13.096  20.058  0.00  0.00    +0.000 C 
ATOM      2  C   UNL     1      -2.547  12.235  19.181  0.00  0.00    +0.000 C 
ATOM      3  C   UNL     1      -1.711  11.521  18.247  0.00  0.00    +0.000 C 
ATOM      4  C   UNL     1      -0.403  11.176  18.917  0.00  0.00    +0.000 C 
ATOM      5  C   UNL     1      -0.195  10.618  20.349  0.00  0.00    +0.000 C 
ATOM      6  C   UNL     1       0.902   9.593  20.161  0.00  0.00    +0.000 A 
ATOM      7  C   UNL     1       1.756   9.794  19.066  0.00  0.00    +0.000 A 
ATOM      8  C   UNL     1       2.311   8.605  18.514  0.00  0.00    +0.000 A 
ATOM      9  C   UNL     1       2.192   7.288  19.153  0.00  0.00    +0.000 A 
ATOM     10  C   UNL     1       2.675   5.992  18.668  0.00  0.00    +0.000 A 
ATOM     11  C   UNL     1       2.518   4.765  19.365  0.00  0.00    +0.000 A 
ATOM     12  C   UNL     1       3.020   3.424  18.911  0.00  0.00    +0.000 C 
ATOM     13  C   UNL     1       1.845   4.790  20.573  0.00  0.00    +0.000 A 
ATOM     14  C   UNL     1       1.331   5.984  21.062  0.00  0.00    +0.000 A 
ATOM     15  C   UNL     1       1.484   7.235  20.383  0.00  0.00    +0.000 A 
ATOM     16  C   UNL     1       0.869   8.398  20.902  0.00  0.00    +0.000 A 
ATOM     17  C   UNL     1       0.048   8.399  22.168  0.00  0.00    +0.000 C 
ATOM     18  C   UNL     1       1.678  11.264  18.395  0.00  0.00    +0.000 C 
ATOM     19  O   UNL     1       2.361  11.418  17.368  0.00  0.00    +0.000 OA
ATOM     20  C   UNL     1       0.538  12.364  18.800  0.00  0.00    +0.000 C 
ATOM     21  C   UNL     1      -0.403  13.350  19.873  0.00  0.00    +0.000 C 
ATOM     22  O   UNL     1       0.061  14.358  20.458  0.00  0.00    +0.000 OA
ENDROOT
BRANCH   1  24
ATOM     23  N   UNL     1      -4.092  12.759  21.220  0.00  0.00    +0.000 NA
ATOM     24  C   UNL     1      -3.173  13.657  20.886  0.00  0.00    +0.000 C 
ATOM     25  C   UNL     1      -3.412  15.150  20.972  0.00  0.00    +0.000 C 
BRANCH  23  29
ATOM     26  C   UNL     1      -7.815  12.484  21.008  0.00  0.00    +0.000 C 
ATOM     27  C   UNL     1      -6.358  12.074  20.960  0.00  0.00    +0.000 C 
ATOM     28  O   UNL     1      -6.026  10.983  20.498  0.00  0.00    +0.000 OA
ATOM     29  N   UNL     1      -5.441  13.044  21.399  0.00  0.00    +0.000 N 
ATOM     30  H   UNL     1      -5.757  14.009  21.374  0.00  0.00    +0.000 HD
ENDBRANCH  23  29
ENDBRANCH   1  24
BRANCH   3  31
ATOM     31  N   UNL     1      -1.599  12.328  17.031  0.00  0.00    +0.000 NA
ATOM     32  H   UNL     1      -2.235  11.985  16.318  0.00  0.00    +0.000 HD
ATOM     33  H   UNL     1      -0.675  12.388  16.612  0.00  0.00    +0.000 HD
ENDBRANCH   3  31
BRANCH   2  34
ATOM     34  O   UNL     1      -3.871  11.843  19.093  0.00  0.00    +0.000 OA
ATOM     35  H   UNL     1      -3.992  11.069  19.694  0.00  0.00    +0.000 HD
ENDBRANCH   2  34
BRANCH   8  36
ATOM     36  O   UNL     1       2.866   8.611  17.242  0.00  0.00    +0.000 OA
ATOM     37  H   UNL     1       2.914   7.682  16.923  0.00  0.00    +0.000 HD
ENDBRANCH   8  36
BRANCH  10  38
ATOM     38  O   UNL     1       3.308   5.906  17.444  0.00  0.00    +0.000 OA
ATOM     39  H   UNL     1       3.469   6.823  17.147  0.00  0.00    +0.000 HD
ENDBRANCH  10  38
BRANCH  20  40
ATOM     40  O   UNL     1       1.718  12.606  19.765  0.00  0.00    +0.000 OA
ATOM     41  H   UNL     1       2.283  11.805  19.693  0.00  0.00    +0.000 HD
ENDBRANCH  20  40
TORSDOF 7
ENDMDL
MODEL 4
REMARK VINA RESULT:      -7.0      1.276      1.603
REMARK  Name = 
REMARK  11 active torsions:
REMARK  status: ('A' for Active; 'I' for Inactive)
REMARK    1  A    between atoms: C_1  and  C_2
REMARK    2  A    between atoms: N_4  and  N_5
REMARK    3  A    between atoms: C_6  and  C_7
REMARK    4  A    between atoms: C_6  and  C_8
REMARK    5  A    between atoms: C_9  and  O_10
REMARK    6  A    between atoms: C_11  and  N_12
REMARK    7  A    between atoms: C_17  and  O_18
REMARK    8  A    between atoms: C_20  and  O_21
REMARK    9  A    between atoms: C_22  and  C_23
REMARK   10  A    between atoms: C_27  and  C_28
REMARK   11  A    between atoms: C_31  and  O_32
REMARK                            x       y       z     vdW  Elec       q    Type
REMARK                         _______ _______ _______ _____ _____    ______ ____
ROOT
ATOM      1  C   UNL     1      -2.392  12.790  20.121  0.00  0.00    +0.000 C 
ATOM      2  C   UNL     1      -2.827  11.944  19.168  0.00  0.00    +0.000 C 
ATOM      3  C   UNL     1      -1.889  11.349  18.248  0.00  0.00    +0.000 C 
ATOM      4  C   UNL     1      -0.597  11.063  18.972  0.00  0.00    +0.000 C 
ATOM      5  C   UNL     1      -0.424  10.439  20.381  0.00  0.00    +0.000 C 
ATOM      6  C   UNL     1       0.758   9.511  20.202  0.00  0.00    +0.000 A 
ATOM      7  C   UNL     1       1.652   9.839  19.172  0.00  0.00    +0.000 A 
ATOM      8  C   UNL     1       2.326   8.728  18.588  0.00  0.00    +0.000 A 
ATOM      9  C   UNL     1       2.274   7.371  19.147  0.00  0.00    +0.000 A 
ATOM     10  C   UNL     1       2.881   6.145  18.620  0.00  0.00    +0.000 A 
ATOM     11  C   UNL     1       2.782   4.871  19.240  0.00  0.00    +0.000 A 
ATOM     12  C   UNL     1       3.410   3.599  18.743  0.00  0.00    +0.000 C 
ATOM     13  C   UNL     1       2.045   4.775  20.406  0.00  0.00    +0.000 A 
ATOM     14  C   UNL     1       1.414   5.897  20.929  0.00  0.00    +0.000 A 
ATOM     15  C   UNL     1       1.507   7.194  20.329  0.00  0.00    +0.000 A 
ATOM     16  C   UNL     1       0.777   8.275  20.873  0.00  0.00    +0.000 A 
ATOM     17  C   UNL     1      -0.109   8.142  22.087  0.00  0.00    +0.000 C 
ATOM     18  C   UNL     1       1.497  11.336  18.578  0.00  0.00    +0.000 C 
ATOM     19  O   UNL     1       2.220  11.600  17.602  0.00  0.00    +0.000 OA
ATOM     20  C   UNL     1       0.255  12.322  18.975  0.00  0.00    +0.000 C 
ATOM     21  C   UNL     1      -0.816  13.172  20.044  0.00  0.00    +0.000 C 
ATOM     22  O   UNL     1      -0.464  14.175  20.709  0.00  0.00    +0.000 OA
ENDROOT
BRANCH   1  24
ATOM     23  N   UNL     1      -4.280  14.274  20.420  0.00  0.00    +0.000 NA
ATOM     24  C   UNL     1      -3.652  13.213  20.909  0.00  0.00    +0.000 C 
ATOM     25  C   UNL     1      -3.905  12.677  22.302  0.00  0.00    +0.000 C 
BRANCH  23  29
ATOM     26  C   UNL     1      -5.071  17.205  22.605  0.00  0.00    +0.000 C 
ATOM     27  C   UNL     1      -4.314  16.324  21.633  0.00  0.00    +0.000 C 
ATOM     28  O   UNL     1      -3.149  16.581  21.327  0.00  0.00    +0.000 OA
ATOM     29  N   UNL     1      -5.002  15.184  21.186  0.00  0.00    +0.000 N 
ATOM     30  H   UNL     1      -5.758  14.851  21.777  0.00  0.00    +0.000 HD
ENDBRANCH  23  29
ENDBRANCH   1  24
BRANCH   3  31
ATOM     31  N   UNL     1      -1.775  12.233  17.085  0.00  0.00    +0.000 NA
ATOM     32  H   UNL     1      -2.045  13.180  17.332  0.00  0.00    +0.000 HD
ATOM     33  H   UNL     1      -2.310  11.968  16.263  0.00  0.00    +0.000 HD
ENDBRANCH   3  31
BRANCH   2  34
ATOM     34  O   UNL     1      -4.111  11.461  18.982  0.00  0.00    +0.000 OA
ATOM     35  H   UNL     1      -4.045  10.655  18.415  0.00  0.00    +0.000 HD
ENDBRANCH   2  34
BRANCH   8  36
ATOM     36  O   UNL     1       2.946   8.850  17.353  0.00  0.00    +0.000 OA
ATOM     37  H   UNL     1       2.248   8.924  16.665  0.00  0.00    +0.000 HD
ENDBRANCH   8  36
BRANCH  10  38
ATOM     38  O   UNL     1       3.584   6.178  17.432  0.00  0.00    +0.000 OA
ATOM     39  H   UNL     1       4.104   7.006  17.437  0.00  0.00    +0.000 HD
ENDBRANCH  10  38
BRANCH  20  40
ATOM     40  O   UNL     1       1.359  12.594  20.019  0.00  0.00    +0.000 OA
ATOM     41  H   UNL     1       1.106  13.440  20.452  0.00  0.00    +0.000 HD
ENDBRANCH  20  40
TORSDOF 7
ENDMDL
MODEL 5
REMARK VINA RESULT:      -6.7      2.896      8.408
REMARK  Name = 
REMARK  11 active torsions:
REMARK  status: ('A' for Active; 'I' for Inactive)
REMARK    1  A    between atoms: C_1  and  C_2
REMARK    2  A    between atoms: N_4  and  N_5
REMARK    3  A    between atoms: C_6  and  C_7
REMARK    4  A    between atoms: C_6  and  C_8
REMARK    5  A    between atoms: C_9  and  O_10
REMARK    6  A    between atoms: C_11  and  N_12
REMARK    7  A    between atoms: C_17  and  O_18
REMARK    8  A    between atoms: C_20  and  O_21
REMARK    9  A    between atoms: C_22  and  C_23
REMARK   10  A    between atoms: C_27  and  C_28
REMARK   11  A    between atoms: C_31  and  O_32
REMARK                            x       y       z     vdW  Elec       q    Type
REMARK                         _______ _______ _______ _____ _____    ______ ____
ROOT
ATOM      1  C   UNL     1       1.978   8.781  18.747  0.00  0.00    +0.000 C 
ATOM      2  C   UNL     1       1.390   8.441  19.909  0.00  0.00    +0.000 C 
ATOM      3  C   UNL     1       0.757   9.451  20.722  0.00  0.00    +0.000 C 
ATOM      4  C   UNL     1       0.108  10.474  19.823  0.00  0.00    +0.000 C 
ATOM      5  C   UNL     1      -0.739  10.211  18.552  0.00  0.00    +0.000 C 
ATOM      6  C   UNL     1      -1.854  11.228  18.666  0.00  0.00    +0.000 A 
ATOM      7  C   UNL     1      -1.569  12.377  19.418  0.00  0.00    +0.000 A 
ATOM      8  C   UNL     1      -2.696  12.970  20.056  0.00  0.00    +0.000 A 
ATOM      9  C   UNL     1      -4.080  12.563  19.784  0.00  0.00    +0.000 A 
ATOM     10  C   UNL     1      -5.314  13.059  20.402  0.00  0.00    +0.000 A 
ATOM     11  C   UNL     1      -6.617  12.606  20.066  0.00  0.00    +0.000 A 
ATOM     12  C   UNL     1      -7.903  13.108  20.659  0.00  0.00    +0.000 C 
ATOM     13  C   UNL     1      -6.730  11.616  19.108  0.00  0.00    +0.000 A 
ATOM     14  C   UNL     1      -5.592  11.080  18.518  0.00  0.00    +0.000 A 
ATOM     15  C   UNL     1      -4.268  11.526  18.832  0.00  0.00    +0.000 A 
ATOM     16  C   UNL     1      -3.152  10.884  18.249  0.00  0.00    +0.000 A 
ATOM     17  C   UNL     1      -3.278   9.733  17.281  0.00  0.00    +0.000 C 
ATOM     18  C   UNL     1      -0.001  12.618  19.738  0.00  0.00    +0.000 C 
ATOM     19  O   UNL     1       0.250  13.580  20.484  0.00  0.00    +0.000 OA
ATOM     20  C   UNL     1       1.150  11.503  19.415  0.00  0.00    +0.000 C 
ATOM     21  C   UNL     1       2.035  10.373  18.438  0.00  0.00    +0.000 C 
ATOM     22  O   UNL     1       2.835  10.728  17.540  0.00  0.00    +0.000 OA
ENDROOT
BRANCH   1  24
ATOM     23  N   UNL     1       1.924   6.367  18.594  0.00  0.00    +0.000 NA
ATOM     24  C   UNL     1       2.530   7.464  18.159  0.00  0.00    +0.000 C 
ATOM     25  C   UNL     1       3.868   7.438  17.448  0.00  0.00    +0.000 C 
BRANCH  23  29
ATOM     26  C   UNL     1       2.572   2.697  18.278  0.00  0.00    +0.000 C 
ATOM     27  C   UNL     1       1.993   4.065  17.984  0.00  0.00    +0.000 C 
ATOM     28  O   UNL     1       1.059   4.196  17.194  0.00  0.00    +0.000 OA
ATOM     29  N   UNL     1       2.540   5.127  18.724  0.00  0.00    +0.000 N 
ATOM     30  H   UNL     1       2.992   4.882  19.601  0.00  0.00    +0.000 HD
ENDBRANCH  23  29
ENDBRANCH   1  24
BRANCH   3  31
ATOM     31  N   UNL     1       1.760   9.977  21.651  0.00  0.00    +0.000 NA
ATOM     32  H   UNL     1       1.549  10.940  21.892  0.00  0.00    +0.000 HD
ATOM     33  H   UNL     1       2.726   9.946  21.336  0.00  0.00    +0.000 HD
ENDBRANCH   3  31
BRANCH   2  34
ATOM     34  O   UNL     1       1.214   7.171  20.433  0.00  0.00    +0.000 OA
ATOM     35  H   UNL     1       1.332   6.527  19.694  0.00  0.00    +0.000 HD
ENDBRANCH   2  34
BRANCH   8  36
ATOM     36  O   UNL     1      -2.524  13.869  21.098  0.00  0.00    +0.000 OA
ATOM     37  H   UNL     1      -1.829  14.514  20.837  0.00  0.00    +0.000 HD
ENDBRANCH   8  36
BRANCH  10  38
ATOM     38  O   UNL     1      -5.252  14.011  21.400  0.00  0.00    +0.000 OA
ATOM     39  H   UNL     1      -4.737  13.617  22.132  0.00  0.00    +0.000 HD
ENDBRANCH  10  38
BRANCH  20  40
ATOM     40  O   UNL     1       1.033  12.367  18.141  0.00  0.00    +0.000 OA
ATOM     41  H   UNL     1       0.142  12.781  18.189  0.00  0.00    +0.000 HD
ENDBRANCH  20  40
TORSDOF 7
ENDMDL
MODEL 6
REMARK VINA RESULT:      -6.7      2.203      2.718
REMARK  Name = 
REMARK  11 active torsions:
REMARK  status: ('A' for Active; 'I' for Inactive)
REMARK    1  A    between atoms: C_1  and  C_2
REMARK    2  A    between atoms: N_4  and  N_5
REMARK    3  A    between atoms: C_6  and  C_7
REMARK    4  A    between atoms: C_6  and  C_8
REMARK    5  A    between atoms: C_9  and  O_10
REMARK    6  A    between atoms: C_11  and  N_12
REMARK    7  A    between atoms: C_17  and  O_18
REMARK    8  A    between atoms: C_20  and  O_21
REMARK    9  A    between atoms: C_22  and  C_23
REMARK   10  A    between atoms: C_27  and  C_28
REMARK   11  A    between atoms: C_31  and  O_32
REMARK                            x       y       z     vdW  Elec       q    Type
REMARK                         _______ _______ _______ _____ _____    ______ ____
ROOT
ATOM      1  C   UNL     1      -2.999  13.803  22.395  0.00  0.00    +0.000 C 
ATOM      2  C   UNL     1      -3.671  12.937  21.614  0.00  0.00    +0.000 C 
ATOM      3  C   UNL     1      -3.081  12.465  20.385  0.00  0.00    +0.000 C 
ATOM      4  C   UNL     1      -1.594  12.302  20.580  0.00  0.00    +0.000 C 
ATOM      5  C   UNL     1      -0.866  11.669  21.794  0.00  0.00    +0.000 C 
ATOM      6  C   UNL     1       0.250  10.876  21.149  0.00  0.00    +0.000 A 
ATOM      7  C   UNL     1       0.676  11.319  19.888  0.00  0.00    +0.000 A 
ATOM      8  C   UNL     1       1.191  10.299  19.038  0.00  0.00    +0.000 A 
ATOM      9  C   UNL     1       1.468   8.932  19.497  0.00  0.00    +0.000 A 
ATOM     10  C   UNL     1       1.953   7.789  18.717  0.00  0.00    +0.000 A 
ATOM     11  C   UNL     1       2.201   6.499  19.255  0.00  0.00    +0.000 A 
ATOM     12  C   UNL     1       2.719   5.312  18.492  0.00  0.00    +0.000 C 
ATOM     13  C   UNL     1       1.949   6.300  20.600  0.00  0.00    +0.000 A 
ATOM     14  C   UNL     1       1.452   7.337  21.379  0.00  0.00    +0.000 A 
ATOM     15  C   UNL     1       1.202   8.649  20.863  0.00  0.00    +0.000 A 
ATOM     16  C   UNL     1       0.624   9.635  21.695  0.00  0.00    +0.000 A 
ATOM     17  C   UNL     1       0.254   9.382  23.136  0.00  0.00    +0.000 C 
ATOM     18  C   UNL     1       0.180  12.804  19.478  0.00  0.00    +0.000 C 
ATOM     19  O   UNL     1       0.473  13.164  18.325  0.00  0.00    +0.000 OA
ATOM     20  C   UNL     1      -0.917  13.644  20.351  0.00  0.00    +0.000 C 
ATOM     21  C   UNL     1      -1.601  14.351  21.781  0.00  0.00    +0.000 C 
ATOM     22  O   UNL     1      -1.124  15.372  22.333  0.00  0.00    +0.000 OA
ENDROOT
BRANCH   1  24
ATOM     23  N   UNL     1      -4.789  15.060  23.431  0.00  0.00    +0.000 NA
ATOM     24  C   UNL     1      -3.921  14.072  23.606  0.00  0.00    +0.000 C 
ATOM     25  C   UNL     1      -3.591  13.497  24.967  0.00  0.00    +0.000 C 
BRANCH  23  29
ATOM     26  C   UNL     1      -5.297  18.052  25.617  0.00  0.00    +0.000 C 
ATOM     27  C   UNL     1      -4.905  17.230  24.407  0.00  0.00    +0.000 C 
ATOM     28  O   UNL     1      -4.251  17.730  23.491  0.00  0.00    +0.000 OA
ATOM     29  N   UNL     1      -5.270  15.874  24.451  0.00  0.00    +0.000 N 
ATOM     30  H   UNL     1      -5.431  15.479  25.373  0.00  0.00    +0.000 HD
ENDBRANCH  23  29
ENDBRANCH   1  24
BRANCH   3  31
ATOM     31  N   UNL     1      -3.477  13.381  19.313  0.00  0.00    +0.000 NA
ATOM     32  H   UNL     1      -2.742  14.060  19.137  0.00  0.00    +0.000 HD
ATOM     33  H   UNL     1      -4.340  13.897  19.457  0.00  0.00    +0.000 HD
ENDBRANCH   3  31
BRANCH   2  34
ATOM     34  O   UNL     1      -4.885  12.324  21.872  0.00  0.00    +0.000 OA
ATOM     35  H   UNL     1      -5.576  12.805  21.355  0.00  0.00    +0.000 HD
ENDBRANCH   2  34
BRANCH   8  36
ATOM     36  O   UNL     1       1.307  10.513  17.672  0.00  0.00    +0.000 OA
ATOM     37  H   UNL     1       0.756  11.292  17.434  0.00  0.00    +0.000 HD
ENDBRANCH   8  36
BRANCH  10  38
ATOM     38  O   UNL     1       2.171   7.923  17.360  0.00  0.00    +0.000 OA
ATOM     39  H   UNL     1       1.335   8.249  16.973  0.00  0.00    +0.000 HD
ENDBRANCH  10  38
BRANCH  20  40
ATOM     40  O   UNL     1       0.460  14.009  20.945  0.00  0.00    +0.000 OA
ATOM     41  H   UNL     1       0.665  13.293  21.587  0.00  0.00    +0.000 HD
ENDBRANCH  20  40
TORSDOF 7
ENDMDL
MODEL 7
REMARK VINA RESULT:      -6.5      1.717      2.261
REMARK  Name = 
REMARK  11 active torsions:
REMARK  status: ('A' for Active; 'I' for Inactive)
REMARK    1  A    between atoms: C_1  and  C_2
REMARK    2  A    between atoms: N_4  and  N_5
REMARK    3  A    between atoms: C_6  and  C_7
REMARK    4  A    between atoms: C_6  and  C_8
REMARK    5  A    between atoms: C_9  and  O_10
REMARK    6  A    between atoms: C_11  and  N_12
REMARK    7  A    between atoms: C_17  and  O_18
REMARK    8  A    between atoms: C_20  and  O_21
REMARK    9  A    between atoms: C_22  and  C_23
REMARK   10  A    between atoms: C_27  and  C_28
REMARK   11  A    between atoms: C_31  and  O_32
REMARK                            x       y       z     vdW  Elec       q    Type
REMARK                         _______ _______ _______ _____ _____    ______ ____
ROOT
ATOM      1  C   UNL     1      -2.519  13.477  22.849  0.00  0.00    +0.000 C 
ATOM      2  C   UNL     1      -3.177  12.856  21.852  0.00  0.00    +0.000 C 
ATOM      3  C   UNL     1      -2.509  12.591  20.601  0.00  0.00    +0.000 C 
ATOM      4  C   UNL     1      -1.065  12.249  20.874  0.00  0.00    +0.000 C 
ATOM      5  C   UNL     1      -0.509  11.315  21.980  0.00  0.00    +0.000 C 
ATOM      6  C   UNL     1       0.599  10.567  21.271  0.00  0.00    +0.000 A 
ATOM      7  C   UNL     1       1.178  11.214  20.170  0.00  0.00    +0.000 A 
ATOM      8  C   UNL     1       1.692  10.345  19.167  0.00  0.00    +0.000 A 
ATOM      9  C   UNL     1       1.817   8.893  19.347  0.00  0.00    +0.000 A 
ATOM     10  C   UNL     1       2.284   7.891  18.383  0.00  0.00    +0.000 A 
ATOM     11  C   UNL     1       2.379   6.501  18.654  0.00  0.00    +0.000 A 
ATOM     12  C   UNL     1       2.875   5.450  17.701  0.00  0.00    +0.000 C 
ATOM     13  C   UNL     1       1.983   6.057  19.902  0.00  0.00    +0.000 A 
ATOM     14  C   UNL     1       1.494   6.956  20.841  0.00  0.00    +0.000 A 
ATOM     15  C   UNL     1       1.398   8.364  20.597  0.00  0.00    +0.000 A 
ATOM     16  C   UNL     1       0.820   9.210  21.570  0.00  0.00    +0.000 A 
ATOM     17  C   UNL     1       0.294   8.705  22.892  0.00  0.00    +0.000 C 
ATOM     18  C   UNL     1       0.841  12.792  20.046  0.00  0.00    +0.000 C 
ATOM     19  O   UNL     1       1.271  13.350  19.022  0.00  0.00    +0.000 OA
ATOM     20  C   UNL     1      -0.268  13.538  20.988  0.00  0.00    +0.000 C 
ATOM     21  C   UNL     1      -1.029  14.002  22.477  0.00  0.00    +0.000 C 
ATOM     22  O   UNL     1      -0.530  14.838  23.268  0.00  0.00    +0.000 OA
ENDROOT
BRANCH   1  24
ATOM     23  N   UNL     1      -4.666  12.923  23.819  0.00  0.00    +0.000 NA
ATOM     24  C   UNL     1      -3.530  13.581  24.013  0.00  0.00    +0.000 C 
ATOM     25  C   UNL     1      -3.363  14.636  25.085  0.00  0.00    +0.000 C 
BRANCH  23  29
ATOM     26  C   UNL     1      -7.916  14.720  24.256  0.00  0.00    +0.000 C 
ATOM     27  C   UNL     1      -6.668  14.190  23.581  0.00  0.00    +0.000 C 
ATOM     28  O   UNL     1      -6.345  14.582  22.460  0.00  0.00    +0.000 OA
ATOM     29  N   UNL     1      -5.895  13.303  24.348  0.00  0.00    +0.000 N 
ATOM     30  H   UNL     1      -6.012  13.356  25.355  0.00  0.00    +0.000 HD
ENDBRANCH  23  29
ENDBRANCH   1  24
BRANCH   3  31
ATOM     31  N   UNL     1      -2.727  13.739  19.719  0.00  0.00    +0.000 NA
ATOM     32  H   UNL     1      -2.634  13.463  18.747  0.00  0.00    +0.000 HD
ATOM     33  H   UNL     1      -2.121  14.542  19.867  0.00  0.00    +0.000 HD
ENDBRANCH   3  31
BRANCH   2  34
ATOM     34  O   UNL     1      -4.455  12.324  21.878  0.00  0.00    +0.000 OA
ATOM     35  H   UNL     1      -4.529  11.693  21.122  0.00  0.00    +0.000 HD
ENDBRANCH   2  34
BRANCH   8  36
ATOM     36  O   UNL     1       1.956  10.820  17.891  0.00  0.00    +0.000 OA
ATOM     37  H   UNL     1       1.098  10.971  17.435  0.00  0.00    +0.000 HD
ENDBRANCH   8  36
BRANCH  10  38
ATOM     38  O   UNL     1       2.643   8.277  17.107  0.00  0.00    +0.000 OA
ATOM     39  H   UNL     1       3.150   9.108  17.197  0.00  0.00    +0.000 HD
ENDBRANCH  10  38
BRANCH  20  40
ATOM     40  O   UNL     1       1.070  13.640  21.751  0.00  0.00    +0.000 OA
ATOM     41  H   UNL     1       1.738  13.217  21.166  0.00  0.00    +0.000 HD
ENDBRANCH  20  40
TORSDOF 7
ENDMDL
MODEL 8
REMARK VINA RESULT:      -6.4      6.543      7.813
REMARK  Name = 
REMARK  11 active torsions:
REMARK  status: ('A' for Active; 'I' for Inactive)
REMARK    1  A    between atoms: C_1  and  C_2
REMARK    2  A    between atoms: N_4  and  N_5
REMARK    3  A    between atoms: C_6  and  C_7
REMARK    4  A    between atoms: C_6  and  C_8
REMARK    5  A    between atoms: C_9  and  O_10
REMARK    6  A    between atoms: C_11  and  N_12
REMARK    7  A    between atoms: C_17  and  O_18
REMARK    8  A    between atoms: C_20  and  O_21
REMARK    9  A    between atoms: C_22  and  C_23
REMARK   10  A    between atoms: C_27  and  C_28
REMARK   11  A    between atoms: C_31  and  O_32
REMARK                            x       y       z     vdW  Elec       q    Type
REMARK                         _______ _______ _______ _____ _____    ______ ____
ROOT
ATOM      1  C   UNL     1       2.203  15.910  20.039  0.00  0.00    +0.000 C 
ATOM      2  C   UNL     1       2.448  14.997  19.080  0.00  0.00    +0.000 C 
ATOM      3  C   UNL     1       3.660  15.076  18.301  0.00  0.00    +0.000 C 
ATOM      4  C   UNL     1       4.785  15.559  19.183  0.00  0.00    +0.000 C 
ATOM      5  C   UNL     1       5.113  15.104  20.629  0.00  0.00    +0.000 C 
ATOM      6  C   UNL     1       6.624  15.026  20.628  0.00  0.00    +0.000 A 
ATOM      7  C   UNL     1       7.286  15.838  19.696  0.00  0.00    +0.000 A 
ATOM      8  C   UNL     1       8.538  15.333  19.244  0.00  0.00    +0.000 A 
ATOM      9  C   UNL     1       9.205  14.174  19.852  0.00  0.00    +0.000 A 
ATOM     10  C   UNL     1      10.463  13.534  19.454  0.00  0.00    +0.000 A 
ATOM     11  C   UNL     1      11.036  12.415  20.113  0.00  0.00    +0.000 A 
ATOM     12  C   UNL     1      12.333  11.748  19.749  0.00  0.00    +0.000 C 
ATOM     13  C   UNL     1      10.353  11.878  21.188  0.00  0.00    +0.000 A 
ATOM     14  C   UNL     1       9.137  12.419  21.585  0.00  0.00    +0.000 A 
ATOM     15  C   UNL     1       8.542  13.553  20.944  0.00  0.00    +0.000 A 
ATOM     16  C   UNL     1       7.266  14.004  21.351  0.00  0.00    +0.000 A 
ATOM     17  C   UNL     1       6.477  13.350  22.459  0.00  0.00    +0.000 C 
ATOM     18  C   UNL     1       6.375  16.994  19.023  0.00  0.00    +0.000 C 
ATOM     19  O   UNL     1       6.928  17.655  18.127  0.00  0.00    +0.000 OA
ATOM     20  C   UNL     1       4.756  17.078  19.229  0.00  0.00    +0.000 C 
ATOM     21  C   UNL     1       3.272  17.128  20.129  0.00  0.00    +0.000 C 
ATOM     22  O   UNL     1       2.904  18.131  20.785  0.00  0.00    +0.000 OA
ENDROOT
BRANCH   1  24
ATOM     23  N   UNL     1       0.880  14.426  21.419  0.00  0.00    +0.000 NA
ATOM     24  C   UNL     1       0.844  15.510  20.656  0.00  0.00    +0.000 C 
ATOM     25  C   UNL     1      -0.446  16.098  20.123  0.00  0.00    +0.000 C 
BRANCH  23  29
ATOM     26  C   UNL     1      -1.900  12.508  23.026  0.00  0.00    +0.000 C 
ATOM     27  C   UNL     1      -0.866  13.594  22.809  0.00  0.00    +0.000 C 
ATOM     28  O   UNL     1      -0.617  14.412  23.695  0.00  0.00    +0.000 OA
ATOM     29  N   UNL     1      -0.181  13.542  21.583  0.00  0.00    +0.000 N 
ATOM     30  H   UNL     1      -0.160  12.642  21.115  0.00  0.00    +0.000 HD
ENDBRANCH  23  29
ENDBRANCH   1  24
BRANCH   3  31
ATOM     31  N   UNL     1       3.387  15.901  17.123  0.00  0.00    +0.000 NA
ATOM     32  H   UNL     1       4.253  16.145  16.653  0.00  0.00    +0.000 HD
ATOM     33  H   UNL     1       2.875  16.764  17.285  0.00  0.00    +0.000 HD
ENDBRANCH   3  31
BRANCH   2  34
ATOM     34  O   UNL     1       1.705  13.872  18.767  0.00  0.00    +0.000 OA
ATOM     35  H   UNL     1       0.955  14.162  18.194  0.00  0.00    +0.000 HD
ENDBRANCH   2  34
BRANCH   8  36
ATOM     36  O   UNL     1       9.120  15.826  18.086  0.00  0.00    +0.000 OA
ATOM     37  H   UNL     1       8.997  16.801  18.070  0.00  0.00    +0.000 HD
ENDBRANCH   8  36
BRANCH  10  38
ATOM     38  O   UNL     1      11.157  14.000  18.356  0.00  0.00    +0.000 OA
ATOM     39  H   UNL     1      12.020  13.541  18.354  0.00  0.00    +0.000 HD
ENDBRANCH  10  38
BRANCH  20  40
ATOM     40  O   UNL     1       5.370  17.901  20.382  0.00  0.00    +0.000 OA
ATOM     41  H   UNL     1       4.914  17.591  21.196  0.00  0.00    +0.000 HD
ENDBRANCH  20  40
TORSDOF 7
ENDMDL
MODEL 9
REMARK VINA RESULT:      -6.3      3.053      8.681
REMARK  Name = 
REMARK  11 active torsions:
REMARK  status: ('A' for Active; 'I' for Inactive)
REMARK    1  A    between atoms: C_1  and  C_2
REMARK    2  A    between atoms: N_4  and  N_5
REMARK    3  A    between atoms: C_6  and  C_7
REMARK    4  A    between atoms: C_6  and  C_8
REMARK    5  A    between atoms: C_9  and  O_10
REMARK    6  A    between atoms: C_11  and  N_12
REMARK    7  A    between atoms: C_17  and  O_18
REMARK    8  A    between atoms: C_20  and  O_21
REMARK    9  A    between atoms: C_22  and  C_23
REMARK   10  A    between atoms: C_27  and  C_28
REMARK   11  A    between atoms: C_31  and  O_32
REMARK                            x       y       z     vdW  Elec       q    Type
REMARK                         _______ _______ _______ _____ _____    ______ ____
ROOT
ATOM      1  C   UNL     1       1.879   8.637  18.978  0.00  0.00    +0.000 C 
ATOM      2  C   UNL     1       1.289   8.419  20.169  0.00  0.00    +0.000 C 
ATOM      3  C   UNL     1       0.679   9.514  20.883  0.00  0.00    +0.000 C 
ATOM      4  C   UNL     1       0.046  10.460  19.894  0.00  0.00    +0.000 C 
ATOM      5  C   UNL     1      -0.811  10.094  18.654  0.00  0.00    +0.000 C 
ATOM      6  C   UNL     1      -1.905  11.139  18.674  0.00  0.00    +0.000 A 
ATOM      7  C   UNL     1      -1.596  12.348  19.314  0.00  0.00    +0.000 A 
ATOM      8  C   UNL     1      -2.708  13.021  19.894  0.00  0.00    +0.000 A 
ATOM      9  C   UNL     1      -4.102  12.616  19.666  0.00  0.00    +0.000 A 
ATOM     10  C   UNL     1      -5.323  13.193  20.237  0.00  0.00    +0.000 A 
ATOM     11  C   UNL     1      -6.636  12.736  19.948  0.00  0.00    +0.000 A 
ATOM     12  C   UNL     1      -7.910  13.316  20.495  0.00  0.00    +0.000 C 
ATOM     13  C   UNL     1      -6.772  11.661  19.089  0.00  0.00    +0.000 A 
ATOM     14  C   UNL     1      -5.647  11.050  18.550  0.00  0.00    +0.000 A 
ATOM     15  C   UNL     1      -4.313  11.498  18.817  0.00  0.00    +0.000 A 
ATOM     16  C   UNL     1      -3.212  10.782  18.295  0.00  0.00    +0.000 A 
ATOM     17  C   UNL     1      -3.364   9.547  17.441  0.00  0.00    +0.000 C 
ATOM     18  C   UNL     1      -0.022  12.588  19.605  0.00  0.00    +0.000 C 
ATOM     19  O   UNL     1       0.250  13.611  20.256  0.00  0.00    +0.000 OA
ATOM     20  C   UNL     1       1.106  11.425  19.387  0.00  0.00    +0.000 C 
ATOM     21  C   UNL     1       1.965  10.191  18.520  0.00  0.00    +0.000 C 
ATOM     22  O   UNL     1       2.768  10.444  17.590  0.00  0.00    +0.000 OA
ENDROOT
BRANCH   1  24
ATOM     23  N   UNL     1       3.714   7.093  18.646  0.00  0.00    +0.000 NA
ATOM     24  C   UNL     1       2.404   7.259  18.516  0.00  0.00    +0.000 C 
ATOM     25  C   UNL     1       1.540   6.354  17.663  0.00  0.00    +0.000 C 
BRANCH  23  29
ATOM     26  C   UNL     1       6.363   4.706  17.522  0.00  0.00    +0.000 C 
ATOM     27  C   UNL     1       5.414   5.438  18.448  0.00  0.00    +0.000 C 
ATOM     28  O   UNL     1       5.515   5.325  19.669  0.00  0.00    +0.000 OA
ATOM     29  N   UNL     1       4.491   6.290  17.819  0.00  0.00    +0.000 N 
ATOM     30  H   UNL     1       4.738   6.618  16.890  0.00  0.00    +0.000 HD
ENDBRANCH  23  29
ENDBRANCH   1  24
BRANCH   3  31
ATOM     31  N   UNL     1       1.696  10.106  21.756  0.00  0.00    +0.000 NA
ATOM     32  H   UNL     1       1.505  11.092  21.905  0.00  0.00    +0.000 HD
ATOM     33  H   UNL     1       2.660  10.027  21.444  0.00  0.00    +0.000 HD
ENDBRANCH   3  31
BRANCH   2  34
ATOM     34  O   UNL     1       1.091   7.209  20.811  0.00  0.00    +0.000 OA
ATOM     35  H   UNL     1       1.468   7.291  21.721  0.00  0.00    +0.000 HD
ENDBRANCH   2  34
BRANCH   8  36
ATOM     36  O   UNL     1      -2.515  14.010  20.847  0.00  0.00    +0.000 OA
ATOM     37  H   UNL     1      -3.382  14.208  21.266  0.00  0.00    +0.000 HD
ENDBRANCH   8  36
BRANCH  10  38
ATOM     38  O   UNL     1      -5.238  14.234  21.140  0.00  0.00    +0.000 OA
ATOM     39  H   UNL     1      -4.383  14.134  21.603  0.00  0.00    +0.000 HD
ENDBRANCH  10  38
BRANCH  20  40
ATOM     40  O   UNL     1       1.000  12.166  18.037  0.00  0.00    +0.000 OA
ATOM     41  H   UNL     1       0.036  12.269  17.872  0.00  0.00    +0.000 HD
ENDBRANCH  20  40
TORSDOF 7
ENDMDL
