MODEL 1
REMARK VINA RESULT:      -8.0      0.000      0.000
REMARK  Name = 
REMARK  9 active torsions:
REMARK  status: ('A' for Active; 'I' for Inactive)
REMARK    1  A    between atoms: C_1  and  O_2
REMARK    2  A    between atoms: O_2  and  C_3
REMARK    3  A    between atoms: C_5  and  N_6
REMARK    4  A    between atoms: C_10  and  C_11
REMARK    5  A    between atoms: C_11  and  C_13
REMARK    6  A    between atoms: C_13  and  C_14
REMARK    7  A    between atoms: C_14  and  C_15
REMARK    8  A    between atoms: N_18  and  C_19
REMARK    9  A    between atoms: C_19  and  C_20
REMARK                            x       y       z     vdW  Elec       q    Type
REMARK                         _______ _______ _______ _____ _____    ______ ____
ROOT
ATOM      1  C   UNL     1       3.527   2.588  17.751  0.00  0.00    +0.000 C 
ENDROOT
BRANCH   1   2
ATOM      2  C   UNL     1       4.749   3.379  18.166  0.00  0.00    +0.000 C 
ATOM      3  O   UNL     1       5.087   3.471  19.344  0.00  0.00    +0.000 OA
BRANCH   2  10
ATOM      4  C   UNL     1       6.457   5.136  17.323  0.00  0.00    +0.000 A 
ATOM      5  C   UNL     1       7.196   5.659  16.249  0.00  0.00    +0.000 A 
ATOM      6  C   UNL     1       7.055   5.161  14.950  0.00  0.00    +0.000 A 
ATOM      7  C   UNL     1       6.213   4.057  14.750  0.00  0.00    +0.000 A 
ATOM      8 CL   UNL     1       6.050   3.350  13.180  0.00  0.00    +0.000 Cl
ATOM      9  C   UNL     1       5.475   3.518  15.804  0.00  0.00    +0.000 A 
ATOM     10  C   UNL     1       5.588   4.044  17.102  0.00  0.00    +0.000 A 
BRANCH   6  11
ATOM     11  N   UNL     1       7.926   5.625  13.948  0.00  0.00    +0.000 N 
ATOM     12  H   UNL     1       7.588   6.427  13.425  0.00  0.00    +0.000 HD
ATOM     13  H   UNL     1       8.269   4.878  13.345  0.00  0.00    +0.000 HD
ENDBRANCH   6  11
BRANCH   4  15
ATOM     14  C   UNL     1       7.928   5.779  19.101  0.00  0.00    +0.000 C 
ATOM     15  O   UNL     1       6.607   5.614  18.596  0.00  0.00    +0.000 OA
ENDBRANCH   4  15
ENDBRANCH   2  10
ENDBRANCH   1   2
BRANCH   1  16
ATOM     16  C   UNL     1       2.733   1.964  18.897  0.00  0.00    +0.000 C 
BRANCH  16  17
ATOM     17  C   UNL     1       1.336   2.617  19.033  0.00  0.00    +0.000 C 
ATOM     18  C   UNL     1       1.134   3.743  18.014  0.00  0.00    +0.000 C 
ATOM     19  C   UNL     1       1.948   4.996  18.354  0.00  0.00    +0.000 C 
ATOM     20  N   UNL     1       1.677   5.484  19.720  0.00  0.00    +0.000 NA
ATOM     21  C   UNL     1       1.899   4.430  20.722  0.00  0.00    +0.000 C 
ATOM     22  C   UNL     1       1.049   3.194  20.429  0.00  0.00    +0.000 C 
BRANCH  20  23
ATOM     23  C   UNL     1       2.517   6.655  20.047  0.00  0.00    +0.000 C 
BRANCH  23  24
ATOM     24  C   UNL     1       1.754   7.952  20.109  0.00  0.00    +0.000 A 
ATOM     25  C   UNL     1       1.087   8.359  21.268  0.00  0.00    +0.000 A 
ATOM     26  C   UNL     1       0.372   9.553  21.270  0.00  0.00    +0.000 A 
ATOM     27  C   UNL     1       0.353  10.307  20.106  0.00  0.00    +0.000 A 
ATOM     28  N   UNL     1       0.995   9.957  18.973  0.00  0.00    +0.000 NA
ATOM     29  C   UNL     1       1.677   8.789  19.000  0.00  0.00    +0.000 A 
ENDBRANCH  23  24
ENDBRANCH  20  23
ENDBRANCH  16  17
ENDBRANCH   1  16
TORSDOF 8
ENDMDL
MODEL 2
REMARK VINA RESULT:      -7.7      3.759      7.947
REMARK  Name = 
REMARK  9 active torsions:
REMARK  status: ('A' for Active; 'I' for Inactive)
REMARK    1  A    between atoms: C_1  and  O_2
REMARK    2  A    between atoms: O_2  and  C_3
REMARK    3  A    between atoms: C_5  and  N_6
REMARK    4  A    between atoms: C_10  and  C_11
REMARK    5  A    between atoms: C_11  and  C_13
REMARK    6  A    between atoms: C_13  and  C_14
REMARK    7  A    between atoms: C_14  and  C_15
REMARK    8  A    between atoms: N_18  and  C_19
REMARK    9  A    between atoms: C_19  and  C_20
REMARK                            x       y       z     vdW  Elec       q    Type
REMARK                         _______ _______ _______ _____ _____    ______ ____
ROOT
ATOM      1  C   UNL     1       1.796   8.359  18.909  0.00  0.00    +0.000 C 
ENDROOT
BRANCH   1   2
ATOM      2  C   UNL     1       1.505   9.681  18.232  0.00  0.00    +0.000 C 
ATOM      3  O   UNL     1       2.345  10.245  17.534  0.00  0.00    +0.000 OA
BRANCH   2  10
ATOM      4  C   UNL     1      -0.189  11.290  19.350  0.00  0.00    +0.000 A 
ATOM      5  C   UNL     1      -1.497  11.802  19.392  0.00  0.00    +0.000 A 
ATOM      6  C   UNL     1      -2.500  11.321  18.545  0.00  0.00    +0.000 A 
ATOM      7  C   UNL     1      -2.152  10.365  17.579  0.00  0.00    +0.000 A 
ATOM      8 CL   UNL     1      -3.330   9.781  16.456  0.00  0.00    +0.000 Cl
ATOM      9  C   UNL     1      -0.858   9.848  17.517  0.00  0.00    +0.000 A 
ATOM     10  C   UNL     1       0.140  10.304  18.394  0.00  0.00    +0.000 A 
BRANCH   6  11
ATOM     11  N   UNL     1      -3.747  11.972  18.532  0.00  0.00    +0.000 N 
ATOM     12  H   UNL     1      -4.227  11.960  17.638  0.00  0.00    +0.000 HD
ATOM     13  H   UNL     1      -3.712  12.901  18.949  0.00  0.00    +0.000 HD
ENDBRANCH   6  11
BRANCH   4  15
ATOM     14  C   UNL     1       0.407  12.494  21.334  0.00  0.00    +0.000 C 
ATOM     15  O   UNL     1       0.795  11.772  20.169  0.00  0.00    +0.000 OA
ENDBRANCH   4  15
ENDBRANCH   2  10
ENDBRANCH   1   2
BRANCH   1  16
ATOM     16  C   UNL     1       2.103   7.196  17.968  0.00  0.00    +0.000 C 
BRANCH  16  17
ATOM     17  C   UNL     1       1.885   5.833  18.668  0.00  0.00    +0.000 C 
ATOM     18  C   UNL     1       2.795   5.671  19.890  0.00  0.00    +0.000 C 
ATOM     19  C   UNL     1       4.260   5.437  19.503  0.00  0.00    +0.000 C 
ATOM     20  N   UNL     1       4.420   4.293  18.587  0.00  0.00    +0.000 NA
ATOM     21  C   UNL     1       3.583   4.443  17.386  0.00  0.00    +0.000 C 
ATOM     22  C   UNL     1       2.109   4.617  17.754  0.00  0.00    +0.000 C 
BRANCH  20  23
ATOM     23  C   UNL     1       5.832   4.125  18.181  0.00  0.00    +0.000 C 
BRANCH  23  24
ATOM     24  C   UNL     1       6.576   5.425  18.020  0.00  0.00    +0.000 A 
ATOM     25  C   UNL     1       7.562   5.825  18.926  0.00  0.00    +0.000 A 
ATOM     26  C   UNL     1       8.205   7.048  18.751  0.00  0.00    +0.000 A 
ATOM     27  C   UNL     1       7.840   7.829  17.664  0.00  0.00    +0.000 A 
ATOM     28  N   UNL     1       6.905   7.472  16.761  0.00  0.00    +0.000 NA
ATOM     29  C   UNL     1       6.295   6.281  16.960  0.00  0.00    +0.000 A 
ENDBRANCH  23  24
ENDBRANCH  20  23
ENDBRANCH  16  17
ENDBRANCH   1  16
TORSDOF 8
ENDMDL
MODEL 3
REMARK VINA RESULT:      -7.7      1.378      2.679
REMARK  Name = 
REMARK  9 active torsions:
REMARK  status: ('A' for Active; 'I' for Inactive)
REMARK    1  A    between atoms: C_1  and  O_2
REMARK    2  A    between atoms: O_2  and  C_3
REMARK    3  A    between atoms: C_5  and  N_6
REMARK    4  A    between atoms: C_10  and  C_11
REMARK    5  A    between atoms: C_11  and  C_13
REMARK    6  A    between atoms: C_13  and  C_14
REMARK    7  A    between atoms: C_14  and  C_15
REMARK    8  A    between atoms: N_18  and  C_19
REMARK    9  A    between atoms: C_19  and  C_20
REMARK                            x       y       z     vdW  Elec       q    Type
REMARK                         _______ _______ _______ _____ _____    ______ ____
ROOT
ATOM      1  C   UNL     1       2.723   3.810  17.661  0.00  0.00    +0.000 C 
ENDROOT
BRANCH   1   2
ATOM      2  C   UNL     1       4.195   3.692  17.994  0.00  0.00    +0.000 C 
ATOM      3  O   UNL     1       4.580   3.156  19.031  0.00  0.00    +0.000 OA
BRANCH   2  10
ATOM      4  C   UNL     1       6.290   5.070  17.344  0.00  0.00    +0.000 A 
ATOM      5  C   UNL     1       7.180   5.482  16.338  0.00  0.00    +0.000 A 
ATOM      6  C   UNL     1       6.999   5.112  15.002  0.00  0.00    +0.000 A 
ATOM      7  C   UNL     1       5.945   4.240  14.692  0.00  0.00    +0.000 A 
ATOM      8 CL   UNL     1       5.709   3.690  13.069  0.00  0.00    +0.000 Cl
ATOM      9  C   UNL     1       5.053   3.815  15.676  0.00  0.00    +0.000 A 
ATOM     10  C   UNL     1       5.214   4.218  17.013  0.00  0.00    +0.000 A 
BRANCH   6  11
ATOM     11  N   UNL     1       8.001   5.432  14.068  0.00  0.00    +0.000 N 
ATOM     12  H   UNL     1       8.842   5.839  14.466  0.00  0.00    +0.000 HD
ATOM     13  H   UNL     1       7.646   5.960  13.272  0.00  0.00    +0.000 HD
ENDBRANCH   6  11
BRANCH   4  15
ATOM     14  C   UNL     1       7.751   5.929  19.038  0.00  0.00    +0.000 C 
ATOM     15  O   UNL     1       6.477   5.421  18.653  0.00  0.00    +0.000 OA
ENDBRANCH   4  15
ENDBRANCH   2  10
ENDBRANCH   1   2
BRANCH   1  16
ATOM     16  C   UNL     1       2.099   5.177  17.938  0.00  0.00    +0.000 C 
BRANCH  16  17
ATOM     17  C   UNL     1       3.119   6.139  18.593  0.00  0.00    +0.000 C 
ATOM     18  C   UNL     1       2.702   6.525  20.016  0.00  0.00    +0.000 C 
ATOM     19  C   UNL     1       1.512   7.490  20.037  0.00  0.00    +0.000 C 
ATOM     20  N   UNL     1       1.758   8.698  19.228  0.00  0.00    +0.000 NA
ATOM     21  C   UNL     1       2.125   8.355  17.844  0.00  0.00    +0.000 C 
ATOM     22  C   UNL     1       3.348   7.439  17.804  0.00  0.00    +0.000 C 
BRANCH  20  23
ATOM     23  C   UNL     1       0.575   9.584  19.214  0.00  0.00    +0.000 C 
BRANCH  23  24
ATOM     24  C   UNL     1       0.076   9.954  20.587  0.00  0.00    +0.000 A 
ATOM     25  C   UNL     1      -0.117  11.284  20.966  0.00  0.00    +0.000 A 
ATOM     26  C   UNL     1      -0.554  11.579  22.255  0.00  0.00    +0.000 A 
ATOM     27  C   UNL     1      -0.789  10.522  23.123  0.00  0.00    +0.000 A 
ATOM     28  N   UNL     1      -0.629   9.226  22.791  0.00  0.00    +0.000 NA
ATOM     29  C   UNL     1      -0.198   8.972  21.534  0.00  0.00    +0.000 A 
ENDBRANCH  23  24
ENDBRANCH  20  23
ENDBRANCH  16  17
ENDBRANCH   1  16
TORSDOF 8
ENDMDL
MODEL 4
REMARK VINA RESULT:      -7.7      0.689      1.099
REMARK  Name = 
REMARK  9 active torsions:
REMARK  status: ('A' for Active; 'I' for Inactive)
REMARK    1  A    between atoms: C_1  and  O_2
REMARK    2  A    between atoms: O_2  and  C_3
REMARK    3  A    between atoms: C_5  and  N_6
REMARK    4  A    between atoms: C_10  and  C_11
REMARK    5  A    between atoms: C_11  and  C_13
REMARK    6  A    between atoms: C_13  and  C_14
REMARK    7  A    between atoms: C_14  and  C_15
REMARK    8  A    between atoms: N_18  and  C_19
REMARK    9  A    between atoms: C_19  and  C_20
REMARK                            x       y       z     vdW  Elec       q    Type
REMARK                         _______ _______ _______ _____ _____    ______ ____
ROOT
ATOM      1  C   UNL     1       3.225   2.874  18.203  0.00  0.00    +0.000 C 
ENDROOT
BRANCH   1   2
ATOM      2  C   UNL     1       4.640   3.290  18.542  0.00  0.00    +0.000 C 
ATOM      3  O   UNL     1       5.126   3.081  19.651  0.00  0.00    +0.000 OA
BRANCH   2  10
ATOM      4  C   UNL     1       6.546   4.846  17.730  0.00  0.00    +0.000 A 
ATOM      5  C   UNL     1       7.266   5.385  16.652  0.00  0.00    +0.000 A 
ATOM      6  C   UNL     1       6.925   5.099  15.326  0.00  0.00    +0.000 A 
ATOM      7  C   UNL     1       5.890   4.182  15.090  0.00  0.00    +0.000 A 
ATOM      8 CL   UNL     1       5.467   3.732  13.475  0.00  0.00    +0.000 Cl
ATOM      9  C   UNL     1       5.166   3.631  16.148  0.00  0.00    +0.000 A 
ATOM     10  C   UNL     1       5.484   3.950  17.478  0.00  0.00    +0.000 A 
BRANCH   6  11
ATOM     11  N   UNL     1       7.771   5.548  14.296  0.00  0.00    +0.000 N 
ATOM     12  H   UNL     1       8.633   5.983  14.610  0.00  0.00    +0.000 HD
ATOM     13  H   UNL     1       7.282   6.103  13.596  0.00  0.00    +0.000 HD
ENDBRANCH   6  11
BRANCH   4  15
ATOM     14  C   UNL     1       8.064   5.887  19.265  0.00  0.00    +0.000 C 
ATOM     15  O   UNL     1       6.890   5.116  19.027  0.00  0.00    +0.000 OA
ENDBRANCH   4  15
ENDBRANCH   2  10
ENDBRANCH   1   2
BRANCH   1  16
ATOM     16  C   UNL     1       2.549   1.965  19.228  0.00  0.00    +0.000 C 
BRANCH  16  17
ATOM     17  C   UNL     1       1.261   2.614  19.792  0.00  0.00    +0.000 C 
ATOM     18  C   UNL     1       0.683   3.656  18.829  0.00  0.00    +0.000 C 
ATOM     19  C   UNL     1       1.520   4.939  18.781  0.00  0.00    +0.000 C 
ATOM     20  N   UNL     1       1.716   5.528  20.119  0.00  0.00    +0.000 NA
ATOM     21  C   UNL     1       2.306   4.556  21.054  0.00  0.00    +0.000 C 
ATOM     22  C   UNL     1       1.450   3.294  21.158  0.00  0.00    +0.000 C 
BRANCH  20  23
ATOM     23  C   UNL     1       2.575   6.729  20.054  0.00  0.00    +0.000 C 
BRANCH  23  24
ATOM     24  C   UNL     1       1.834   7.988  19.690  0.00  0.00    +0.000 A 
ATOM     25  C   UNL     1       1.928   8.556  18.417  0.00  0.00    +0.000 A 
ATOM     26  C   UNL     1       1.245   9.736  18.135  0.00  0.00    +0.000 A 
ATOM     27  C   UNL     1       0.483  10.308  19.143  0.00  0.00    +0.000 A 
ATOM     28  N   UNL     1       0.356   9.785  20.379  0.00  0.00    +0.000 NA
ATOM     29  C   UNL     1       1.034   8.640  20.624  0.00  0.00    +0.000 A 
ENDBRANCH  23  24
ENDBRANCH  20  23
ENDBRANCH  16  17
ENDBRANCH   1  16
TORSDOF 8
ENDMDL
MODEL 5
REMARK VINA RESULT:      -7.7      1.505      2.888
REMARK  Name = 
REMARK  9 active torsions:
REMARK  status: ('A' for Active; 'I' for Inactive)
REMARK    1  A    between atoms: C_1  and  O_2
REMARK    2  A    between atoms: O_2  and  C_3
REMARK    3  A    between atoms: C_5  and  N_6
REMARK    4  A    between atoms: C_10  and  C_11
REMARK    5  A    between atoms: C_11  and  C_13
REMARK    6  A    between atoms: C_13  and  C_14
REMARK    7  A    between atoms: C_14  and  C_15
REMARK    8  A    between atoms: N_18  and  C_19
REMARK    9  A    between atoms: C_19  and  C_20
REMARK                            x       y       z     vdW  Elec       q    Type
REMARK                         _______ _______ _______ _____ _____    ______ ____
ROOT
ATOM      1  C   UNL     1       2.665   4.147  17.800  0.00  0.00    +0.000 C 
ENDROOT
BRANCH   1   2
ATOM      2  C   UNL     1       4.136   4.070  18.149  0.00  0.00    +0.000 C 
ATOM      3  O   UNL     1       4.519   3.627  19.229  0.00  0.00    +0.000 OA
BRANCH   2  10
ATOM      4  C   UNL     1       6.212   5.422  17.389  0.00  0.00    +0.000 A 
ATOM      5  C   UNL     1       7.105   5.753  16.357  0.00  0.00    +0.000 A 
ATOM      6  C   UNL     1       6.945   5.254  15.061  0.00  0.00    +0.000 A 
ATOM      7  C   UNL     1       5.912   4.335  14.825  0.00  0.00    +0.000 A 
ATOM      8 CL   UNL     1       5.705   3.628  13.261  0.00  0.00    +0.000 Cl
ATOM      9  C   UNL     1       5.017   3.988  15.838  0.00  0.00    +0.000 A 
ATOM     10  C   UNL     1       5.155   4.520  17.131  0.00  0.00    +0.000 A 
BRANCH   6  11
ATOM     11  N   UNL     1       7.952   5.503  14.110  0.00  0.00    +0.000 N 
ATOM     12  H   UNL     1       7.757   5.147  13.179  0.00  0.00    +0.000 HD
ATOM     13  H   UNL     1       8.881   5.250  14.442  0.00  0.00    +0.000 HD
ENDBRANCH   6  11
BRANCH   4  15
ATOM     14  C   UNL     1       7.637   5.701  19.294  0.00  0.00    +0.000 C 
ATOM     15  O   UNL     1       6.377   5.899  18.660  0.00  0.00    +0.000 OA
ENDBRANCH   4  15
ENDBRANCH   2  10
ENDBRANCH   1   2
BRANCH   1  16
ATOM     16  C   UNL     1       1.986   5.477  18.120  0.00  0.00    +0.000 C 
BRANCH  16  17
ATOM     17  C   UNL     1       2.991   6.491  18.719  0.00  0.00    +0.000 C 
ATOM     18  C   UNL     1       2.527   7.009  20.085  0.00  0.00    +0.000 C 
ATOM     19  C   UNL     1       1.346   7.978  19.973  0.00  0.00    +0.000 C 
ATOM     20  N   UNL     1       1.630   9.105  19.065  0.00  0.00    +0.000 NA
ATOM     21  C   UNL     1       2.043   8.632  17.734  0.00  0.00    +0.000 C 
ATOM     22  C   UNL     1       3.259   7.711  17.822  0.00  0.00    +0.000 C 
BRANCH  20  23
ATOM     23  C   UNL     1       0.456   9.992  18.927  0.00  0.00    +0.000 C 
BRANCH  23  24
ATOM     24  C   UNL     1       0.505  11.208  19.814  0.00  0.00    +0.000 A 
ATOM     25  C   UNL     1      -0.291  11.318  20.957  0.00  0.00    +0.000 A 
ATOM     26  C   UNL     1      -0.231  12.473  21.732  0.00  0.00    +0.000 A 
ATOM     27  C   UNL     1       0.633  13.483  21.335  0.00  0.00    +0.000 A 
ATOM     28  N   UNL     1       1.427  13.410  20.248  0.00  0.00    +0.000 NA
ATOM     29  C   UNL     1       1.343  12.277  19.513  0.00  0.00    +0.000 A 
ENDBRANCH  23  24
ENDBRANCH  20  23
ENDBRANCH  16  17
ENDBRANCH   1  16
TORSDOF 8
ENDMDL
MODEL 6
REMARK VINA RESULT:      -7.6      3.320      5.812
REMARK  Name = 
REMARK  9 active torsions:
REMARK  status: ('A' for Active; 'I' for Inactive)
REMARK    1  A    between atoms: C_1  and  O_2
REMARK    2  A    between atoms: O_2  and  C_3
REMARK    3  A    between atoms: C_5  and  N_6
REMARK    4  A    between atoms: C_10  and  C_11
REMARK    5  A    between atoms: C_11  and  C_13
REMARK    6  A    between atoms: C_13  and  C_14
REMARK    7  A    between atoms: C_14  and  C_15
REMARK    8  A    between atoms: N_18  and  C_19
REMARK    9  A    between atoms: C_19  and  C_20
REMARK                            x       y       z     vdW  Elec       q    Type
REMARK                         _______ _______ _______ _____ _____    ______ ____
ROOT
ATOM      1  C   UNL     1       1.873   8.269  17.908  0.00  0.00    +0.000 C 
ENDROOT
BRANCH   1   2
ATOM      2  C   UNL     1       2.429   7.118  18.719  0.00  0.00    +0.000 C 
ATOM      3  O   UNL     1       2.170   6.987  19.913  0.00  0.00    +0.000 OA
BRANCH   2  10
ATOM      4  C   UNL     1       2.873   4.796  17.659  0.00  0.00    +0.000 A 
ATOM      5  C   UNL     1       3.774   3.934  17.014  0.00  0.00    +0.000 A 
ATOM      6  C   UNL     1       5.102   4.304  16.778  0.00  0.00    +0.000 A 
ATOM      7  C   UNL     1       5.500   5.603  17.125  0.00  0.00    +0.000 A 
ATOM      8 CL   UNL     1       7.109   6.145  16.795  0.00  0.00    +0.000 Cl
ATOM      9  C   UNL     1       4.619   6.477  17.762  0.00  0.00    +0.000 A 
ATOM     10  C   UNL     1       3.296   6.090  18.034  0.00  0.00    +0.000 A 
BRANCH   6  11
ATOM     11  N   UNL     1       5.913   3.459  15.999  0.00  0.00    +0.000 N 
ATOM     12  H   UNL     1       6.800   3.862  15.713  0.00  0.00    +0.000 HD
ATOM     13  H   UNL     1       5.408   3.028  15.226  0.00  0.00    +0.000 HD
ENDBRANCH   6  11
BRANCH   4  15
ATOM     14  C   UNL     1       1.314   3.211  18.553  0.00  0.00    +0.000 C 
ATOM     15  O   UNL     1       1.570   4.438  17.877  0.00  0.00    +0.000 OA
ENDBRANCH   4  15
ENDBRANCH   2  10
ENDBRANCH   1   2
BRANCH   1  16
ATOM     16  C   UNL     1       2.109   9.658  18.499  0.00  0.00    +0.000 C 
BRANCH  16  17
ATOM     17  C   UNL     1       0.903  10.593  18.237  0.00  0.00    +0.000 C 
ATOM     18  C   UNL     1       1.098  11.966  18.889  0.00  0.00    +0.000 C 
ATOM     19  C   UNL     1       0.955  11.916  20.414  0.00  0.00    +0.000 C 
ATOM     20  N   UNL     1      -0.328  11.324  20.836  0.00  0.00    +0.000 NA
ATOM     21  C   UNL     1      -0.522   9.987  20.252  0.00  0.00    +0.000 C 
ATOM     22  C   UNL     1      -0.442  10.030  18.726  0.00  0.00    +0.000 C 
BRANCH  20  23
ATOM     23  C   UNL     1      -0.417  11.232  22.309  0.00  0.00    +0.000 C 
BRANCH  23  24
ATOM     24  C   UNL     1      -1.356  12.235  22.926  0.00  0.00    +0.000 A 
ATOM     25  C   UNL     1      -0.985  13.568  23.119  0.00  0.00    +0.000 A 
ATOM     26  C   UNL     1      -1.877  14.454  23.718  0.00  0.00    +0.000 A 
ATOM     27  C   UNL     1      -3.120  13.971  24.100  0.00  0.00    +0.000 A 
ATOM     28  N   UNL     1      -3.521  12.697  23.917  0.00  0.00    +0.000 NA
ATOM     29  C   UNL     1      -2.631  11.860  23.338  0.00  0.00    +0.000 A 
ENDBRANCH  23  24
ENDBRANCH  20  23
ENDBRANCH  16  17
ENDBRANCH   1  16
TORSDOF 8
ENDMDL
MODEL 7
REMARK VINA RESULT:      -7.5      4.092      8.649
REMARK  Name = 
REMARK  9 active torsions:
REMARK  status: ('A' for Active; 'I' for Inactive)
REMARK    1  A    between atoms: C_1  and  O_2
REMARK    2  A    between atoms: O_2  and  C_3
REMARK    3  A    between atoms: C_5  and  N_6
REMARK    4  A    between atoms: C_10  and  C_11
REMARK    5  A    between atoms: C_11  and  C_13
REMARK    6  A    between atoms: C_13  and  C_14
REMARK    7  A    between atoms: C_14  and  C_15
REMARK    8  A    between atoms: N_18  and  C_19
REMARK    9  A    between atoms: C_19  and  C_20
REMARK                            x       y       z     vdW  Elec       q    Type
REMARK                         _______ _______ _______ _____ _____    ______ ____
ROOT
ATOM      1  C   UNL     1       0.795   7.813  21.333  0.00  0.00    +0.000 C 
ENDROOT
BRANCH   1   2
ATOM      2  C   UNL     1       1.029   9.192  21.913  0.00  0.00    +0.000 C 
ATOM      3  O   UNL     1       1.860   9.386  22.798  0.00  0.00    +0.000 OA
BRANCH   2  10
ATOM      4  C   UNL     1       0.441  10.942  20.095  0.00  0.00    +0.000 A 
ATOM      5  C   UNL     1      -0.366  12.020  19.696  0.00  0.00    +0.000 A 
ATOM      6  C   UNL     1      -1.328  12.570  20.548  0.00  0.00    +0.000 A 
ATOM      7  C   UNL     1      -1.536  11.963  21.795  0.00  0.00    +0.000 A 
ATOM      8 CL   UNL     1      -2.759  12.552  22.866  0.00  0.00    +0.000 Cl
ATOM      9  C   UNL     1      -0.749  10.888  22.208  0.00  0.00    +0.000 A 
ATOM     10  C   UNL     1       0.244  10.360  21.366  0.00  0.00    +0.000 A 
BRANCH   6  11
ATOM     11  N   UNL     1      -2.202  13.549  20.042  0.00  0.00    +0.000 N 
ATOM     12  H   UNL     1      -2.019  14.494  20.364  0.00  0.00    +0.000 HD
ATOM     13  H   UNL     1      -3.183  13.286  20.127  0.00  0.00    +0.000 HD
ENDBRANCH   6  11
BRANCH   4  15
ATOM     14  C   UNL     1       0.911   9.721  18.087  0.00  0.00    +0.000 C 
ATOM     15  O   UNL     1       1.372  10.395  19.255  0.00  0.00    +0.000 OA
ENDBRANCH   4  15
ENDBRANCH   2  10
ENDBRANCH   1   2
BRANCH   1  16
ATOM     16  C   UNL     1       2.039   7.115  20.786  0.00  0.00    +0.000 C 
BRANCH  16  17
ATOM     17  C   UNL     1       1.660   5.963  19.824  0.00  0.00    +0.000 C 
ATOM     18  C   UNL     1       2.268   4.629  20.269  0.00  0.00    +0.000 C 
ATOM     19  C   UNL     1       3.780   4.565  20.032  0.00  0.00    +0.000 C 
ATOM     20  N   UNL     1       4.138   4.851  18.630  0.00  0.00    +0.000 NA
ATOM     21  C   UNL     1       3.596   6.147  18.189  0.00  0.00    +0.000 C 
ATOM     22  C   UNL     1       2.079   6.204  18.365  0.00  0.00    +0.000 C 
BRANCH  20  23
ATOM     23  C   UNL     1       5.604   4.844  18.440  0.00  0.00    +0.000 C 
BRANCH  23  24
ATOM     24  C   UNL     1       6.030   4.787  16.996  0.00  0.00    +0.000 A 
ATOM     25  C   UNL     1       5.398   3.946  16.076  0.00  0.00    +0.000 A 
ATOM     26  C   UNL     1       5.844   3.908  14.757  0.00  0.00    +0.000 A 
ATOM     27  C   UNL     1       6.910   4.721  14.403  0.00  0.00    +0.000 A 
ATOM     28  N   UNL     1       7.536   5.556  15.257  0.00  0.00    +0.000 NA
ATOM     29  C   UNL     1       7.084   5.568  16.532  0.00  0.00    +0.000 A 
ENDBRANCH  23  24
ENDBRANCH  20  23
ENDBRANCH  16  17
ENDBRANCH   1  16
TORSDOF 8
ENDMDL
MODEL 8
REMARK VINA RESULT:      -7.5      3.805      8.347
REMARK  Name = 
REMARK  9 active torsions:
REMARK  status: ('A' for Active; 'I' for Inactive)
REMARK    1  A    between atoms: C_1  and  O_2
REMARK    2  A    between atoms: O_2  and  C_3
REMARK    3  A    between atoms: C_5  and  N_6
REMARK    4  A    between atoms: C_10  and  C_11
REMARK    5  A    between atoms: C_11  and  C_13
REMARK    6  A    between atoms: C_13  and  C_14
REMARK    7  A    between atoms: C_14  and  C_15
REMARK    8  A    between atoms: N_18  and  C_19
REMARK    9  A    between atoms: C_19  and  C_20
REMARK                            x       y       z     vdW  Elec       q    Type
REMARK                         _______ _______ _______ _____ _____    ______ ____
ROOT
ATOM      1  C   UNL     1       1.717   8.946  17.706  0.00  0.00    +0.000 C 
ENDROOT
BRANCH   1   2
ATOM      2  C   UNL     1       0.909   9.526  18.847  0.00  0.00    +0.000 C 
ATOM      3  O   UNL     1       1.308   9.475  20.009  0.00  0.00    +0.000 OA
BRANCH   2  10
ATOM      4  C   UNL     1      -0.964  11.255  19.313  0.00  0.00    +0.000 A 
ATOM      5  C   UNL     1      -2.187  11.820  18.918  0.00  0.00    +0.000 A 
ATOM      6  C   UNL     1      -2.893  11.341  17.810  0.00  0.00    +0.000 A 
ATOM      7  C   UNL     1      -2.308  10.328  17.038  0.00  0.00    +0.000 A 
ATOM      8 CL   UNL     1      -3.097   9.741  15.615  0.00  0.00    +0.000 Cl
ATOM      9  C   UNL     1      -1.091   9.756  17.409  0.00  0.00    +0.000 A 
ATOM     10  C   UNL     1      -0.401  10.212  18.545  0.00  0.00    +0.000 A 
BRANCH   6  11
ATOM     11  N   UNL     1      -4.034  12.042  17.379  0.00  0.00    +0.000 N 
ATOM     12  H   UNL     1      -3.894  12.624  16.559  0.00  0.00    +0.000 HD
ATOM     13  H   UNL     1      -4.506  12.534  18.136  0.00  0.00    +0.000 HD
ENDBRANCH   6  11
BRANCH   4  15
ATOM     14  C   UNL     1       0.175  13.088  20.354  0.00  0.00    +0.000 C 
ATOM     15  O   UNL     1      -0.267  11.734  20.388  0.00  0.00    +0.000 OA
ENDBRANCH   4  15
ENDBRANCH   2  10
ENDBRANCH   1   2
BRANCH   1  16
ATOM     16  C   UNL     1       2.753   7.898  18.106  0.00  0.00    +0.000 C 
BRANCH  16  17
ATOM     17  C   UNL     1       2.080   6.647  18.721  0.00  0.00    +0.000 C 
ATOM     18  C   UNL     1       2.811   6.172  19.981  0.00  0.00    +0.000 C 
ATOM     19  C   UNL     1       4.156   5.509  19.665  0.00  0.00    +0.000 C 
ATOM     20  N   UNL     1       4.019   4.402  18.700  0.00  0.00    +0.000 NA
ATOM     21  C   UNL     1       3.352   4.842  17.465  0.00  0.00    +0.000 C 
ATOM     22  C   UNL     1       1.982   5.452  17.759  0.00  0.00    +0.000 C 
BRANCH  20  23
ATOM     23  C   UNL     1       5.336   3.818  18.365  0.00  0.00    +0.000 C 
BRANCH  23  24
ATOM     24  C   UNL     1       5.882   4.274  17.038  0.00  0.00    +0.000 A 
ATOM     25  C   UNL     1       5.605   3.588  15.853  0.00  0.00    +0.000 A 
ATOM     26  C   UNL     1       6.155   4.031  14.653  0.00  0.00    +0.000 A 
ATOM     27  C   UNL     1       6.964   5.157  14.681  0.00  0.00    +0.000 A 
ATOM     28  N   UNL     1       7.244   5.855  15.800  0.00  0.00    +0.000 NA
ATOM     29  C   UNL     1       6.699   5.397  16.951  0.00  0.00    +0.000 A 
ENDBRANCH  23  24
ENDBRANCH  20  23
ENDBRANCH  16  17
ENDBRANCH   1  16
TORSDOF 8
ENDMDL
MODEL 9
REMARK VINA RESULT:      -7.4      3.555      5.922
REMARK  Name = 
REMARK  9 active torsions:
REMARK  status: ('A' for Active; 'I' for Inactive)
REMARK    1  A    between atoms: C_1  and  O_2
REMARK    2  A    between atoms: O_2  and  C_3
REMARK    3  A    between atoms: C_5  and  N_6
REMARK    4  A    between atoms: C_10  and  C_11
REMARK    5  A    between atoms: C_11  and  C_13
REMARK    6  A    between atoms: C_13  and  C_14
REMARK    7  A    between atoms: C_14  and  C_15
REMARK    8  A    between atoms: N_18  and  C_19
REMARK    9  A    between atoms: C_19  and  C_20
REMARK                            x       y       z     vdW  Elec       q    Type
REMARK                         _______ _______ _______ _____ _____    ______ ____
ROOT
ATOM      1  C   UNL     1       2.042   8.433  18.063  0.00  0.00    +0.000 C 
ENDROOT
BRANCH   1   2
ATOM      2  C   UNL     1       2.525   7.225  18.836  0.00  0.00    +0.000 C 
ATOM      3  O   UNL     1       2.216   7.046  20.012  0.00  0.00    +0.000 OA
BRANCH   2  10
ATOM      4  C   UNL     1       2.945   4.919  17.731  0.00  0.00    +0.000 A 
ATOM      5  C   UNL     1       3.838   4.059  17.072  0.00  0.00    +0.000 A 
ATOM      6  C   UNL     1       5.171   4.418  16.848  0.00  0.00    +0.000 A 
ATOM      7  C   UNL     1       5.584   5.705  17.222  0.00  0.00    +0.000 A 
ATOM      8 CL   UNL     1       7.200   6.234  16.908  0.00  0.00    +0.000 Cl
ATOM      9  C   UNL     1       4.711   6.576  17.873  0.00  0.00    +0.000 A 
ATOM     10  C   UNL     1       3.383   6.200  18.133  0.00  0.00    +0.000 A 
BRANCH   6  11
ATOM     11  N   UNL     1       5.975   3.579  16.055  0.00  0.00    +0.000 N 
ATOM     12  H   UNL     1       5.571   2.670  15.849  0.00  0.00    +0.000 HD
ATOM     13  H   UNL     1       6.934   3.517  16.391  0.00  0.00    +0.000 HD
ENDBRANCH   6  11
BRANCH   4  15
ATOM     14  C   UNL     1       1.363   3.319  18.555  0.00  0.00    +0.000 C 
ATOM     15  O   UNL     1       1.637   4.573  17.937  0.00  0.00    +0.000 OA
ENDBRANCH   4  15
ENDBRANCH   2  10
ENDBRANCH   1   2
BRANCH   1  16
ATOM     16  C   UNL     1       1.597   9.619  18.917  0.00  0.00    +0.000 C 
BRANCH  16  17
ATOM     17  C   UNL     1       0.088   9.534  19.255  0.00  0.00    +0.000 C 
ATOM     18  C   UNL     1      -0.664  10.793  18.810  0.00  0.00    +0.000 C 
ATOM     19  C   UNL     1      -0.353  12.005  19.695  0.00  0.00    +0.000 C 
ATOM     20  N   UNL     1      -0.604  11.733  21.123  0.00  0.00    +0.000 NA
ATOM     21  C   UNL     1       0.137  10.549  21.584  0.00  0.00    +0.000 C 
ATOM     22  C   UNL     1      -0.207   9.316  20.748  0.00  0.00    +0.000 C 
BRANCH  20  23
ATOM     23  C   UNL     1      -0.241  12.895  21.961  0.00  0.00    +0.000 C 
BRANCH  23  24
ATOM     24  C   UNL     1      -1.331  13.329  22.906  0.00  0.00    +0.000 A 
ATOM     25  C   UNL     1      -2.558  12.664  22.968  0.00  0.00    +0.000 A 
ATOM     26  C   UNL     1      -3.546  13.117  23.838  0.00  0.00    +0.000 A 
ATOM     27  C   UNL     1      -3.267  14.225  24.625  0.00  0.00    +0.000 A 
ATOM     28  N   UNL     1      -2.091  14.885  24.605  0.00  0.00    +0.000 NA
ATOM     29  C   UNL     1      -1.153  14.424  23.746  0.00  0.00    +0.000 A 
ENDBRANCH  23  24
ENDBRANCH  20  23
ENDBRANCH  16  17
ENDBRANCH   1  16
TORSDOF 8
ENDMDL
