MODEL 1
REMARK VINA RESULT:      -7.5      0.000      0.000
REMARK  Name = 
REMARK  6 active torsions:
REMARK  status: ('A' for Active; 'I' for Inactive)
REMARK    1  A    between atoms: C_1  and  C_2
REMARK    2  A    between atoms: C_2  and  C_3
REMARK    3  A    between atoms: C_6  and  C_7
REMARK    4  A    between atoms: C_10  and  C_11
REMARK    5  A    between atoms: C_17  and  O_18
REMARK    6  A    between atoms: C_19  and  C_20
REMARK                            x       y       z     vdW  Elec       q    Type
REMARK                         _______ _______ _______ _____ _____    ______ ____
ROOT
ATOM      1  C   UNL     1       7.525   6.616  16.964  0.00  0.00    +0.000 C 
ATOM      2  C   UNL     1       6.091   5.701  16.550  0.00  0.00    +0.000 C 
ATOM      3  C   UNL     1       5.403   7.061  16.264  0.00  0.00    +0.000 C 
ATOM      4  C   UNL     1       6.662   4.993  17.756  0.00  0.00    +0.000 C 
ATOM      5  O   UNL     1       7.500   4.087  17.616  0.00  0.00    +0.000 OA
ATOM      6  C   UNL     1       6.088   5.316  19.135  0.00  0.00    +0.000 C 
ATOM      7  C   UNL     1       5.258   4.360  19.346  0.00  0.00    +0.000 C 
ATOM      8  C   UNL     1       4.103   4.724  18.482  0.00  0.00    +0.000 C 
ATOM      9  C   UNL     1       3.553   6.170  18.581  0.00  0.00    +0.000 C 
ATOM     10  C   UNL     1       3.048   3.899  19.110  0.00  0.00    +0.000 C 
ATOM     11  C   UNL     1       3.055   3.776  20.494  0.00  0.00    +0.000 C 
ATOM     12  C   UNL     1       2.108   2.937  21.222  0.00  0.00    +0.000 C 
ATOM     13  O   UNL     1       2.338   2.642  22.391  0.00  0.00    +0.000 OA
ATOM     14  C   UNL     1       0.867   2.653  20.460  0.00  0.00    +0.000 C 
ATOM     15  C   UNL     1       1.190   2.245  19.007  0.00  0.00    +0.000 C 
ATOM     16  C   UNL     1       2.073   3.268  18.173  0.00  0.00    +0.000 C 
ATOM     17  C   UNL     1       1.164   4.338  17.538  0.00  0.00    +0.000 C 
ATOM     18  C   UNL     1       2.942   2.668  16.988  0.00  0.00    +0.000 C 
ATOM     19  C   UNL     1       3.805   3.727  16.113  0.00  0.00    +0.000 C 
ATOM     20  C   UNL     1       4.794   4.486  17.029  0.00  0.00    +0.000 C 
ENDROOT
BRANCH   6  21
ATOM     21  C   UNL     1       7.456   5.540  19.760  0.00  0.00    +0.000 C 
ATOM     22  N   UNL     1       8.591   5.726  20.279  0.00  0.00    +0.000 NA
ENDBRANCH   6  21
BRANCH  15  23
ATOM     23  O   UNL     1      -0.091   2.062  18.394  0.00  0.00    +0.000 OA
ATOM     24  H   UNL     1      -0.017   2.350  17.461  0.00  0.00    +0.000 HD
ENDBRANCH  15  23
TORSDOF 2
ENDMDL
MODEL 2
REMARK VINA RESULT:      -7.0      2.657      6.089
REMARK  Name = 
REMARK  6 active torsions:
REMARK  status: ('A' for Active; 'I' for Inactive)
REMARK    1  A    between atoms: C_1  and  C_2
REMARK    2  A    between atoms: C_2  and  C_3
REMARK    3  A    between atoms: C_6  and  C_7
REMARK    4  A    between atoms: C_10  and  C_11
REMARK    5  A    between atoms: C_17  and  O_18
REMARK    6  A    between atoms: C_19  and  C_20
REMARK                            x       y       z     vdW  Elec       q    Type
REMARK                         _______ _______ _______ _____ _____    ______ ____
ROOT
ATOM      1  C   UNL     1       1.421   4.221  20.853  0.00  0.00    +0.000 C 
ATOM      2  C   UNL     1       3.027   4.757  20.405  0.00  0.00    +0.000 C 
ATOM      3  C   UNL     1       2.465   6.203  20.433  0.00  0.00    +0.000 C 
ATOM      4  C   UNL     1       2.798   3.508  19.588  0.00  0.00    +0.000 C 
ATOM      5  O   UNL     1       3.102   2.393  20.044  0.00  0.00    +0.000 OA
ATOM      6  C   UNL     1       2.319   3.653  18.144  0.00  0.00    +0.000 C 
ATOM      7  C   UNL     1       3.397   3.539  17.458  0.00  0.00    +0.000 C 
ATOM      8  C   UNL     1       4.060   4.856  17.655  0.00  0.00    +0.000 C 
ATOM      9  C   UNL     1       3.213   6.134  17.428  0.00  0.00    +0.000 C 
ATOM     10  C   UNL     1       4.995   4.842  16.508  0.00  0.00    +0.000 C 
ATOM     11  C   UNL     1       4.548   4.299  15.310  0.00  0.00    +0.000 C 
ATOM     12  C   UNL     1       5.399   4.169  14.131  0.00  0.00    +0.000 C 
ATOM     13  O   UNL     1       5.050   3.432  13.214  0.00  0.00    +0.000 OA
ATOM     14  C   UNL     1       6.559   5.093  14.138  0.00  0.00    +0.000 C 
ATOM     15  C   UNL     1       7.263   5.091  15.511  0.00  0.00    +0.000 C 
ATOM     16  C   UNL     1       6.348   5.418  16.767  0.00  0.00    +0.000 C 
ATOM     17  C   UNL     1       6.257   6.945  16.957  0.00  0.00    +0.000 C 
ATOM     18  C   UNL     1       6.807   4.826  18.166  0.00  0.00    +0.000 C 
ATOM     19  C   UNL     1       5.891   5.205  19.450  0.00  0.00    +0.000 C 
ATOM     20  C   UNL     1       4.442   4.709  19.228  0.00  0.00    +0.000 C 
ENDROOT
BRANCH   6  21
ATOM     21  C   UNL     1       1.191   2.648  18.313  0.00  0.00    +0.000 C 
ATOM     22  N   UNL     1       0.255   1.814  18.454  0.00  0.00    +0.000 NA
ENDBRANCH   6  21
BRANCH  15  23
ATOM     23  O   UNL     1       8.309   6.058  15.379  0.00  0.00    +0.000 OA
ATOM     24  H   UNL     1       8.885   5.772  14.640  0.00  0.00    +0.000 HD
ENDBRANCH  15  23
TORSDOF 2
ENDMDL
MODEL 3
REMARK VINA RESULT:      -6.9      2.268      5.717
REMARK  Name = 
REMARK  6 active torsions:
REMARK  status: ('A' for Active; 'I' for Inactive)
REMARK    1  A    between atoms: C_1  and  C_2
REMARK    2  A    between atoms: C_2  and  C_3
REMARK    3  A    between atoms: C_6  and  C_7
REMARK    4  A    between atoms: C_10  and  C_11
REMARK    5  A    between atoms: C_17  and  O_18
REMARK    6  A    between atoms: C_19  and  C_20
REMARK                            x       y       z     vdW  Elec       q    Type
REMARK                         _______ _______ _______ _____ _____    ______ ____
ROOT
ATOM      1  C   UNL     1       0.456   2.987  19.164  0.00  0.00    +0.000 C 
ATOM      2  C   UNL     1       1.325   4.267  18.344  0.00  0.00    +0.000 C 
ATOM      3  C   UNL     1       1.402   3.319  17.118  0.00  0.00    +0.000 C 
ATOM      4  C   UNL     1       1.864   4.280  19.754  0.00  0.00    +0.000 C 
ATOM      5  O   UNL     1       1.317   4.969  20.631  0.00  0.00    +0.000 OA
ATOM      6  C   UNL     1       3.172   3.545  20.047  0.00  0.00    +0.000 C 
ATOM      7  C   UNL     1       4.052   4.478  20.025  0.00  0.00    +0.000 C 
ATOM      8  C   UNL     1       4.215   4.750  18.571  0.00  0.00    +0.000 C 
ATOM      9  C   UNL     1       4.448   3.540  17.630  0.00  0.00    +0.000 C 
ATOM     10  C   UNL     1       5.523   5.441  18.589  0.00  0.00    +0.000 C 
ATOM     11  C   UNL     1       6.493   4.979  19.470  0.00  0.00    +0.000 C 
ATOM     12  C   UNL     1       7.794   5.620  19.625  0.00  0.00    +0.000 C 
ATOM     13  O   UNL     1       8.485   5.354  20.605  0.00  0.00    +0.000 OA
ATOM     14  C   UNL     1       8.189   6.443  18.456  0.00  0.00    +0.000 C 
ATOM     15  C   UNL     1       7.022   7.337  17.987  0.00  0.00    +0.000 C 
ATOM     16  C   UNL     1       5.662   6.590  17.645  0.00  0.00    +0.000 C 
ATOM     17  C   UNL     1       5.700   6.089  16.188  0.00  0.00    +0.000 C 
ATOM     18  C   UNL     1       4.324   7.430  17.789  0.00  0.00    +0.000 C 
ATOM     19  C   UNL     1       2.945   6.672  17.393  0.00  0.00    +0.000 C 
ATOM     20  C   UNL     1       2.762   5.416  18.278  0.00  0.00    +0.000 C 
ENDROOT
BRANCH   6  21
ATOM     21  C   UNL     1       2.603   2.805  21.247  0.00  0.00    +0.000 C 
ATOM     22  N   UNL     1       2.130   2.192  22.243  0.00  0.00    +0.000 NA
ENDBRANCH   6  21
BRANCH  15  23
ATOM     23  O   UNL     1       7.531   8.017  16.835  0.00  0.00    +0.000 OA
ATOM     24  H   UNL     1       8.379   7.592  16.591  0.00  0.00    +0.000 HD
ENDBRANCH  15  23
TORSDOF 2
ENDMDL
MODEL 4
REMARK VINA RESULT:      -6.7      1.992      2.424
REMARK  Name = 
REMARK  6 active torsions:
REMARK  status: ('A' for Active; 'I' for Inactive)
REMARK    1  A    between atoms: C_1  and  C_2
REMARK    2  A    between atoms: C_2  and  C_3
REMARK    3  A    between atoms: C_6  and  C_7
REMARK    4  A    between atoms: C_10  and  C_11
REMARK    5  A    between atoms: C_17  and  O_18
REMARK    6  A    between atoms: C_19  and  C_20
REMARK                            x       y       z     vdW  Elec       q    Type
REMARK                         _______ _______ _______ _____ _____    ______ ____
ROOT
ATOM      1  C   UNL     1       7.515   5.029  15.467  0.00  0.00    +0.000 C 
ATOM      2  C   UNL     1       6.307   4.021  16.236  0.00  0.00    +0.000 C 
ATOM      3  C   UNL     1       5.542   4.046  14.887  0.00  0.00    +0.000 C 
ATOM      4  C   UNL     1       6.698   5.025  17.294  0.00  0.00    +0.000 C 
ATOM      5  O   UNL     1       7.645   4.792  18.065  0.00  0.00    +0.000 OA
ATOM      6  C   UNL     1       5.824   6.263  17.489  0.00  0.00    +0.000 C 
ATOM      7  C   UNL     1       5.083   5.953  18.489  0.00  0.00    +0.000 C 
ATOM      8  C   UNL     1       4.093   5.015  17.893  0.00  0.00    +0.000 C 
ATOM      9  C   UNL     1       3.373   5.454  16.592  0.00  0.00    +0.000 C 
ATOM     10  C   UNL     1       3.033   5.079  18.923  0.00  0.00    +0.000 C 
ATOM     11  C   UNL     1       2.773   6.309  19.515  0.00  0.00    +0.000 C 
ATOM     12  C   UNL     1       1.800   6.484  20.588  0.00  0.00    +0.000 C 
ATOM     13  O   UNL     1       1.820   7.511  21.260  0.00  0.00    +0.000 OA
ATOM     14  C   UNL     1       0.780   5.408  20.639  0.00  0.00    +0.000 C 
ATOM     15  C   UNL     1       1.434   4.016  20.509  0.00  0.00    +0.000 C 
ATOM     16  C   UNL     1       2.346   3.789  19.229  0.00  0.00    +0.000 C 
ATOM     17  C   UNL     1       1.470   3.350  18.040  0.00  0.00    +0.000 C 
ATOM     18  C   UNL     1       3.500   2.706  19.350  0.00  0.00    +0.000 C 
ATOM     19  C   UNL     1       4.396   2.449  18.023  0.00  0.00    +0.000 C 
ATOM     20  C   UNL     1       5.086   3.765  17.590  0.00  0.00    +0.000 C 
ENDROOT
BRANCH   6  21
ATOM     21  C   UNL     1       7.002   7.223  17.442  0.00  0.00    +0.000 C 
ATOM     22  N   UNL     1       7.980   8.020  17.404  0.00  0.00    +0.000 NA
ENDBRANCH   6  21
BRANCH  15  23
ATOM     23  O   UNL     1       0.334   3.101  20.517  0.00  0.00    +0.000 OA
ATOM     24  H   UNL     1       0.348   2.613  19.669  0.00  0.00    +0.000 HD
ENDBRANCH  15  23
TORSDOF 2
ENDMDL
MODEL 5
REMARK VINA RESULT:      -6.3      9.880     11.884
REMARK  Name = 
REMARK  6 active torsions:
REMARK  status: ('A' for Active; 'I' for Inactive)
REMARK    1  A    between atoms: C_1  and  C_2
REMARK    2  A    between atoms: C_2  and  C_3
REMARK    3  A    between atoms: C_6  and  C_7
REMARK    4  A    between atoms: C_10  and  C_11
REMARK    5  A    between atoms: C_17  and  O_18
REMARK    6  A    between atoms: C_19  and  C_20
REMARK                            x       y       z     vdW  Elec       q    Type
REMARK                         _______ _______ _______ _____ _____    ______ ____
ROOT
ATOM      1  C   UNL     1      -3.206  14.379  24.735  0.00  0.00    +0.000 C 
ATOM      2  C   UNL     1      -2.067  13.420  23.814  0.00  0.00    +0.000 C 
ATOM      3  C   UNL     1      -1.283  14.736  23.567  0.00  0.00    +0.000 C 
ATOM      4  C   UNL     1      -3.421  12.865  23.444  0.00  0.00    +0.000 C 
ATOM      5  O   UNL     1      -3.929  11.948  24.110  0.00  0.00    +0.000 OA
ATOM      6  C   UNL     1      -4.087  13.353  22.157  0.00  0.00    +0.000 C 
ATOM      7  C   UNL     1      -3.814  12.430  21.309  0.00  0.00    +0.000 C 
ATOM      8  C   UNL     1      -2.385  12.686  20.986  0.00  0.00    +0.000 C 
ATOM      9  C   UNL     1      -1.976  14.134  20.609  0.00  0.00    +0.000 C 
ATOM     10  C   UNL     1      -2.278  11.945  19.711  0.00  0.00    +0.000 C 
ATOM     11  C   UNL     1      -3.357  11.991  18.837  0.00  0.00    +0.000 C 
ATOM     12  C   UNL     1      -3.395  11.247  17.582  0.00  0.00    +0.000 C 
ATOM     13  O   UNL     1      -4.468  11.097  17.003  0.00  0.00    +0.000 OA
ATOM     14  C   UNL     1      -2.052  10.873  17.078  0.00  0.00    +0.000 C 
ATOM     15  C   UNL     1      -1.177  10.290  18.209  0.00  0.00    +0.000 C 
ATOM     16  C   UNL     1      -0.999  11.204  19.496  0.00  0.00    +0.000 C 
ATOM     17  C   UNL     1       0.165  12.189  19.274  0.00  0.00    +0.000 C 
ATOM     18  C   UNL     1      -0.696  10.464  20.867  0.00  0.00    +0.000 C 
ATOM     19  C   UNL     1      -0.469  11.408  22.166  0.00  0.00    +0.000 C 
ATOM     20  C   UNL     1      -1.728  12.273  22.414  0.00  0.00    +0.000 C 
ENDROOT
BRANCH   6  21
ATOM     21  C   UNL     1      -5.412  13.652  22.841  0.00  0.00    +0.000 C 
ATOM     22  N   UNL     1      -6.511  13.900  23.408  0.00  0.00    +0.000 NA
ENDBRANCH   6  21
BRANCH  15  23
ATOM     23  O   UNL     1       0.086  10.034  17.589  0.00  0.00    +0.000 OA
ATOM     24  H   UNL     1       0.404  10.876  17.203  0.00  0.00    +0.000 HD
ENDBRANCH  15  23
TORSDOF 2
ENDMDL
MODEL 6
REMARK VINA RESULT:      -5.8      9.787     11.869
REMARK  Name = 
REMARK  6 active torsions:
REMARK  status: ('A' for Active; 'I' for Inactive)
REMARK    1  A    between atoms: C_1  and  C_2
REMARK    2  A    between atoms: C_2  and  C_3
REMARK    3  A    between atoms: C_6  and  C_7
REMARK    4  A    between atoms: C_10  and  C_11
REMARK    5  A    between atoms: C_17  and  O_18
REMARK    6  A    between atoms: C_19  and  C_20
REMARK                            x       y       z     vdW  Elec       q    Type
REMARK                         _______ _______ _______ _____ _____    ______ ____
ROOT
ATOM      1  C   UNL     1      -4.756  15.051  23.123  0.00  0.00    +0.000 C 
ATOM      2  C   UNL     1      -3.368  13.983  23.153  0.00  0.00    +0.000 C 
ATOM      3  C   UNL     1      -2.488  15.257  23.066  0.00  0.00    +0.000 C 
ATOM      4  C   UNL     1      -4.372  13.282  22.269  0.00  0.00    +0.000 C 
ATOM      5  O   UNL     1      -5.208  12.504  22.758  0.00  0.00    +0.000 OA
ATOM      6  C   UNL     1      -4.250  13.439  20.753  0.00  0.00    +0.000 C 
ATOM      7  C   UNL     1      -3.638  12.371  20.390  0.00  0.00    +0.000 C 
ATOM      8  C   UNL     1      -2.233  12.634  20.801  0.00  0.00    +0.000 C 
ATOM      9  C   UNL     1      -1.598  13.986  20.386  0.00  0.00    +0.000 C 
ATOM     10  C   UNL     1      -1.533  11.640  19.959  0.00  0.00    +0.000 C 
ATOM     11  C   UNL     1      -2.004  11.432  18.668  0.00  0.00    +0.000 C 
ATOM     12  C   UNL     1      -1.439  10.432  17.768  0.00  0.00    +0.000 C 
ATOM     13  O   UNL     1      -2.068  10.096  16.769  0.00  0.00    +0.000 OA
ATOM     14  C   UNL     1      -0.054  10.036  18.123  0.00  0.00    +0.000 C 
ATOM     15  C   UNL     1       0.075   9.766  19.637  0.00  0.00    +0.000 C 
ATOM     16  C   UNL     1      -0.376  10.946  20.599  0.00  0.00    +0.000 C 
ATOM     17  C   UNL     1       0.796  11.926  20.801  0.00  0.00    +0.000 C 
ATOM     18  C   UNL     1      -0.868  10.542  22.053  0.00  0.00    +0.000 C 
ATOM     19  C   UNL     1      -1.283  11.758  23.043  0.00  0.00    +0.000 C 
ATOM     20  C   UNL     1      -2.432  12.581  22.414  0.00  0.00    +0.000 C 
ENDROOT
BRANCH   6  21
ATOM     21  C   UNL     1      -5.715  13.801  20.573  0.00  0.00    +0.000 C 
ATOM     22  N   UNL     1      -6.932  14.102  20.425  0.00  0.00    +0.000 NA
ENDBRANCH   6  21
BRANCH  15  23
ATOM     23  O   UNL     1       1.459   9.455  19.828  0.00  0.00    +0.000 OA
ATOM     24  H   UNL     1       1.983  10.130  19.351  0.00  0.00    +0.000 HD
ENDBRANCH  15  23
TORSDOF 2
ENDMDL
MODEL 7
REMARK VINA RESULT:      -5.7     10.799     12.958
REMARK  Name = 
REMARK  6 active torsions:
REMARK  status: ('A' for Active; 'I' for Inactive)
REMARK    1  A    between atoms: C_1  and  C_2
REMARK    2  A    between atoms: C_2  and  C_3
REMARK    3  A    between atoms: C_6  and  C_7
REMARK    4  A    between atoms: C_10  and  C_11
REMARK    5  A    between atoms: C_17  and  O_18
REMARK    6  A    between atoms: C_19  and  C_20
REMARK                            x       y       z     vdW  Elec       q    Type
REMARK                         _______ _______ _______ _____ _____    ______ ____
ROOT
ATOM      1  C   UNL     1      -6.839  14.906  22.700  0.00  0.00    +0.000 C 
ATOM      2  C   UNL     1      -5.301  14.209  23.165  0.00  0.00    +0.000 C 
ATOM      3  C   UNL     1      -4.755  15.660  23.232  0.00  0.00    +0.000 C 
ATOM      4  C   UNL     1      -5.832  13.287  22.094  0.00  0.00    +0.000 C 
ATOM      5  O   UNL     1      -6.562  12.327  22.394  0.00  0.00    +0.000 OA
ATOM      6  C   UNL     1      -5.342  13.471  20.658  0.00  0.00    +0.000 C 
ATOM      7  C   UNL     1      -4.422  12.585  20.539  0.00  0.00    +0.000 C 
ATOM      8  C   UNL     1      -3.285  13.182  21.290  0.00  0.00    +0.000 C 
ATOM      9  C   UNL     1      -2.897  14.649  20.971  0.00  0.00    +0.000 C 
ATOM     10  C   UNL     1      -2.168  12.390  20.729  0.00  0.00    +0.000 C 
ATOM     11  C   UNL     1      -2.207  12.076  19.376  0.00  0.00    +0.000 C 
ATOM     12  C   UNL     1      -1.200  11.245  18.724  0.00  0.00    +0.000 C 
ATOM     13  O   UNL     1      -1.436  10.768  17.618  0.00  0.00    +0.000 OA
ATOM     14  C   UNL     1       0.088  11.198  19.458  0.00  0.00    +0.000 C 
ATOM     15  C   UNL     1      -0.140  10.965  20.966  0.00  0.00    +0.000 C 
ATOM     16  C   UNL     1      -1.100  11.998  21.696  0.00  0.00    +0.000 C 
ATOM     17  C   UNL     1      -0.292  13.234  22.137  0.00  0.00    +0.000 C 
ATOM     18  C   UNL     1      -1.860  11.483  22.991  0.00  0.00    +0.000 C 
ATOM     19  C   UNL     1      -2.802  12.560  23.755  0.00  0.00    +0.000 C 
ATOM     20  C   UNL     1      -3.897  13.079  22.792  0.00  0.00    +0.000 C 
ENDROOT
BRANCH   6  21
ATOM     21  C   UNL     1      -6.746  13.465  20.074  0.00  0.00    +0.000 C 
ATOM     22  N   UNL     1      -7.911  13.461  19.590  0.00  0.00    +0.000 NA
ENDBRANCH   6  21
BRANCH  15  23
ATOM     23  O   UNL     1       1.172  11.001  21.536  0.00  0.00    +0.000 OA
ATOM     24  H   UNL     1       1.811  11.122  20.804  0.00  0.00    +0.000 HD
ENDBRANCH  15  23
TORSDOF 2
ENDMDL
MODEL 8
REMARK VINA RESULT:      -5.6      9.755     11.711
REMARK  Name = 
REMARK  6 active torsions:
REMARK  status: ('A' for Active; 'I' for Inactive)
REMARK    1  A    between atoms: C_1  and  C_2
REMARK    2  A    between atoms: C_2  and  C_3
REMARK    3  A    between atoms: C_6  and  C_7
REMARK    4  A    between atoms: C_10  and  C_11
REMARK    5  A    between atoms: C_17  and  O_18
REMARK    6  A    between atoms: C_19  and  C_20
REMARK                            x       y       z     vdW  Elec       q    Type
REMARK                         _______ _______ _______ _____ _____    ______ ____
ROOT
ATOM      1  C   UNL     1      -4.849  15.006  22.952  0.00  0.00    +0.000 C 
ATOM      2  C   UNL     1      -3.490  15.131  21.855  0.00  0.00    +0.000 C 
ATOM      3  C   UNL     1      -4.528  15.165  20.702  0.00  0.00    +0.000 C 
ATOM      4  C   UNL     1      -3.047  14.138  22.902  0.00  0.00    +0.000 C 
ATOM      5  O   UNL     1      -2.479  14.524  23.936  0.00  0.00    +0.000 OA
ATOM      6  C   UNL     1      -3.184  12.645  22.601  0.00  0.00    +0.000 C 
ATOM      7  C   UNL     1      -2.007  12.307  22.218  0.00  0.00    +0.000 C 
ATOM      8  C   UNL     1      -1.935  12.854  20.837  0.00  0.00    +0.000 C 
ATOM      9  C   UNL     1      -3.108  12.540  19.872  0.00  0.00    +0.000 C 
ATOM     10  C   UNL     1      -0.814  12.050  20.305  0.00  0.00    +0.000 C 
ATOM     11  C   UNL     1      -0.730  10.716  20.684  0.00  0.00    +0.000 C 
ATOM     12  C   UNL     1       0.365   9.842  20.279  0.00  0.00    +0.000 C 
ATOM     13  O   UNL     1       0.539   8.779  20.868  0.00  0.00    +0.000 OA
ATOM     14  C   UNL     1       1.073  10.311  19.062  0.00  0.00    +0.000 C 
ATOM     15  C   UNL     1       1.378  11.821  19.144  0.00  0.00    +0.000 C 
ATOM     16  C   UNL     1       0.133  12.773  19.404  0.00  0.00    +0.000 C 
ATOM     17  C   UNL     1      -0.548  13.111  18.064  0.00  0.00    +0.000 C 
ATOM     18  C   UNL     1       0.426  14.162  20.114  0.00  0.00    +0.000 C 
ATOM     19  C   UNL     1      -0.845  15.147  20.333  0.00  0.00    +0.000 C 
ATOM     20  C   UNL     1      -1.916  14.440  21.197  0.00  0.00    +0.000 C 
ENDROOT
BRANCH   6  21
ATOM     21  C   UNL     1      -3.876  12.343  23.921  0.00  0.00    +0.000 C 
ATOM     22  N   UNL     1      -4.450  12.092  25.016  0.00  0.00    +0.000 NA
ENDBRANCH   6  21
BRANCH  15  23
ATOM     23  O   UNL     1       2.001  12.130  17.894  0.00  0.00    +0.000 OA
ATOM     24  H   UNL     1       2.892  11.723  17.898  0.00  0.00    +0.000 HD
ENDBRANCH  15  23
TORSDOF 2
ENDMDL
MODEL 9
REMARK VINA RESULT:      -5.5      9.898     11.119
REMARK  Name = 
REMARK  6 active torsions:
REMARK  status: ('A' for Active; 'I' for Inactive)
REMARK    1  A    between atoms: C_1  and  C_2
REMARK    2  A    between atoms: C_2  and  C_3
REMARK    3  A    between atoms: C_6  and  C_7
REMARK    4  A    between atoms: C_10  and  C_11
REMARK    5  A    between atoms: C_17  and  O_18
REMARK    6  A    between atoms: C_19  and  C_20
REMARK                            x       y       z     vdW  Elec       q    Type
REMARK                         _______ _______ _______ _____ _____    ______ ____
ROOT
ATOM      1  C   UNL     1       0.828  11.544  18.797  0.00  0.00    +0.000 C 
ATOM      2  C   UNL     1      -0.871  11.960  18.707  0.00  0.00    +0.000 C 
ATOM      3  C   UNL     1      -0.416  13.412  18.403  0.00  0.00    +0.000 C 
ATOM      4  C   UNL     1      -0.772  11.002  19.869  0.00  0.00    +0.000 C 
ATOM      5  O   UNL     1      -0.877   9.777  19.687  0.00  0.00    +0.000 OA
ATOM      6  C   UNL     1      -0.682  11.572  21.285  0.00  0.00    +0.000 C 
ATOM      7  C   UNL     1      -1.887  11.495  21.716  0.00  0.00    +0.000 C 
ATOM      8  C   UNL     1      -2.565  12.619  21.016  0.00  0.00    +0.000 C 
ATOM      9  C   UNL     1      -1.888  14.013  21.061  0.00  0.00    +0.000 C 
ATOM     10  C   UNL     1      -3.754  12.775  21.882  0.00  0.00    +0.000 C 
ATOM     11  C   UNL     1      -3.588  12.619  23.253  0.00  0.00    +0.000 C 
ATOM     12  C   UNL     1      -4.697  12.682  24.199  0.00  0.00    +0.000 C 
ATOM     13  O   UNL     1      -4.541  12.256  25.340  0.00  0.00    +0.000 OA
ATOM     14  C   UNL     1      -5.877  13.414  23.676  0.00  0.00    +0.000 C 
ATOM     15  C   UNL     1      -6.212  12.969  22.237  0.00  0.00    +0.000 C 
ATOM     16  C   UNL     1      -5.034  13.083  21.177  0.00  0.00    +0.000 C 
ATOM     17  C   UNL     1      -5.000  14.509  20.594  0.00  0.00    +0.000 C 
ATOM     18  C   UNL     1      -5.088  12.099  19.933  0.00  0.00    +0.000 C 
ATOM     19  C   UNL     1      -3.906  12.256  18.833  0.00  0.00    +0.000 C 
ATOM     20  C   UNL     1      -2.529  12.028  19.503  0.00  0.00    +0.000 C 
ENDROOT
BRANCH   6  21
ATOM     21  C   UNL     1       0.517  10.714  21.659  0.00  0.00    +0.000 C 
ATOM     22  N   UNL     1       1.511  10.003  21.970  0.00  0.00    +0.000 NA
ENDBRANCH   6  21
BRANCH  15  23
ATOM     23  O   UNL     1      -7.319  13.791  21.856  0.00  0.00    +0.000 OA
ATOM     24  H   UNL     1      -7.541  13.579  20.927  0.00  0.00    +0.000 HD
ENDBRANCH  15  23
TORSDOF 2
ENDMDL
