MODEL 1
REMARK VINA RESULT:      -8.3      0.000      0.000
REMARK  Name = 
REMARK  6 active torsions:
REMARK  status: ('A' for Active; 'I' for Inactive)
REMARK    1  A    between atoms: N_1  and  C_2
REMARK    2  A    between atoms: C_5  and  C_6
REMARK    3  A    between atoms: C_8  and  C_9
REMARK    4  A    between atoms: C_14  and  C_15
REMARK    5  A    between atoms: C_20  and  C_21
REMARK    6  A    between atoms: C_21  and  C_23
REMARK                            x       y       z     vdW  Elec       q    Type
REMARK                         _______ _______ _______ _____ _____    ______ ____
ROOT
ATOM      1  C   UNL     1       2.527   3.129  20.171  0.00  0.00    +0.000 A 
ATOM      2  S   UNL     1       3.791   2.142  20.763  0.00  0.00    +0.000 S 
ATOM      3  C   UNL     1       4.904   2.769  19.647  0.00  0.00    +0.000 A 
ATOM      4  C   UNL     1       4.367   3.750  18.833  0.00  0.00    +0.000 A 
ATOM      5  C   UNL     1       2.948   3.964  19.139  0.00  0.00    +0.000 A 
ENDROOT
BRANCH   4   6
ATOM      6  C   UNL     1       5.232   4.444  17.858  0.00  0.00    +0.000 A 
ATOM      7  C   UNL     1       6.041   5.527  18.243  0.00  0.00    +0.000 A 
ATOM      8  C   UNL     1       6.819   6.232  17.306  0.00  0.00    +0.000 A 
ATOM      9  C   UNL     1       6.833   5.799  15.971  0.00  0.00    +0.000 A 
ATOM     10  C   UNL     1       6.052   4.712  15.562  0.00  0.00    +0.000 A 
ATOM     11  C   UNL     1       5.232   4.070  16.508  0.00  0.00    +0.000 A 
BRANCH   8  12
ATOM     12  C   UNL     1       7.610   7.455  17.709  0.00  0.00    +0.000 C 
ATOM     13  F   UNL     1       8.375   7.268  18.821  0.00  0.00    +0.000 F 
ATOM     14  F   UNL     1       8.460   7.878  16.733  0.00  0.00    +0.000 F 
ATOM     15  F   UNL     1       6.805   8.516  17.989  0.00  0.00    +0.000 F 
ENDBRANCH   8  12
BRANCH  10  16
ATOM     16  C   UNL     1       6.074   4.212  14.139  0.00  0.00    +0.000 C 
ATOM     17  F   UNL     1       6.406   2.898  14.030  0.00  0.00    +0.000 F 
ATOM     18  F   UNL     1       4.871   4.346  13.513  0.00  0.00    +0.000 F 
ATOM     19  F   UNL     1       6.974   4.887  13.368  0.00  0.00    +0.000 F 
ENDBRANCH  10  16
ENDBRANCH   4   6
BRANCH   1  20
ATOM     20  N   UNL     1       1.307   2.991  20.737  0.00  0.00    +0.000 N 
ATOM     21  H   UNL     1       1.078   3.598  21.521  0.00  0.00    +0.000 HD
ATOM     22  H   UNL     1       0.825   2.099  20.776  0.00  0.00    +0.000 HD
ENDBRANCH   1  20
BRANCH   5  23
ATOM     23  C   UNL     1       2.066   4.873  18.389  0.00  0.00    +0.000 C 
ATOM     24  O   UNL     1       1.371   4.463  17.460  0.00  0.00    +0.000 OA
BRANCH  23  25
ATOM     25  C   UNL     1       1.958   6.327  18.713  0.00  0.00    +0.000 A 
ATOM     26  C   UNL     1       2.083   7.239  17.653  0.00  0.00    +0.000 A 
ATOM     27  C   UNL     1       1.942   8.609  17.871  0.00  0.00    +0.000 A 
ATOM     28  C   UNL     1       1.676   9.090  19.154  0.00  0.00    +0.000 A 
ATOM     29 CL   UNL     1       1.454  10.793  19.343  0.00  0.00    +0.000 Cl
ATOM     30  C   UNL     1       1.590   8.193  20.225  0.00  0.00    +0.000 A 
ATOM     31 CL   UNL     1       1.251   8.717  21.837  0.00  0.00    +0.000 Cl
ATOM     32  C   UNL     1       1.754   6.816  20.010  0.00  0.00    +0.000 A 
ENDBRANCH  23  25
ENDBRANCH   5  23
TORSDOF 6
ENDMDL
MODEL 2
REMARK VINA RESULT:      -8.3      1.515      1.736
REMARK  Name = 
REMARK  6 active torsions:
REMARK  status: ('A' for Active; 'I' for Inactive)
REMARK    1  A    between atoms: N_1  and  C_2
REMARK    2  A    between atoms: C_5  and  C_6
REMARK    3  A    between atoms: C_8  and  C_9
REMARK    4  A    between atoms: C_14  and  C_15
REMARK    5  A    between atoms: C_20  and  C_21
REMARK    6  A    between atoms: C_21  and  C_23
REMARK                            x       y       z     vdW  Elec       q    Type
REMARK                         _______ _______ _______ _____ _____    ______ ____
ROOT
ATOM      1  C   UNL     1       1.321   3.159  19.519  0.00  0.00    +0.000 A 
ATOM      2  S   UNL     1       1.165   1.907  18.366  0.00  0.00    +0.000 S 
ATOM      3  C   UNL     1       2.578   2.378  17.554  0.00  0.00    +0.000 A 
ATOM      4  C   UNL     1       3.213   3.455  18.144  0.00  0.00    +0.000 A 
ATOM      5  C   UNL     1       2.464   3.928  19.314  0.00  0.00    +0.000 A 
ENDROOT
BRANCH   4   6
ATOM      6  C   UNL     1       4.497   3.936  17.595  0.00  0.00    +0.000 A 
ATOM      7  C   UNL     1       5.510   4.430  18.434  0.00  0.00    +0.000 A 
ATOM      8  C   UNL     1       6.709   4.948  17.912  0.00  0.00    +0.000 A 
ATOM      9  C   UNL     1       6.920   4.909  16.525  0.00  0.00    +0.000 A 
ATOM     10  C   UNL     1       5.936   4.406  15.665  0.00  0.00    +0.000 A 
ATOM     11  C   UNL     1       4.720   3.959  16.212  0.00  0.00    +0.000 A 
BRANCH   8  12
ATOM     12  C   UNL     1       7.752   5.567  18.815  0.00  0.00    +0.000 C 
ATOM     13  F   UNL     1       8.855   4.785  18.990  0.00  0.00    +0.000 F 
ATOM     14  F   UNL     1       8.208   6.762  18.350  0.00  0.00    +0.000 F 
ATOM     15  F   UNL     1       7.270   5.810  20.063  0.00  0.00    +0.000 F 
ENDBRANCH   8  12
BRANCH  10  16
ATOM     16  C   UNL     1       6.152   4.329  14.175  0.00  0.00    +0.000 C 
ATOM     17  F   UNL     1       6.603   3.116  13.754  0.00  0.00    +0.000 F 
ATOM     18  F   UNL     1       5.018   4.574  13.462  0.00  0.00    +0.000 F 
ATOM     19  F   UNL     1       7.071   5.238  13.738  0.00  0.00    +0.000 F 
ENDBRANCH  10  16
ENDBRANCH   4   6
BRANCH   1  20
ATOM     20  N   UNL     1       0.355   3.269  20.459  0.00  0.00    +0.000 N 
ATOM     21  H   UNL     1       0.521   2.832  21.362  0.00  0.00    +0.000 HD
ATOM     22  H   UNL     1      -0.630   3.317  20.221  0.00  0.00    +0.000 HD
ENDBRANCH   1  20
BRANCH   5  23
ATOM     23  C   UNL     1       2.824   5.116  20.105  0.00  0.00    +0.000 C 
ATOM     24  O   UNL     1       3.505   5.018  21.125  0.00  0.00    +0.000 OA
BRANCH  23  25
ATOM     25  C   UNL     1       2.398   6.492  19.715  0.00  0.00    +0.000 A 
ATOM     26  C   UNL     1       2.718   6.929  18.421  0.00  0.00    +0.000 A 
ATOM     27  C   UNL     1       2.307   8.183  17.969  0.00  0.00    +0.000 A 
ATOM     28  C   UNL     1       1.572   9.023  18.807  0.00  0.00    +0.000 A 
ATOM     29 CL   UNL     1       1.045  10.537  18.164  0.00  0.00    +0.000 Cl
ATOM     30  C   UNL     1       1.283   8.614  20.114  0.00  0.00    +0.000 A 
ATOM     31 CL   UNL     1       0.366   9.597  21.202  0.00  0.00    +0.000 Cl
ATOM     32  C   UNL     1       1.714   7.362  20.576  0.00  0.00    +0.000 A 
ENDBRANCH  23  25
ENDBRANCH   5  23
TORSDOF 6
ENDMDL
MODEL 3
REMARK VINA RESULT:      -8.2      0.078      3.215
REMARK  Name = 
REMARK  6 active torsions:
REMARK  status: ('A' for Active; 'I' for Inactive)
REMARK    1  A    between atoms: N_1  and  C_2
REMARK    2  A    between atoms: C_5  and  C_6
REMARK    3  A    between atoms: C_8  and  C_9
REMARK    4  A    between atoms: C_14  and  C_15
REMARK    5  A    between atoms: C_20  and  C_21
REMARK    6  A    between atoms: C_21  and  C_23
REMARK                            x       y       z     vdW  Elec       q    Type
REMARK                         _______ _______ _______ _____ _____    ______ ____
ROOT
ATOM      1  C   UNL     1       2.544   3.137  20.158  0.00  0.00    +0.000 A 
ATOM      2  S   UNL     1       3.836   2.162  20.709  0.00  0.00    +0.000 S 
ATOM      3  C   UNL     1       4.907   2.805  19.563  0.00  0.00    +0.000 A 
ATOM      4  C   UNL     1       4.336   3.784  18.769  0.00  0.00    +0.000 A 
ATOM      5  C   UNL     1       2.924   3.980  19.117  0.00  0.00    +0.000 A 
ENDROOT
BRANCH   4   6
ATOM      6  C   UNL     1       5.164   4.491  17.772  0.00  0.00    +0.000 A 
ATOM      7  C   UNL     1       5.183   4.091  16.425  0.00  0.00    +0.000 A 
ATOM      8  C   UNL     1       6.017   4.720  15.483  0.00  0.00    +0.000 A 
ATOM      9  C   UNL     1       6.798   5.814  15.889  0.00  0.00    +0.000 A 
ATOM     10  C   UNL     1       6.785   6.247  17.221  0.00  0.00    +0.000 A 
ATOM     11  C   UNL     1       5.993   5.554  18.154  0.00  0.00    +0.000 A 
BRANCH   8  12
ATOM     12  C   UNL     1       6.105   4.221  14.059  0.00  0.00    +0.000 C 
ATOM     13  F   UNL     1       4.931   4.319  13.373  0.00  0.00    +0.000 F 
ATOM     14  F   UNL     1       7.029   4.895  13.321  0.00  0.00    +0.000 F 
ATOM     15  F   UNL     1       6.460   2.910  13.996  0.00  0.00    +0.000 F 
ENDBRANCH   8  12
BRANCH  10  16
ATOM     16  C   UNL     1       7.595   7.436  17.674  0.00  0.00    +0.000 C 
ATOM     17  F   UNL     1       8.334   7.196  18.790  0.00  0.00    +0.000 F 
ATOM     18  F   UNL     1       8.476   7.867  16.729  0.00  0.00    +0.000 F 
ATOM     19  F   UNL     1       6.811   8.512  17.972  0.00  0.00    +0.000 F 
ENDBRANCH  10  16
ENDBRANCH   4   6
BRANCH   1  20
ATOM     20  N   UNL     1       1.342   2.982  20.759  0.00  0.00    +0.000 N 
ATOM     21  H   UNL     1       0.639   3.700  20.603  0.00  0.00    +0.000 HD
ATOM     22  H   UNL     1       1.241   2.522  21.657  0.00  0.00    +0.000 HD
ENDBRANCH   1  20
BRANCH   5  23
ATOM     23  C   UNL     1       2.010   4.881  18.397  0.00  0.00    +0.000 C 
ATOM     24  O   UNL     1       1.266   4.459  17.512  0.00  0.00    +0.000 OA
BRANCH  23  25
ATOM     25  C   UNL     1       1.926   6.341  18.700  0.00  0.00    +0.000 A 
ATOM     26  C   UNL     1       2.053   7.235  17.625  0.00  0.00    +0.000 A 
ATOM     27  C   UNL     1       1.933   8.610  17.823  0.00  0.00    +0.000 A 
ATOM     28  C   UNL     1       1.689   9.114  19.102  0.00  0.00    +0.000 A 
ATOM     29 CL   UNL     1       1.494  10.823  19.267  0.00  0.00    +0.000 Cl
ATOM     30  C   UNL     1       1.603   8.235  20.187  0.00  0.00    +0.000 A 
ATOM     31 CL   UNL     1       1.290   8.788  21.795  0.00  0.00    +0.000 Cl
ATOM     32  C   UNL     1       1.744   6.853  19.992  0.00  0.00    +0.000 A 
ENDBRANCH  23  25
ENDBRANCH   5  23
TORSDOF 6
ENDMDL
MODEL 4
REMARK VINA RESULT:      -8.2      1.509      3.467
REMARK  Name = 
REMARK  6 active torsions:
REMARK  status: ('A' for Active; 'I' for Inactive)
REMARK    1  A    between atoms: N_1  and  C_2
REMARK    2  A    between atoms: C_5  and  C_6
REMARK    3  A    between atoms: C_8  and  C_9
REMARK    4  A    between atoms: C_14  and  C_15
REMARK    5  A    between atoms: C_20  and  C_21
REMARK    6  A    between atoms: C_21  and  C_23
REMARK                            x       y       z     vdW  Elec       q    Type
REMARK                         _______ _______ _______ _____ _____    ______ ____
ROOT
ATOM      1  C   UNL     1       1.338   3.207  19.529  0.00  0.00    +0.000 A 
ATOM      2  S   UNL     1       1.178   1.956  18.374  0.00  0.00    +0.000 S 
ATOM      3  C   UNL     1       2.565   2.452  17.534  0.00  0.00    +0.000 A 
ATOM      4  C   UNL     1       3.196   3.537  18.115  0.00  0.00    +0.000 A 
ATOM      5  C   UNL     1       2.464   3.994  19.302  0.00  0.00    +0.000 A 
ENDROOT
BRANCH   4   6
ATOM      6  C   UNL     1       4.460   4.041  17.541  0.00  0.00    +0.000 A 
ATOM      7  C   UNL     1       4.688   4.024  16.154  0.00  0.00    +0.000 A 
ATOM      8  C   UNL     1       5.914   4.443  15.606  0.00  0.00    +0.000 A 
ATOM      9  C   UNL     1       6.905   4.949  16.463  0.00  0.00    +0.000 A 
ATOM     10  C   UNL     1       6.698   4.996  17.847  0.00  0.00    +0.000 A 
ATOM     11  C   UNL     1       5.489   4.506  18.371  0.00  0.00    +0.000 A 
BRANCH   8  12
ATOM     12  C   UNL     1       6.188   4.330  14.124  0.00  0.00    +0.000 C 
ATOM     13  F   UNL     1       7.138   5.199  13.676  0.00  0.00    +0.000 F 
ATOM     14  F   UNL     1       6.611   3.089  13.760  0.00  0.00    +0.000 F 
ATOM     15  F   UNL     1       5.078   4.580  13.378  0.00  0.00    +0.000 F 
ENDBRANCH   8  12
BRANCH  10  16
ATOM     16  C   UNL     1       7.737   5.561  18.783  0.00  0.00    +0.000 C 
ATOM     17  F   UNL     1       8.830   4.764  18.925  0.00  0.00    +0.000 F 
ATOM     18  F   UNL     1       8.209   6.773  18.379  0.00  0.00    +0.000 F 
ATOM     19  F   UNL     1       7.250   5.751  20.043  0.00  0.00    +0.000 F 
ENDBRANCH  10  16
ENDBRANCH   4   6
BRANCH   1  20
ATOM     20  N   UNL     1       0.390   3.298  20.488  0.00  0.00    +0.000 N 
ATOM     21  H   UNL     1      -0.495   2.823  20.326  0.00  0.00    +0.000 HD
ATOM     22  H   UNL     1       0.294   4.116  21.080  0.00  0.00    +0.000 HD
ENDBRANCH   1  20
BRANCH   5  23
ATOM     23  C   UNL     1       2.822   5.185  20.090  0.00  0.00    +0.000 C 
ATOM     24  O   UNL     1       3.524   5.094  21.096  0.00  0.00    +0.000 OA
BRANCH  23  25
ATOM     25  C   UNL     1       2.368   6.556  19.714  0.00  0.00    +0.000 A 
ATOM     26  C   UNL     1       2.629   6.990  18.404  0.00  0.00    +0.000 A 
ATOM     27  C   UNL     1       2.189   8.238  17.966  0.00  0.00    +0.000 A 
ATOM     28  C   UNL     1       1.483   9.076  18.831  0.00  0.00    +0.000 A 
ATOM     29 CL   UNL     1       0.916  10.583  18.205  0.00  0.00    +0.000 Cl
ATOM     30  C   UNL     1       1.254   8.671  20.151  0.00  0.00    +0.000 A 
ATOM     31 CL   UNL     1       0.376   9.651  21.273  0.00  0.00    +0.000 Cl
ATOM     32  C   UNL     1       1.715   7.424  20.599  0.00  0.00    +0.000 A 
ENDBRANCH  23  25
ENDBRANCH   5  23
TORSDOF 6
ENDMDL
MODEL 5
REMARK VINA RESULT:      -8.1      1.426      1.789
REMARK  Name = 
REMARK  6 active torsions:
REMARK  status: ('A' for Active; 'I' for Inactive)
REMARK    1  A    between atoms: N_1  and  C_2
REMARK    2  A    between atoms: C_5  and  C_6
REMARK    3  A    between atoms: C_8  and  C_9
REMARK    4  A    between atoms: C_14  and  C_15
REMARK    5  A    between atoms: C_20  and  C_21
REMARK    6  A    between atoms: C_21  and  C_23
REMARK                            x       y       z     vdW  Elec       q    Type
REMARK                         _______ _______ _______ _____ _____    ______ ____
ROOT
ATOM      1  C   UNL     1       1.567   3.767  19.381  0.00  0.00    +0.000 A 
ATOM      2  S   UNL     1       1.289   2.454  18.324  0.00  0.00    +0.000 S 
ATOM      3  C   UNL     1       2.558   2.914  17.297  0.00  0.00    +0.000 A 
ATOM      4  C   UNL     1       3.237   4.035  17.739  0.00  0.00    +0.000 A 
ATOM      5  C   UNL     1       2.646   4.551  18.979  0.00  0.00    +0.000 A 
ENDROOT
BRANCH   4   6
ATOM      6  C   UNL     1       4.415   4.517  16.990  0.00  0.00    +0.000 A 
ATOM      7  C   UNL     1       5.310   5.441  17.556  0.00  0.00    +0.000 A 
ATOM      8  C   UNL     1       6.399   5.952  16.824  0.00  0.00    +0.000 A 
ATOM      9  C   UNL     1       6.628   5.476  15.524  0.00  0.00    +0.000 A 
ATOM     10  C   UNL     1       5.764   4.541  14.942  0.00  0.00    +0.000 A 
ATOM     11  C   UNL     1       4.645   4.101  15.672  0.00  0.00    +0.000 A 
BRANCH   8  12
ATOM     12  C   UNL     1       7.299   7.018  17.405  0.00  0.00    +0.000 C 
ATOM     13  F   UNL     1       6.633   8.137  17.805  0.00  0.00    +0.000 F 
ATOM     14  F   UNL     1       7.995   6.585  18.492  0.00  0.00    +0.000 F 
ATOM     15  F   UNL     1       8.232   7.444  16.511  0.00  0.00    +0.000 F 
ENDBRANCH   8  12
BRANCH  10  16
ATOM     16  C   UNL     1       6.006   3.995  13.557  0.00  0.00    +0.000 C 
ATOM     17  F   UNL     1       4.902   4.019  12.763  0.00  0.00    +0.000 F 
ATOM     18  F   UNL     1       6.968   4.680  12.879  0.00  0.00    +0.000 F 
ATOM     19  F   UNL     1       6.419   2.695  13.578  0.00  0.00    +0.000 F 
ENDBRANCH  10  16
ENDBRANCH   4   6
BRANCH   1  20
ATOM     20  N   UNL     1       0.740   3.903  20.442  0.00  0.00    +0.000 N 
ATOM     21  H   UNL     1       1.123   3.725  21.368  0.00  0.00    +0.000 HD
ATOM     22  H   UNL     1      -0.254   3.706  20.384  0.00  0.00    +0.000 HD
ENDBRANCH   1  20
BRANCH   5  23
ATOM     23  C   UNL     1       3.078   5.786  19.653  0.00  0.00    +0.000 C 
ATOM     24  O   UNL     1       4.053   5.794  20.402  0.00  0.00    +0.000 OA
BRANCH  23  25
ATOM     25  C   UNL     1       2.371   7.087  19.461  0.00  0.00    +0.000 A 
ATOM     26  C   UNL     1       2.395   7.656  18.178  0.00  0.00    +0.000 A 
ATOM     27  C   UNL     1       1.714   8.843  17.912  0.00  0.00    +0.000 A 
ATOM     28  C   UNL     1       1.001   9.484  18.926  0.00  0.00    +0.000 A 
ATOM     29 CL   UNL     1       0.132  10.919  18.513  0.00  0.00    +0.000 Cl
ATOM     30  C   UNL     1       1.005   8.948  20.218  0.00  0.00    +0.000 A 
ATOM     31 CL   UNL     1       0.133   9.681  21.519  0.00  0.00    +0.000 Cl
ATOM     32  C   UNL     1       1.707   7.765  20.493  0.00  0.00    +0.000 A 
ENDBRANCH  23  25
ENDBRANCH   5  23
TORSDOF 6
ENDMDL
MODEL 6
REMARK VINA RESULT:      -8.1      1.449      3.535
REMARK  Name = 
REMARK  6 active torsions:
REMARK  status: ('A' for Active; 'I' for Inactive)
REMARK    1  A    between atoms: N_1  and  C_2
REMARK    2  A    between atoms: C_5  and  C_6
REMARK    3  A    between atoms: C_8  and  C_9
REMARK    4  A    between atoms: C_14  and  C_15
REMARK    5  A    between atoms: C_20  and  C_21
REMARK    6  A    between atoms: C_21  and  C_23
REMARK                            x       y       z     vdW  Elec       q    Type
REMARK                         _______ _______ _______ _____ _____    ______ ____
ROOT
ATOM      1  C   UNL     1       1.578   3.804  19.401  0.00  0.00    +0.000 A 
ATOM      2  S   UNL     1       1.276   2.487  18.354  0.00  0.00    +0.000 S 
ATOM      3  C   UNL     1       2.512   2.954  17.290  0.00  0.00    +0.000 A 
ATOM      4  C   UNL     1       3.197   4.080  17.710  0.00  0.00    +0.000 A 
ATOM      5  C   UNL     1       2.640   4.594  18.966  0.00  0.00    +0.000 A 
ENDROOT
BRANCH   4   6
ATOM      6  C   UNL     1       4.350   4.567  16.926  0.00  0.00    +0.000 A 
ATOM      7  C   UNL     1       4.583   4.117  15.616  0.00  0.00    +0.000 A 
ATOM      8  C   UNL     1       5.714   4.529  14.887  0.00  0.00    +0.000 A 
ATOM      9  C   UNL     1       6.591   5.462  15.462  0.00  0.00    +0.000 A 
ATOM     10  C   UNL     1       6.374   5.943  16.759  0.00  0.00    +0.000 A 
ATOM     11  C   UNL     1       5.273   5.459  17.488  0.00  0.00    +0.000 A 
BRANCH   8  12
ATOM     12  C   UNL     1       6.009   3.965  13.516  0.00  0.00    +0.000 C 
ATOM     13  F   UNL     1       6.969   4.655  12.837  0.00  0.00    +0.000 F 
ATOM     14  F   UNL     1       6.434   2.672  13.559  0.00  0.00    +0.000 F 
ATOM     15  F   UNL     1       4.912   3.971  12.712  0.00  0.00    +0.000 F 
ENDBRANCH   8  12
BRANCH  10  16
ATOM     16  C   UNL     1       7.287   6.965  17.387  0.00  0.00    +0.000 C 
ATOM     17  F   UNL     1       7.981   6.490  18.456  0.00  0.00    +0.000 F 
ATOM     18  F   UNL     1       8.222   7.443  16.519  0.00  0.00    +0.000 F 
ATOM     19  F   UNL     1       6.607   8.057  17.842  0.00  0.00    +0.000 F 
ENDBRANCH  10  16
ENDBRANCH   4   6
BRANCH   1  20
ATOM     20  N   UNL     1       0.781   3.937  20.486  0.00  0.00    +0.000 N 
ATOM     21  H   UNL     1       1.104   3.533  21.362  0.00  0.00    +0.000 HD
ATOM     22  H   UNL     1      -0.230   3.966  20.416  0.00  0.00    +0.000 HD
ENDBRANCH   1  20
BRANCH   5  23
ATOM     23  C   UNL     1       3.084   5.832  19.625  0.00  0.00    +0.000 C 
ATOM     24  O   UNL     1       4.080   5.847  20.347  0.00  0.00    +0.000 OA
BRANCH  23  25
ATOM     25  C   UNL     1       2.365   7.130  19.451  0.00  0.00    +0.000 A 
ATOM     26  C   UNL     1       2.395   7.722  18.179  0.00  0.00    +0.000 A 
ATOM     27  C   UNL     1       1.704   8.907  17.928  0.00  0.00    +0.000 A 
ATOM     28  C   UNL     1       0.975   9.522  18.947  0.00  0.00    +0.000 A 
ATOM     29 CL   UNL     1       0.095  10.955  18.553  0.00  0.00    +0.000 Cl
ATOM     30  C   UNL     1       0.972   8.962  20.230  0.00  0.00    +0.000 A 
ATOM     31 CL   UNL     1       0.081   9.662  21.536  0.00  0.00    +0.000 Cl
ATOM     32  C   UNL     1       1.685   7.782  20.489  0.00  0.00    +0.000 A 
ENDBRANCH  23  25
ENDBRANCH   5  23
TORSDOF 6
ENDMDL
MODEL 7
REMARK VINA RESULT:      -7.8      0.561      1.444
REMARK  Name = 
REMARK  6 active torsions:
REMARK  status: ('A' for Active; 'I' for Inactive)
REMARK    1  A    between atoms: N_1  and  C_2
REMARK    2  A    between atoms: C_5  and  C_6
REMARK    3  A    between atoms: C_8  and  C_9
REMARK    4  A    between atoms: C_14  and  C_15
REMARK    5  A    between atoms: C_20  and  C_21
REMARK    6  A    between atoms: C_21  and  C_23
REMARK                            x       y       z     vdW  Elec       q    Type
REMARK                         _______ _______ _______ _____ _____    ______ ____
ROOT
ATOM      1  C   UNL     1       2.546   3.199  20.272  0.00  0.00    +0.000 A 
ATOM      2  S   UNL     1       3.787   2.145  20.793  0.00  0.00    +0.000 S 
ATOM      3  C   UNL     1       4.887   2.759  19.658  0.00  0.00    +0.000 A 
ATOM      4  C   UNL     1       4.365   3.785  18.891  0.00  0.00    +0.000 A 
ATOM      5  C   UNL     1       2.967   4.047  19.250  0.00  0.00    +0.000 A 
ENDROOT
BRANCH   4   6
ATOM      6  C   UNL     1       5.226   4.472  17.907  0.00  0.00    +0.000 A 
ATOM      7  C   UNL     1       6.042   5.552  18.281  0.00  0.00    +0.000 A 
ATOM      8  C   UNL     1       6.816   6.251  17.336  0.00  0.00    +0.000 A 
ATOM      9  C   UNL     1       6.819   5.814  16.003  0.00  0.00    +0.000 A 
ATOM     10  C   UNL     1       6.030   4.728  15.604  0.00  0.00    +0.000 A 
ATOM     11  C   UNL     1       5.214   4.093  16.558  0.00  0.00    +0.000 A 
BRANCH   8  12
ATOM     12  C   UNL     1       7.615   7.472  17.729  0.00  0.00    +0.000 C 
ATOM     13  F   UNL     1       8.388   7.286  18.836  0.00  0.00    +0.000 F 
ATOM     14  F   UNL     1       8.460   7.888  16.746  0.00  0.00    +0.000 F 
ATOM     15  F   UNL     1       6.818   8.538  18.012  0.00  0.00    +0.000 F 
ENDBRANCH   8  12
BRANCH  10  16
ATOM     16  C   UNL     1       6.039   4.224  14.182  0.00  0.00    +0.000 C 
ATOM     17  F   UNL     1       4.835   4.341  13.558  0.00  0.00    +0.000 F 
ATOM     18  F   UNL     1       6.933   4.881  13.393  0.00  0.00    +0.000 F 
ATOM     19  F   UNL     1       6.370   2.903  14.104  0.00  0.00    +0.000 F 
ENDBRANCH  10  16
ENDBRANCH   4   6
BRANCH   1  20
ATOM     20  N   UNL     1       1.341   3.094  20.875  0.00  0.00    +0.000 N 
ATOM     21  H   UNL     1       0.791   2.257  20.691  0.00  0.00    +0.000 HD
ATOM     22  H   UNL     1       0.766   3.903  21.084  0.00  0.00    +0.000 HD
ENDBRANCH   1  20
BRANCH   5  23
ATOM     23  C   UNL     1       2.100   5.012  18.556  0.00  0.00    +0.000 C 
ATOM     24  O   UNL     1       1.535   4.717  17.503  0.00  0.00    +0.000 OA
BRANCH  23  25
ATOM     25  C   UNL     1       1.850   6.385  19.086  0.00  0.00    +0.000 A 
ATOM     26  C   UNL     1       1.467   6.501  20.431  0.00  0.00    +0.000 A 
ATOM     27  C   UNL     1       1.266   7.754  21.010  0.00  0.00    +0.000 A 
ATOM     28  C   UNL     1       1.442   8.912  20.252  0.00  0.00    +0.000 A 
ATOM     29 CL   UNL     1       1.236  10.432  21.047  0.00  0.00    +0.000 Cl
ATOM     30  C   UNL     1       1.784   8.807  18.899  0.00  0.00    +0.000 A 
ATOM     31 CL   UNL     1       2.031  10.198  17.903  0.00  0.00    +0.000 Cl
ATOM     32  C   UNL     1       1.964   7.547  18.310  0.00  0.00    +0.000 A 
ENDBRANCH  23  25
ENDBRANCH   5  23
TORSDOF 6
ENDMDL
MODEL 8
REMARK VINA RESULT:      -7.8      0.562      3.454
REMARK  Name = 
REMARK  6 active torsions:
REMARK  status: ('A' for Active; 'I' for Inactive)
REMARK    1  A    between atoms: N_1  and  C_2
REMARK    2  A    between atoms: C_5  and  C_6
REMARK    3  A    between atoms: C_8  and  C_9
REMARK    4  A    between atoms: C_14  and  C_15
REMARK    5  A    between atoms: C_20  and  C_21
REMARK    6  A    between atoms: C_21  and  C_23
REMARK                            x       y       z     vdW  Elec       q    Type
REMARK                         _______ _______ _______ _____ _____    ______ ____
ROOT
ATOM      1  C   UNL     1       2.676   3.110  20.300  0.00  0.00    +0.000 A 
ATOM      2  S   UNL     1       3.977   2.109  20.777  0.00  0.00    +0.000 S 
ATOM      3  C   UNL     1       5.011   2.766  19.604  0.00  0.00    +0.000 A 
ATOM      4  C   UNL     1       4.420   3.768  18.855  0.00  0.00    +0.000 A 
ATOM      5  C   UNL     1       3.025   3.972  19.263  0.00  0.00    +0.000 A 
ENDROOT
BRANCH   4   6
ATOM      6  C   UNL     1       5.216   4.488  17.842  0.00  0.00    +0.000 A 
ATOM      7  C   UNL     1       5.213   4.090  16.494  0.00  0.00    +0.000 A 
ATOM      8  C   UNL     1       6.018   4.732  15.536  0.00  0.00    +0.000 A 
ATOM      9  C   UNL     1       6.792   5.836  15.927  0.00  0.00    +0.000 A 
ATOM     10  C   UNL     1       6.800   6.268  17.259  0.00  0.00    +0.000 A 
ATOM     11  C   UNL     1       6.038   5.562  18.208  0.00  0.00    +0.000 A 
BRANCH   8  12
ATOM     12  C   UNL     1       6.083   4.236  14.110  0.00  0.00    +0.000 C 
ATOM     13  F   UNL     1       6.443   2.926  14.003  0.00  0.00    +0.000 F 
ATOM     14  F   UNL     1       4.894   4.354  13.457  0.00  0.00    +0.000 F 
ATOM     15  F   UNL     1       6.988   4.929  13.366  0.00  0.00    +0.000 F 
ENDBRANCH   8  12
BRANCH  10  16
ATOM     16  C   UNL     1       7.602   7.468  17.697  0.00  0.00    +0.000 C 
ATOM     17  F   UNL     1       6.835   8.547  18.011  0.00  0.00    +0.000 F 
ATOM     18  F   UNL     1       8.367   7.222  18.796  0.00  0.00    +0.000 F 
ATOM     19  F   UNL     1       8.464   7.895  16.729  0.00  0.00    +0.000 F 
ENDBRANCH  10  16
ENDBRANCH   4   6
BRANCH   1  20
ATOM     20  N   UNL     1       1.498   2.955  20.944  0.00  0.00    +0.000 N 
ATOM     21  H   UNL     1       1.507   2.990  21.961  0.00  0.00    +0.000 HD
ATOM     22  H   UNL     1       0.750   2.376  20.577  0.00  0.00    +0.000 HD
ENDBRANCH   1  20
BRANCH   5  23
ATOM     23  C   UNL     1       2.095   4.899  18.599  0.00  0.00    +0.000 C 
ATOM     24  O   UNL     1       1.468   4.561  17.595  0.00  0.00    +0.000 OA
BRANCH  23  25
ATOM     25  C   UNL     1       1.852   6.283  19.104  0.00  0.00    +0.000 A 
ATOM     26  C   UNL     1       1.456   6.426  20.443  0.00  0.00    +0.000 A 
ATOM     27  C   UNL     1       1.261   7.690  20.998  0.00  0.00    +0.000 A 
ATOM     28  C   UNL     1       1.455   8.833  20.222  0.00  0.00    +0.000 A 
ATOM     29 CL   UNL     1       1.254  10.368  20.988  0.00  0.00    +0.000 Cl
ATOM     30  C   UNL     1       1.810   8.702  18.874  0.00  0.00    +0.000 A 
ATOM     31 CL   UNL     1       2.080  10.074  17.857  0.00  0.00    +0.000 Cl
ATOM     32  C   UNL     1       1.985   7.430  18.309  0.00  0.00    +0.000 A 
ENDBRANCH  23  25
ENDBRANCH   5  23
TORSDOF 6
ENDMDL
MODEL 9
REMARK VINA RESULT:      -7.7      1.608      3.711
REMARK  Name = 
REMARK  6 active torsions:
REMARK  status: ('A' for Active; 'I' for Inactive)
REMARK    1  A    between atoms: N_1  and  C_2
REMARK    2  A    between atoms: C_5  and  C_6
REMARK    3  A    between atoms: C_8  and  C_9
REMARK    4  A    between atoms: C_14  and  C_15
REMARK    5  A    between atoms: C_20  and  C_21
REMARK    6  A    between atoms: C_21  and  C_23
REMARK                            x       y       z     vdW  Elec       q    Type
REMARK                         _______ _______ _______ _____ _____    ______ ____
ROOT
ATOM      1  C   UNL     1       1.307   3.289  19.515  0.00  0.00    +0.000 A 
ATOM      2  S   UNL     1       1.071   2.091  18.319  0.00  0.00    +0.000 S 
ATOM      3  C   UNL     1       2.459   2.563  17.467  0.00  0.00    +0.000 A 
ATOM      4  C   UNL     1       3.146   3.599  18.073  0.00  0.00    +0.000 A 
ATOM      5  C   UNL     1       2.459   4.039  19.292  0.00  0.00    +0.000 A 
ENDROOT
BRANCH   4   6
ATOM      6  C   UNL     1       4.417   4.073  17.488  0.00  0.00    +0.000 A 
ATOM      7  C   UNL     1       4.642   4.029  16.102  0.00  0.00    +0.000 A 
ATOM      8  C   UNL     1       5.874   4.420  15.545  0.00  0.00    +0.000 A 
ATOM      9  C   UNL     1       6.873   4.926  16.392  0.00  0.00    +0.000 A 
ATOM     10  C   UNL     1       6.670   4.999  17.775  0.00  0.00    +0.000 A 
ATOM     11  C   UNL     1       5.454   4.537  18.309  0.00  0.00    +0.000 A 
BRANCH   8  12
ATOM     12  C   UNL     1       6.143   4.278  14.065  0.00  0.00    +0.000 C 
ATOM     13  F   UNL     1       6.592   3.041  13.708  0.00  0.00    +0.000 F 
ATOM     14  F   UNL     1       5.039   4.512  13.304  0.00  0.00    +0.000 F 
ATOM     15  F   UNL     1       7.090   5.153  13.629  0.00  0.00    +0.000 F 
ENDBRANCH   8  12
BRANCH  10  16
ATOM     16  C   UNL     1       7.718   5.565  18.700  0.00  0.00    +0.000 C 
ATOM     17  F   UNL     1       8.210   6.766  18.293  0.00  0.00    +0.000 F 
ATOM     18  F   UNL     1       7.257   5.760  19.966  0.00  0.00    +0.000 F 
ATOM     19  F   UNL     1       8.800   4.743  18.819  0.00  0.00    +0.000 F 
ENDBRANCH  10  16
ENDBRANCH   4   6
BRANCH   1  20
ATOM     20  N   UNL     1       0.385   3.382  20.499  0.00  0.00    +0.000 N 
ATOM     21  H   UNL     1      -0.596   3.391  20.229  0.00  0.00    +0.000 HD
ATOM     22  H   UNL     1       0.560   3.887  21.361  0.00  0.00    +0.000 HD
ENDBRANCH   1  20
BRANCH   5  23
ATOM     23  C   UNL     1       2.882   5.184  20.115  0.00  0.00    +0.000 C 
ATOM     24  O   UNL     1       3.800   5.079  20.927  0.00  0.00    +0.000 OA
BRANCH  23  25
ATOM     25  C   UNL     1       2.235   6.525  20.007  0.00  0.00    +0.000 A 
ATOM     26  C   UNL     1       1.427   6.944  21.075  0.00  0.00    +0.000 A 
ATOM     27  C   UNL     1       0.833   8.205  21.069  0.00  0.00    +0.000 A 
ATOM     28  C   UNL     1       1.034   9.068  19.991  0.00  0.00    +0.000 A 
ATOM     29 CL   UNL     1       0.317  10.638  20.074  0.00  0.00    +0.000 Cl
ATOM     30  C   UNL     1       1.804   8.645  18.901  0.00  0.00    +0.000 A 
ATOM     31 CL   UNL     1       2.106   9.666  17.538  0.00  0.00    +0.000 Cl
ATOM     32  C   UNL     1       2.385   7.369  18.897  0.00  0.00    +0.000 A 
ENDBRANCH  23  25
ENDBRANCH   5  23
TORSDOF 6
ENDMDL
