MODEL 1
REMARK VINA RESULT:      -8.2      0.000      0.000
REMARK  Name = 
REMARK  12 active torsions:
REMARK  status: ('A' for Active; 'I' for Inactive)
REMARK    1  A    between atoms: C_1  and  C_2
REMARK    2  A    between atoms: C_8  and  N_9
REMARK    3  A    between atoms: N_9  and  C_10
REMARK    4  A    between atoms: C_10  and  C_11
REMARK    5  A    between atoms: C_14  and  C_15
REMARK    6  A    between atoms: C_15  and  C_16
REMARK    7  A    between atoms: C_15  and  C_17
REMARK    8  A    between atoms: C_15  and  C_18
REMARK    9  A    between atoms: C_23  and  C_24
REMARK   10  A    between atoms: C_23  and  C_25
REMARK   11  A    between atoms: C_32  and  C_33
REMARK   12  A    between atoms: C_32  and  C_34
REMARK                            x       y       z     vdW  Elec       q    Type
REMARK                         _______ _______ _______ _____ _____    ______ ____
ROOT
ATOM      1  C   UNL     1       7.146   5.169  15.447  0.00  0.00    +0.000 C 
ATOM      2  C   UNL     1       6.209   6.017  16.267  0.00  0.00    +0.000 C 
ATOM      3  O   UNL     1       6.604   7.173  16.455  0.00  0.00    +0.000 OA
ATOM      4  N   UNL     1       4.986   5.468  16.724  0.00  0.00    +0.000 N 
ATOM      5  C   UNL     1       3.963   6.364  17.325  0.00  0.00    +0.000 A 
ATOM      6  C   UNL     1       4.110   7.763  17.368  0.00  0.00    +0.000 A 
ATOM      7  C   UNL     1       3.201   8.633  18.006  0.00  0.00    +0.000 A 
ATOM      8  C   UNL     1       2.043   8.154  18.593  0.00  0.00    +0.000 A 
ATOM      9  C   UNL     1       1.863   6.778  18.551  0.00  0.00    +0.000 A 
ATOM     10  C   UNL     1       2.774   5.875  17.914  0.00  0.00    +0.000 A 
ATOM     11  C   UNL     1       2.374   4.399  17.927  0.00  0.00    +0.000 C 
ATOM     12  C   UNL     1       0.998   4.298  17.176  0.00  0.00    +0.000 C 
ATOM     13  C   UNL     1       3.348   3.589  17.079  0.00  0.00    +0.000 C 
ATOM     14  C   UNL     1       4.839   3.998  17.108  0.00  0.00    +0.000 C 
ATOM     15  C   UNL     1       5.531   3.793  18.468  0.00  0.00    +0.000 C 
ATOM     16  C   UNL     1       5.471   2.943  16.152  0.00  0.00    +0.000 C 
ENDROOT
BRANCH  11  17
ATOM     17  C   UNL     1       2.218   3.820  19.361  0.00  0.00    +0.000 A 
ATOM     18  C   UNL     1       1.561   2.598  19.595  0.00  0.00    +0.000 A 
ATOM     19  C   UNL     1       1.254   2.167  20.891  0.00  0.00    +0.000 A 
ATOM     20  C   UNL     1       1.651   2.920  21.989  0.00  0.00    +0.000 A 
ATOM     21  C   UNL     1       2.374   4.088  21.794  0.00  0.00    +0.000 A 
ATOM     22  C   UNL     1       2.645   4.537  20.497  0.00  0.00    +0.000 A 
ENDBRANCH  11  17
BRANCH   8  23
ATOM     23  N   UNL     1       1.149   8.936  19.323  0.00  0.00    +0.000 N 
ATOM     24  H   UNL     1       1.205   9.923  19.089  0.00  0.00    +0.000 HD
BRANCH  23  25
ATOM     25  C   UNL     1       0.986   8.719  20.754  0.00  0.00    +0.000 C 
BRANCH  25  26
ATOM     26  C   UNL     1       0.167   9.850  21.330  0.00  0.00    +0.000 A 
ATOM     27  C   UNL     1      -0.335   9.762  22.632  0.00  0.00    +0.000 A 
ATOM     28  C   UNL     1      -1.151  10.769  23.154  0.00  0.00    +0.000 A 
ATOM     29  C   UNL     1      -1.517  11.892  22.394  0.00  0.00    +0.000 A 
ATOM     30  C   UNL     1      -0.989  11.980  21.093  0.00  0.00    +0.000 A 
ATOM     31  C   UNL     1      -0.164  10.976  20.567  0.00  0.00    +0.000 A 
BRANCH  29  32
ATOM     32  C   UNL     1      -2.480  12.969  22.929  0.00  0.00    +0.000 C 
ATOM     33  C   UNL     1      -3.540  12.406  23.904  0.00  0.00    +0.000 C 
ATOM     34  C   UNL     1      -1.698  14.067  23.682  0.00  0.00    +0.000 C 
ATOM     35  C   UNL     1      -3.245  13.624  21.758  0.00  0.00    +0.000 C 
ENDBRANCH  29  32
ENDBRANCH  25  26
ENDBRANCH  23  25
ENDBRANCH   8  23
TORSDOF 5
ENDMDL
MODEL 2
REMARK VINA RESULT:      -8.0      0.298      1.414
REMARK  Name = 
REMARK  12 active torsions:
REMARK  status: ('A' for Active; 'I' for Inactive)
REMARK    1  A    between atoms: C_1  and  C_2
REMARK    2  A    between atoms: C_8  and  N_9
REMARK    3  A    between atoms: N_9  and  C_10
REMARK    4  A    between atoms: C_10  and  C_11
REMARK    5  A    between atoms: C_14  and  C_15
REMARK    6  A    between atoms: C_15  and  C_16
REMARK    7  A    between atoms: C_15  and  C_17
REMARK    8  A    between atoms: C_15  and  C_18
REMARK    9  A    between atoms: C_23  and  C_24
REMARK   10  A    between atoms: C_23  and  C_25
REMARK   11  A    between atoms: C_32  and  C_33
REMARK   12  A    between atoms: C_32  and  C_34
REMARK                            x       y       z     vdW  Elec       q    Type
REMARK                         _______ _______ _______ _____ _____    ______ ____
ROOT
ATOM      1  C   UNL     1       7.168   5.375  15.694  0.00  0.00    +0.000 C 
ATOM      2  C   UNL     1       6.193   6.216  16.476  0.00  0.00    +0.000 C 
ATOM      3  O   UNL     1       6.578   7.370  16.694  0.00  0.00    +0.000 OA
ATOM      4  N   UNL     1       4.947   5.665  16.866  0.00  0.00    +0.000 N 
ATOM      5  C   UNL     1       3.897   6.556  17.425  0.00  0.00    +0.000 A 
ATOM      6  C   UNL     1       4.043   7.955  17.488  0.00  0.00    +0.000 A 
ATOM      7  C   UNL     1       3.105   8.819  18.089  0.00  0.00    +0.000 A 
ATOM      8  C   UNL     1       1.918   8.337  18.614  0.00  0.00    +0.000 A 
ATOM      9  C   UNL     1       1.740   6.962  18.551  0.00  0.00    +0.000 A 
ATOM     10  C   UNL     1       2.680   6.063  17.950  0.00  0.00    +0.000 A 
ATOM     11  C   UNL     1       2.279   4.588  17.929  0.00  0.00    +0.000 C 
ATOM     12  C   UNL     1       0.941   4.496  17.111  0.00  0.00    +0.000 C 
ATOM     13  C   UNL     1       3.293   3.784  17.123  0.00  0.00    +0.000 C 
ATOM     14  C   UNL     1       4.781   4.191  17.228  0.00  0.00    +0.000 C 
ATOM     15  C   UNL     1       5.405   3.972  18.619  0.00  0.00    +0.000 C 
ATOM     16  C   UNL     1       5.459   3.144  16.295  0.00  0.00    +0.000 C 
ENDROOT
BRANCH  11  17
ATOM     17  C   UNL     1       2.052   3.995  19.349  0.00  0.00    +0.000 A 
ATOM     18  C   UNL     1       2.563   4.623  20.500  0.00  0.00    +0.000 A 
ATOM     19  C   UNL     1       2.525   4.000  21.752  0.00  0.00    +0.000 A 
ATOM     20  C   UNL     1       1.920   2.757  21.896  0.00  0.00    +0.000 A 
ATOM     21  C   UNL     1       1.333   2.150  20.794  0.00  0.00    +0.000 A 
ATOM     22  C   UNL     1       1.407   2.756  19.537  0.00  0.00    +0.000 A 
ENDBRANCH  11  17
BRANCH   8  23
ATOM     23  N   UNL     1       0.991   9.112  19.307  0.00  0.00    +0.000 N 
ATOM     24  H   UNL     1       1.118  10.110  19.156  0.00  0.00    +0.000 HD
BRANCH  23  25
ATOM     25  C   UNL     1       0.667   8.804  20.693  0.00  0.00    +0.000 C 
BRANCH  25  26
ATOM     26  C   UNL     1      -0.203   9.906  21.250  0.00  0.00    +0.000 A 
ATOM     27  C   UNL     1      -0.683  10.915  20.410  0.00  0.00    +0.000 A 
ATOM     28  C   UNL     1      -1.432  11.978  20.924  0.00  0.00    +0.000 A 
ATOM     29  C   UNL     1      -1.714  12.088  22.295  0.00  0.00    +0.000 A 
ATOM     30  C   UNL     1      -1.244  11.056  23.127  0.00  0.00    +0.000 A 
ATOM     31  C   UNL     1      -0.498   9.984  22.616  0.00  0.00    +0.000 A 
BRANCH  29  32
ATOM     32  C   UNL     1      -2.469  13.295  22.885  0.00  0.00    +0.000 C 
ATOM     33  C   UNL     1      -3.121  14.190  21.806  0.00  0.00    +0.000 C 
ATOM     34  C   UNL     1      -3.593  12.819  23.830  0.00  0.00    +0.000 C 
ATOM     35  C   UNL     1      -1.496  14.188  23.686  0.00  0.00    +0.000 C 
ENDBRANCH  29  32
ENDBRANCH  25  26
ENDBRANCH  23  25
ENDBRANCH   8  23
TORSDOF 5
ENDMDL
MODEL 3
REMARK VINA RESULT:      -8.0      3.153      9.752
REMARK  Name = 
REMARK  12 active torsions:
REMARK  status: ('A' for Active; 'I' for Inactive)
REMARK    1  A    between atoms: C_1  and  C_2
REMARK    2  A    between atoms: C_8  and  N_9
REMARK    3  A    between atoms: N_9  and  C_10
REMARK    4  A    between atoms: C_10  and  C_11
REMARK    5  A    between atoms: C_14  and  C_15
REMARK    6  A    between atoms: C_15  and  C_16
REMARK    7  A    between atoms: C_15  and  C_17
REMARK    8  A    between atoms: C_15  and  C_18
REMARK    9  A    between atoms: C_23  and  C_24
REMARK   10  A    between atoms: C_23  and  C_25
REMARK   11  A    between atoms: C_32  and  C_33
REMARK   12  A    between atoms: C_32  and  C_34
REMARK                            x       y       z     vdW  Elec       q    Type
REMARK                         _______ _______ _______ _____ _____    ______ ____
ROOT
ATOM      1  C   UNL     1       2.167  17.283  19.998  0.00  0.00    +0.000 C 
ATOM      2  C   UNL     1       2.059  15.881  19.459  0.00  0.00    +0.000 C 
ATOM      3  O   UNL     1       2.861  15.621  18.555  0.00  0.00    +0.000 OA
ATOM      4  N   UNL     1       1.111  14.986  20.014  0.00  0.00    +0.000 N 
ATOM      5  C   UNL     1       1.164  13.546  19.649  0.00  0.00    +0.000 A 
ATOM      6  C   UNL     1       2.188  13.002  18.851  0.00  0.00    +0.000 A 
ATOM      7  C   UNL     1       2.221  11.661  18.417  0.00  0.00    +0.000 A 
ATOM      8  C   UNL     1       1.252  10.755  18.812  0.00  0.00    +0.000 A 
ATOM      9  C   UNL     1       0.238  11.260  19.614  0.00  0.00    +0.000 A 
ATOM     10  C   UNL     1       0.179  12.619  20.064  0.00  0.00    +0.000 A 
ATOM     11  C   UNL     1      -0.989  12.971  20.985  0.00  0.00    +0.000 C 
ATOM     12  C   UNL     1      -0.854  12.054  22.253  0.00  0.00    +0.000 C 
ATOM     13  C   UNL     1      -0.829  14.395  21.507  0.00  0.00    +0.000 C 
ATOM     14  C   UNL     1      -0.243  15.453  20.543  0.00  0.00    +0.000 C 
ATOM     15  C   UNL     1      -1.138  15.777  19.333  0.00  0.00    +0.000 C 
ATOM     16  C   UNL     1      -0.262  16.731  21.433  0.00  0.00    +0.000 C 
ENDROOT
BRANCH  11  17
ATOM     17  C   UNL     1      -2.379  12.737  20.329  0.00  0.00    +0.000 A 
ATOM     18  C   UNL     1      -3.573  13.061  20.998  0.00  0.00    +0.000 A 
ATOM     19  C   UNL     1      -4.822  12.680  20.493  0.00  0.00    +0.000 A 
ATOM     20  C   UNL     1      -4.910  12.018  19.274  0.00  0.00    +0.000 A 
ATOM     21  C   UNL     1      -3.754  11.759  18.550  0.00  0.00    +0.000 A 
ATOM     22  C   UNL     1      -2.506  12.105  19.075  0.00  0.00    +0.000 A 
ENDBRANCH  11  17
BRANCH   8  23
ATOM     23  N   UNL     1       1.164   9.444  18.348  0.00  0.00    +0.000 N 
ATOM     24  H   UNL     1       0.577   8.856  18.934  0.00  0.00    +0.000 HD
BRANCH  23  25
ATOM     25  C   UNL     1       2.359   8.746  17.893  0.00  0.00    +0.000 C 
BRANCH  25  26
ATOM     26  C   UNL     1       2.396   7.375  18.526  0.00  0.00    +0.000 A 
ATOM     27  C   UNL     1       2.788   6.264  17.774  0.00  0.00    +0.000 A 
ATOM     28  C   UNL     1       2.763   4.980  18.326  0.00  0.00    +0.000 A 
ATOM     29  C   UNL     1       2.325   4.750  19.640  0.00  0.00    +0.000 A 
ATOM     30  C   UNL     1       1.953   5.877  20.394  0.00  0.00    +0.000 A 
ATOM     31  C   UNL     1       1.983   7.168  19.847  0.00  0.00    +0.000 A 
BRANCH  29  32
ATOM     32  C   UNL     1       2.216   3.333  20.234  0.00  0.00    +0.000 C 
ATOM     33  C   UNL     1       2.138   3.326  21.778  0.00  0.00    +0.000 C 
ATOM     34  C   UNL     1       0.951   2.622  19.706  0.00  0.00    +0.000 C 
ATOM     35  C   UNL     1       3.453   2.496  19.840  0.00  0.00    +0.000 C 
ENDBRANCH  29  32
ENDBRANCH  25  26
ENDBRANCH  23  25
ENDBRANCH   8  23
TORSDOF 5
ENDMDL
MODEL 4
REMARK VINA RESULT:      -8.0      2.062      2.620
REMARK  Name = 
REMARK  12 active torsions:
REMARK  status: ('A' for Active; 'I' for Inactive)
REMARK    1  A    between atoms: C_1  and  C_2
REMARK    2  A    between atoms: C_8  and  N_9
REMARK    3  A    between atoms: N_9  and  C_10
REMARK    4  A    between atoms: C_10  and  C_11
REMARK    5  A    between atoms: C_14  and  C_15
REMARK    6  A    between atoms: C_15  and  C_16
REMARK    7  A    between atoms: C_15  and  C_17
REMARK    8  A    between atoms: C_15  and  C_18
REMARK    9  A    between atoms: C_23  and  C_24
REMARK   10  A    between atoms: C_23  and  C_25
REMARK   11  A    between atoms: C_32  and  C_33
REMARK   12  A    between atoms: C_32  and  C_34
REMARK                            x       y       z     vdW  Elec       q    Type
REMARK                         _______ _______ _______ _____ _____    ______ ____
ROOT
ATOM      1  C   UNL     1       7.252   5.447  15.581  0.00  0.00    +0.000 C 
ATOM      2  C   UNL     1       6.249   6.261  16.356  0.00  0.00    +0.000 C 
ATOM      3  O   UNL     1       6.588   7.434  16.549  0.00  0.00    +0.000 OA
ATOM      4  N   UNL     1       5.031   5.667  16.768  0.00  0.00    +0.000 N 
ATOM      5  C   UNL     1       3.950   6.524  17.319  0.00  0.00    +0.000 A 
ATOM      6  C   UNL     1       4.037   7.928  17.356  0.00  0.00    +0.000 A 
ATOM      7  C   UNL     1       3.069   8.764  17.949  0.00  0.00    +0.000 A 
ATOM      8  C   UNL     1       1.908   8.243  18.494  0.00  0.00    +0.000 A 
ATOM      9  C   UNL     1       1.787   6.861  18.457  0.00  0.00    +0.000 A 
ATOM     10  C   UNL     1       2.758   5.990  17.865  0.00  0.00    +0.000 A 
ATOM     11  C   UNL     1       2.419   4.500  17.875  0.00  0.00    +0.000 C 
ATOM     12  C   UNL     1       1.079   4.337  17.071  0.00  0.00    +0.000 C 
ATOM     13  C   UNL     1       3.458   3.724  17.074  0.00  0.00    +0.000 C 
ATOM     14  C   UNL     1       4.929   4.194  17.159  0.00  0.00    +0.000 C 
ATOM     15  C   UNL     1       5.574   4.027  18.547  0.00  0.00    +0.000 C 
ATOM     16  C   UNL     1       5.642   3.159  16.239  0.00  0.00    +0.000 C 
ENDROOT
BRANCH  11  17
ATOM     17  C   UNL     1       2.229   3.925  19.307  0.00  0.00    +0.000 A 
ATOM     18  C   UNL     1       1.520   2.731  19.534  0.00  0.00    +0.000 A 
ATOM     19  C   UNL     1       1.185   2.312  20.827  0.00  0.00    +0.000 A 
ATOM     20  C   UNL     1       1.606   3.046  21.930  0.00  0.00    +0.000 A 
ATOM     21  C   UNL     1       2.380   4.183  21.741  0.00  0.00    +0.000 A 
ATOM     22  C   UNL     1       2.678   4.621  20.448  0.00  0.00    +0.000 A 
ENDBRANCH  11  17
BRANCH   8  23
ATOM     23  N   UNL     1       0.955   8.992  19.180  0.00  0.00    +0.000 N 
ATOM     24  H   UNL     1       0.075   8.498  19.301  0.00  0.00    +0.000 HD
BRANCH  23  25
ATOM     25  C   UNL     1       0.754  10.397  18.855  0.00  0.00    +0.000 C 
BRANCH  25  26
ATOM     26  C   UNL     1      -0.729  10.674  18.771  0.00  0.00    +0.000 A 
ATOM     27  C   UNL     1      -1.515  10.013  17.825  0.00  0.00    +0.000 A 
ATOM     28  C   UNL     1      -2.875  10.308  17.690  0.00  0.00    +0.000 A 
ATOM     29  C   UNL     1      -3.498  11.289  18.478  0.00  0.00    +0.000 A 
ATOM     30  C   UNL     1      -2.702  11.933  19.442  0.00  0.00    +0.000 A 
ATOM     31  C   UNL     1      -1.339  11.636  19.586  0.00  0.00    +0.000 A 
BRANCH  29  32
ATOM     32  C   UNL     1      -4.976  11.682  18.286  0.00  0.00    +0.000 C 
ATOM     33  C   UNL     1      -5.955  10.522  18.581  0.00  0.00    +0.000 C 
ATOM     34  C   UNL     1      -5.351  12.851  19.222  0.00  0.00    +0.000 C 
ATOM     35  C   UNL     1      -5.222  12.121  16.826  0.00  0.00    +0.000 C 
ENDBRANCH  29  32
ENDBRANCH  25  26
ENDBRANCH  23  25
ENDBRANCH   8  23
TORSDOF 5
ENDMDL
MODEL 5
REMARK VINA RESULT:      -8.0      2.763      5.024
REMARK  Name = 
REMARK  12 active torsions:
REMARK  status: ('A' for Active; 'I' for Inactive)
REMARK    1  A    between atoms: C_1  and  C_2
REMARK    2  A    between atoms: C_8  and  N_9
REMARK    3  A    between atoms: N_9  and  C_10
REMARK    4  A    between atoms: C_10  and  C_11
REMARK    5  A    between atoms: C_14  and  C_15
REMARK    6  A    between atoms: C_15  and  C_16
REMARK    7  A    between atoms: C_15  and  C_17
REMARK    8  A    between atoms: C_15  and  C_18
REMARK    9  A    between atoms: C_23  and  C_24
REMARK   10  A    between atoms: C_23  and  C_25
REMARK   11  A    between atoms: C_32  and  C_33
REMARK   12  A    between atoms: C_32  and  C_34
REMARK                            x       y       z     vdW  Elec       q    Type
REMARK                         _______ _______ _______ _____ _____    ______ ____
ROOT
ATOM      1  C   UNL     1       2.196   1.905  21.697  0.00  0.00    +0.000 C 
ATOM      2  C   UNL     1       2.049   3.169  20.892  0.00  0.00    +0.000 C 
ATOM      3  O   UNL     1       0.915   3.660  20.920  0.00  0.00    +0.000 OA
ATOM      4  N   UNL     1       3.171   3.701  20.210  0.00  0.00    +0.000 N 
ATOM      5  C   UNL     1       3.088   5.061  19.616  0.00  0.00    +0.000 A 
ATOM      6  C   UNL     1       1.970   5.899  19.789  0.00  0.00    +0.000 A 
ATOM      7  C   UNL     1       1.824   7.157  19.170  0.00  0.00    +0.000 A 
ATOM      8  C   UNL     1       2.827   7.688  18.378  0.00  0.00    +0.000 A 
ATOM      9  C   UNL     1       3.950   6.890  18.203  0.00  0.00    +0.000 A 
ATOM     10  C   UNL     1       4.120   5.607  18.817  0.00  0.00    +0.000 A 
ATOM     11  C   UNL     1       5.450   4.905  18.546  0.00  0.00    +0.000 C 
ATOM     12  C   UNL     1       6.579   5.850  19.093  0.00  0.00    +0.000 C 
ATOM     13  C   UNL     1       5.551   3.638  19.388  0.00  0.00    +0.000 C 
ATOM     14  C   UNL     1       4.259   2.816  19.608  0.00  0.00    +0.000 C 
ATOM     15  C   UNL     1       3.690   2.169  18.332  0.00  0.00    +0.000 C 
ATOM     16  C   UNL     1       4.785   1.635  20.478  0.00  0.00    +0.000 C 
ENDROOT
BRANCH  11  17
ATOM     17  C   UNL     1       5.700   4.630  17.036  0.00  0.00    +0.000 A 
ATOM     18  C   UNL     1       6.989   4.709  16.476  0.00  0.00    +0.000 A 
ATOM     19  C   UNL     1       7.191   4.649  15.093  0.00  0.00    +0.000 A 
ATOM     20  C   UNL     1       6.114   4.447  14.237  0.00  0.00    +0.000 A 
ATOM     21  C   UNL     1       4.842   4.280  14.766  0.00  0.00    +0.000 A 
ATOM     22  C   UNL     1       4.637   4.381  16.145  0.00  0.00    +0.000 A 
ENDBRANCH  11  17
BRANCH   8  23
ATOM     23  N   UNL     1       2.716   8.875  17.658  0.00  0.00    +0.000 N 
ATOM     24  H   UNL     1       3.529   9.478  17.761  0.00  0.00    +0.000 HD
BRANCH  23  25
ATOM     25  C   UNL     1       1.470   9.628  17.673  0.00  0.00    +0.000 C 
BRANCH  25  26
ATOM     26  C   UNL     1       1.650  10.858  18.531  0.00  0.00    +0.000 A 
ATOM     27  C   UNL     1       1.025  10.943  19.778  0.00  0.00    +0.000 A 
ATOM     28  C   UNL     1       1.127  12.102  20.553  0.00  0.00    +0.000 A 
ATOM     29  C   UNL     1       1.836  13.228  20.107  0.00  0.00    +0.000 A 
ATOM     30  C   UNL     1       2.478  13.124  18.860  0.00  0.00    +0.000 A 
ATOM     31  C   UNL     1       2.385  11.962  18.081  0.00  0.00    +0.000 A 
BRANCH  29  32
ATOM     32  C   UNL     1       1.889  14.540  20.914  0.00  0.00    +0.000 C 
ATOM     33  C   UNL     1       3.210  14.717  21.698  0.00  0.00    +0.000 C 
ATOM     34  C   UNL     1       1.744  15.758  19.976  0.00  0.00    +0.000 C 
ATOM     35  C   UNL     1       0.742  14.573  21.948  0.00  0.00    +0.000 C 
ENDBRANCH  29  32
ENDBRANCH  25  26
ENDBRANCH  23  25
ENDBRANCH   8  23
TORSDOF 5
ENDMDL
MODEL 6
REMARK VINA RESULT:      -7.9      3.182      9.578
REMARK  Name = 
REMARK  12 active torsions:
REMARK  status: ('A' for Active; 'I' for Inactive)
REMARK    1  A    between atoms: C_1  and  C_2
REMARK    2  A    between atoms: C_8  and  N_9
REMARK    3  A    between atoms: N_9  and  C_10
REMARK    4  A    between atoms: C_10  and  C_11
REMARK    5  A    between atoms: C_14  and  C_15
REMARK    6  A    between atoms: C_15  and  C_16
REMARK    7  A    between atoms: C_15  and  C_17
REMARK    8  A    between atoms: C_15  and  C_18
REMARK    9  A    between atoms: C_23  and  C_24
REMARK   10  A    between atoms: C_23  and  C_25
REMARK   11  A    between atoms: C_32  and  C_33
REMARK   12  A    between atoms: C_32  and  C_34
REMARK                            x       y       z     vdW  Elec       q    Type
REMARK                         _______ _______ _______ _____ _____    ______ ____
ROOT
ATOM      1  C   UNL     1       2.469  17.114  19.030  0.00  0.00    +0.000 C 
ATOM      2  C   UNL     1       2.334  15.670  18.622  0.00  0.00    +0.000 C 
ATOM      3  O   UNL     1       3.049  15.343  17.669  0.00  0.00    +0.000 OA
ATOM      4  N   UNL     1       1.460  14.817  19.340  0.00  0.00    +0.000 N 
ATOM      5  C   UNL     1       1.504  13.351  19.094  0.00  0.00    +0.000 A 
ATOM      6  C   UNL     1       2.455  12.751  18.247  0.00  0.00    +0.000 A 
ATOM      7  C   UNL     1       2.470  11.379  17.925  0.00  0.00    +0.000 A 
ATOM      8  C   UNL     1       1.560  10.500  18.487  0.00  0.00    +0.000 A 
ATOM      9  C   UNL     1       0.619  11.062  19.340  0.00  0.00    +0.000 A 
ATOM     10  C   UNL     1       0.581  12.453  19.679  0.00  0.00    +0.000 A 
ATOM     11  C   UNL     1      -0.498  12.871  20.678  0.00  0.00    +0.000 C 
ATOM     12  C   UNL     1      -0.225  12.066  21.999  0.00  0.00    +0.000 C 
ATOM     13  C   UNL     1      -0.314  14.335  21.061  0.00  0.00    +0.000 C 
ATOM     14  C   UNL     1       0.156  15.313  19.959  0.00  0.00    +0.000 C 
ATOM     15  C   UNL     1      -0.858  15.525  18.820  0.00  0.00    +0.000 C 
ATOM     16  C   UNL     1       0.201  16.662  20.737  0.00  0.00    +0.000 C 
ENDROOT
BRANCH  11  17
ATOM     17  C   UNL     1      -1.941  12.568  20.183  0.00  0.00    +0.000 A 
ATOM     18  C   UNL     1      -2.179  11.946  18.944  0.00  0.00    +0.000 A 
ATOM     19  C   UNL     1      -3.470  11.843  18.413  0.00  0.00    +0.000 A 
ATOM     20  C   UNL     1      -4.563  12.307  19.136  0.00  0.00    +0.000 A 
ATOM     21  C   UNL     1      -4.367  12.850  20.398  0.00  0.00    +0.000 A 
ATOM     22  C   UNL     1      -3.074  12.988  20.910  0.00  0.00    +0.000 A 
ENDBRANCH  11  17
BRANCH   8  23
ATOM     23  N   UNL     1       1.451   9.154  18.146  0.00  0.00    +0.000 N 
ATOM     24  H   UNL     1       0.826   8.639  18.760  0.00  0.00    +0.000 HD
BRANCH  23  25
ATOM     25  C   UNL     1       2.641   8.386  17.806  0.00  0.00    +0.000 C 
BRANCH  25  26
ATOM     26  C   UNL     1       2.524   7.007  18.412  0.00  0.00    +0.000 A 
ATOM     27  C   UNL     1       1.940   6.839  19.670  0.00  0.00    +0.000 A 
ATOM     28  C   UNL     1       1.886   5.580  20.273  0.00  0.00    +0.000 A 
ATOM     29  C   UNL     1       2.431   4.442  19.656  0.00  0.00    +0.000 A 
ATOM     30  C   UNL     1       2.997   4.618  18.381  0.00  0.00    +0.000 A 
ATOM     31  C   UNL     1       3.048   5.879  17.769  0.00  0.00    +0.000 A 
BRANCH  29  32
ATOM     32  C   UNL     1       2.451   3.063  20.344  0.00  0.00    +0.000 C 
ATOM     33  C   UNL     1       1.403   2.083  19.768  0.00  0.00    +0.000 C 
ATOM     34  C   UNL     1       3.837   2.401  20.187  0.00  0.00    +0.000 C 
ATOM     35  C   UNL     1       2.146   3.218  21.850  0.00  0.00    +0.000 C 
ENDBRANCH  29  32
ENDBRANCH  25  26
ENDBRANCH  23  25
ENDBRANCH   8  23
TORSDOF 5
ENDMDL
MODEL 7
REMARK VINA RESULT:      -7.9      2.057      2.774
REMARK  Name = 
REMARK  12 active torsions:
REMARK  status: ('A' for Active; 'I' for Inactive)
REMARK    1  A    between atoms: C_1  and  C_2
REMARK    2  A    between atoms: C_8  and  N_9
REMARK    3  A    between atoms: N_9  and  C_10
REMARK    4  A    between atoms: C_10  and  C_11
REMARK    5  A    between atoms: C_14  and  C_15
REMARK    6  A    between atoms: C_15  and  C_16
REMARK    7  A    between atoms: C_15  and  C_17
REMARK    8  A    between atoms: C_15  and  C_18
REMARK    9  A    between atoms: C_23  and  C_24
REMARK   10  A    between atoms: C_23  and  C_25
REMARK   11  A    between atoms: C_32  and  C_33
REMARK   12  A    between atoms: C_32  and  C_34
REMARK                            x       y       z     vdW  Elec       q    Type
REMARK                         _______ _______ _______ _____ _____    ______ ____
ROOT
ATOM      1  C   UNL     1       7.222   5.575  15.973  0.00  0.00    +0.000 C 
ATOM      2  C   UNL     1       6.175   6.399  16.676  0.00  0.00    +0.000 C 
ATOM      3  O   UNL     1       6.502   7.574  16.872  0.00  0.00    +0.000 OA
ATOM      4  N   UNL     1       4.934   5.810  17.023  0.00  0.00    +0.000 N 
ATOM      5  C   UNL     1       3.822   6.675  17.497  0.00  0.00    +0.000 A 
ATOM      6  C   UNL     1       3.908   8.080  17.519  0.00  0.00    +0.000 A 
ATOM      7  C   UNL     1       2.907   8.923  18.042  0.00  0.00    +0.000 A 
ATOM      8  C   UNL     1       1.716   8.409  18.524  0.00  0.00    +0.000 A 
ATOM      9  C   UNL     1       1.596   7.027  18.500  0.00  0.00    +0.000 A 
ATOM     10  C   UNL     1       2.601   6.148  17.978  0.00  0.00    +0.000 A 
ATOM     11  C   UNL     1       2.260   4.658  17.989  0.00  0.00    +0.000 C 
ATOM     12  C   UNL     1       0.971   4.484  17.109  0.00  0.00    +0.000 C 
ATOM     13  C   UNL     1       3.345   3.871  17.262  0.00  0.00    +0.000 C 
ATOM     14  C   UNL     1       4.808   4.343  17.427  0.00  0.00    +0.000 C 
ATOM     15  C   UNL     1       5.369   4.196  18.854  0.00  0.00    +0.000 C 
ATOM     16  C   UNL     1       5.574   3.295  16.566  0.00  0.00    +0.000 C 
ENDROOT
BRANCH  11  17
ATOM     17  C   UNL     1       1.985   4.103  19.415  0.00  0.00    +0.000 A 
ATOM     18  C   UNL     1       2.546   4.701  20.559  0.00  0.00    +0.000 A 
ATOM     19  C   UNL     1       2.457   4.097  21.819  0.00  0.00    +0.000 A 
ATOM     20  C   UNL     1       1.751   2.911  21.977  0.00  0.00    +0.000 A 
ATOM     21  C   UNL     1       1.115   2.341  20.882  0.00  0.00    +0.000 A 
ATOM     22  C   UNL     1       1.239   2.924  19.618  0.00  0.00    +0.000 A 
ENDBRANCH  11  17
BRANCH   8  23
ATOM     23  N   UNL     1       0.724   9.168  19.142  0.00  0.00    +0.000 N 
ATOM     24  H   UNL     1      -0.186   8.716  19.128  0.00  0.00    +0.000 HD
BRANCH  23  25
ATOM     25  C   UNL     1       0.630  10.599  18.887  0.00  0.00    +0.000 C 
BRANCH  25  26
ATOM     26  C   UNL     1      -0.825  10.973  18.728  0.00  0.00    +0.000 A 
ATOM     27  C   UNL     1      -1.451  11.782  19.680  0.00  0.00    +0.000 A 
ATOM     28  C   UNL     1      -2.813  12.080  19.582  0.00  0.00    +0.000 A 
ATOM     29  C   UNL     1      -3.609  11.568  18.544  0.00  0.00    +0.000 A 
ATOM     30  C   UNL     1      -2.964  10.773  17.580  0.00  0.00    +0.000 A 
ATOM     31  C   UNL     1      -1.596  10.476  17.670  0.00  0.00    +0.000 A 
BRANCH  29  32
ATOM     32  C   UNL     1      -5.127  11.823  18.469  0.00  0.00    +0.000 C 
ATOM     33  C   UNL     1      -5.612  12.899  19.468  0.00  0.00    +0.000 C 
ATOM     34  C   UNL     1      -5.525  12.296  17.054  0.00  0.00    +0.000 C 
ATOM     35  C   UNL     1      -5.899  10.525  18.791  0.00  0.00    +0.000 C 
ENDBRANCH  29  32
ENDBRANCH  25  26
ENDBRANCH  23  25
ENDBRANCH   8  23
TORSDOF 5
ENDMDL
MODEL 8
REMARK VINA RESULT:      -7.8      3.270     10.615
REMARK  Name = 
REMARK  12 active torsions:
REMARK  status: ('A' for Active; 'I' for Inactive)
REMARK    1  A    between atoms: C_1  and  C_2
REMARK    2  A    between atoms: C_8  and  N_9
REMARK    3  A    between atoms: N_9  and  C_10
REMARK    4  A    between atoms: C_10  and  C_11
REMARK    5  A    between atoms: C_14  and  C_15
REMARK    6  A    between atoms: C_15  and  C_16
REMARK    7  A    between atoms: C_15  and  C_17
REMARK    8  A    between atoms: C_15  and  C_18
REMARK    9  A    between atoms: C_23  and  C_24
REMARK   10  A    between atoms: C_23  and  C_25
REMARK   11  A    between atoms: C_32  and  C_33
REMARK   12  A    between atoms: C_32  and  C_34
REMARK                            x       y       z     vdW  Elec       q    Type
REMARK                         _______ _______ _______ _____ _____    ______ ____
ROOT
ATOM      1  C   UNL     1      -6.868  12.467  17.378  0.00  0.00    +0.000 C 
ATOM      2  C   UNL     1      -5.572  11.905  17.902  0.00  0.00    +0.000 C 
ATOM      3  O   UNL     1      -5.257  10.815  17.413  0.00  0.00    +0.000 OA
ATOM      4  N   UNL     1      -4.823  12.639  18.855  0.00  0.00    +0.000 N 
ATOM      5  C   UNL     1      -3.443  12.204  19.192  0.00  0.00    +0.000 A 
ATOM      6  C   UNL     1      -2.796  11.145  18.527  0.00  0.00    +0.000 A 
ATOM      7  C   UNL     1      -1.524  10.652  18.879  0.00  0.00    +0.000 A 
ATOM      8  C   UNL     1      -0.783  11.236  19.892  0.00  0.00    +0.000 A 
ATOM      9  C   UNL     1      -1.389  12.294  20.556  0.00  0.00    +0.000 A 
ATOM     10  C   UNL     1      -2.683  12.810  20.220  0.00  0.00    +0.000 A 
ATOM     11  C   UNL     1      -3.157  14.015  21.032  0.00  0.00    +0.000 C 
ATOM     12  C   UNL     1      -2.109  15.161  20.792  0.00  0.00    +0.000 C 
ATOM     13  C   UNL     1      -4.465  14.548  20.458  0.00  0.00    +0.000 C 
ATOM     14  C   UNL     1      -5.483  13.519  19.914  0.00  0.00    +0.000 C 
ATOM     15  C   UNL     1      -6.091  12.595  20.985  0.00  0.00    +0.000 C 
ATOM     16  C   UNL     1      -6.647  14.446  19.451  0.00  0.00    +0.000 C 
ENDROOT
BRANCH  11  17
ATOM     17  C   UNL     1      -3.257  13.725  22.556  0.00  0.00    +0.000 A 
ATOM     18  C   UNL     1      -3.692  12.478  23.042  0.00  0.00    +0.000 A 
ATOM     19  C   UNL     1      -3.964  12.275  24.400  0.00  0.00    +0.000 A 
ATOM     20  C   UNL     1      -3.747  13.298  25.316  0.00  0.00    +0.000 A 
ATOM     21  C   UNL     1      -3.238  14.513  24.878  0.00  0.00    +0.000 A 
ATOM     22  C   UNL     1      -3.006  14.726  23.516  0.00  0.00    +0.000 A 
ENDBRANCH  11  17
BRANCH   8  23
ATOM     23  N   UNL     1       0.434  10.747  20.360  0.00  0.00    +0.000 N 
ATOM     24  H   UNL     1       1.150  10.711  19.639  0.00  0.00    +0.000 HD
BRANCH  23  25
ATOM     25  C   UNL     1       0.470   9.577  21.226  0.00  0.00    +0.000 C 
BRANCH  25  26
ATOM     26  C   UNL     1       1.221   8.470  20.525  0.00  0.00    +0.000 A 
ATOM     27  C   UNL     1       1.740   8.675  19.244  0.00  0.00    +0.000 A 
ATOM     28  C   UNL     1       2.378   7.639  18.555  0.00  0.00    +0.000 A 
ATOM     29  C   UNL     1       2.503   6.354  19.106  0.00  0.00    +0.000 A 
ATOM     30  C   UNL     1       1.996   6.164  20.404  0.00  0.00    +0.000 A 
ATOM     31  C   UNL     1       1.361   7.202  21.102  0.00  0.00    +0.000 A 
BRANCH  29  32
ATOM     32  C   UNL     1       3.132   5.182  18.327  0.00  0.00    +0.000 C 
ATOM     33  C   UNL     1       4.087   5.644  17.203  0.00  0.00    +0.000 C 
ATOM     34  C   UNL     1       3.942   4.274  19.277  0.00  0.00    +0.000 C 
ATOM     35  C   UNL     1       2.025   4.335  17.660  0.00  0.00    +0.000 C 
ENDBRANCH  29  32
ENDBRANCH  25  26
ENDBRANCH  23  25
ENDBRANCH   8  23
TORSDOF 5
ENDMDL
MODEL 9
REMARK VINA RESULT:      -7.8      0.354      1.190
REMARK  Name = 
REMARK  12 active torsions:
REMARK  status: ('A' for Active; 'I' for Inactive)
REMARK    1  A    between atoms: C_1  and  C_2
REMARK    2  A    between atoms: C_8  and  N_9
REMARK    3  A    between atoms: N_9  and  C_10
REMARK    4  A    between atoms: C_10  and  C_11
REMARK    5  A    between atoms: C_14  and  C_15
REMARK    6  A    between atoms: C_15  and  C_16
REMARK    7  A    between atoms: C_15  and  C_17
REMARK    8  A    between atoms: C_15  and  C_18
REMARK    9  A    between atoms: C_23  and  C_24
REMARK   10  A    between atoms: C_23  and  C_25
REMARK   11  A    between atoms: C_32  and  C_33
REMARK   12  A    between atoms: C_32  and  C_34
REMARK                            x       y       z     vdW  Elec       q    Type
REMARK                         _______ _______ _______ _____ _____    ______ ____
ROOT
ATOM      1  C   UNL     1       7.206   5.394  15.591  0.00  0.00    +0.000 C 
ATOM      2  C   UNL     1       6.211   6.209  16.376  0.00  0.00    +0.000 C 
ATOM      3  O   UNL     1       6.558   7.378  16.575  0.00  0.00    +0.000 OA
ATOM      4  N   UNL     1       4.992   5.618  16.790  0.00  0.00    +0.000 N 
ATOM      5  C   UNL     1       3.918   6.478  17.353  0.00  0.00    +0.000 A 
ATOM      6  C   UNL     1       4.014   7.882  17.398  0.00  0.00    +0.000 A 
ATOM      7  C   UNL     1       3.054   8.719  18.001  0.00  0.00    +0.000 A 
ATOM      8  C   UNL     1       1.893   8.201  18.548  0.00  0.00    +0.000 A 
ATOM      9  C   UNL     1       1.763   6.820  18.503  0.00  0.00    +0.000 A 
ATOM     10  C   UNL     1       2.727   5.948  17.901  0.00  0.00    +0.000 A 
ATOM     11  C   UNL     1       2.379   4.459  17.903  0.00  0.00    +0.000 C 
ATOM     12  C   UNL     1       1.034   4.309  17.105  0.00  0.00    +0.000 C 
ATOM     13  C   UNL     1       3.410   3.683  17.092  0.00  0.00    +0.000 C 
ATOM     14  C   UNL     1       4.884   4.144  17.172  0.00  0.00    +0.000 C 
ATOM     15  C   UNL     1       5.534   3.965  18.556  0.00  0.00    +0.000 C 
ATOM     16  C   UNL     1       5.586   3.110  16.242  0.00  0.00    +0.000 C 
ENDROOT
BRANCH  11  17
ATOM     17  C   UNL     1       2.193   3.876  19.333  0.00  0.00    +0.000 A 
ATOM     18  C   UNL     1       1.411   2.731  19.565  0.00  0.00    +0.000 A 
ATOM     19  C   UNL     1       1.087   2.315  20.862  0.00  0.00    +0.000 A 
ATOM     20  C   UNL     1       1.590   3.001  21.961  0.00  0.00    +0.000 A 
ATOM     21  C   UNL     1       2.434   4.085  21.764  0.00  0.00    +0.000 A 
ATOM     22  C   UNL     1       2.723   4.523  20.468  0.00  0.00    +0.000 A 
ENDBRANCH  11  17
BRANCH   8  23
ATOM     23  N   UNL     1       0.947   8.951  19.244  0.00  0.00    +0.000 N 
ATOM     24  H   UNL     1       0.832   9.889  18.869  0.00  0.00    +0.000 HD
BRANCH  23  25
ATOM     25  C   UNL     1       0.929   8.938  20.700  0.00  0.00    +0.000 C 
BRANCH  25  26
ATOM     26  C   UNL     1      -0.062   9.969  21.188  0.00  0.00    +0.000 A 
ATOM     27  C   UNL     1      -0.612  10.893  20.295  0.00  0.00    +0.000 A 
ATOM     28  C   UNL     1      -1.477  11.895  20.743  0.00  0.00    +0.000 A 
ATOM     29  C   UNL     1      -1.811  12.029  22.100  0.00  0.00    +0.000 A 
ATOM     30  C   UNL     1      -1.269  11.081  22.987  0.00  0.00    +0.000 A 
ATOM     31  C   UNL     1      -0.406  10.070  22.541  0.00  0.00    +0.000 A 
BRANCH  29  32
ATOM     32  C   UNL     1      -2.699  13.176  22.620  0.00  0.00    +0.000 C 
ATOM     33  C   UNL     1      -1.965  14.536  22.672  0.00  0.00    +0.000 C 
ATOM     34  C   UNL     1      -3.936  13.355  21.713  0.00  0.00    +0.000 C 
ATOM     35  C   UNL     1      -3.180  12.866  24.055  0.00  0.00    +0.000 C 
ENDBRANCH  29  32
ENDBRANCH  25  26
ENDBRANCH  23  25
ENDBRANCH   8  23
TORSDOF 5
ENDMDL
