MODEL 1
REMARK VINA RESULT:      -6.5      0.000      0.000
REMARK  Name = 
REMARK  8 active torsions:
REMARK  status: ('A' for Active; 'I' for Inactive)
REMARK    1  A    between atoms: C_1  and  C_2
REMARK    2  A    between atoms: C_6  and  C_7
REMARK    3  A    between atoms: C_7  and  S_8
REMARK    4  A    between atoms: S_8  and  C_9
REMARK    5  A    between atoms: C_9  and  C_10
REMARK    6  A    between atoms: C_10  and  N_11
REMARK    7  A    between atoms: N_11  and  C_12
REMARK    8  A    between atoms: C_16  and  N_17
REMARK                            x       y       z     vdW  Elec       q    Type
REMARK                         _______ _______ _______ _____ _____    ______ ____
ROOT
ATOM      1  C   UNL     1       2.798   3.443  17.357  0.00  0.00    +0.000 C 
ENDROOT
BRANCH   1   2
ATOM      2  N   UNL     1       2.314   2.325  18.182  0.00  0.00    +0.000 N 
ATOM      3  H   UNL     1       2.650   1.410  17.861  0.00  0.00    +0.000 HD
BRANCH   2   4
ATOM      4  C   UNL     1       2.229   2.492  19.539  0.00  0.00    +0.000 A 
ATOM      5  N   UNL     1       1.002   2.686  20.137  0.00  0.00    +0.000 N 
ATOM      6  C   UNL     1       1.140   2.847  21.493  0.00  0.00    +0.000 A 
ATOM      7  C   UNL     1       2.474   2.723  21.789  0.00  0.00    +0.000 A 
ATOM      8  C   UNL     1       3.171   2.494  20.562  0.00  0.00    +0.000 A 
ATOM      9  H   UNL     1       0.123   2.707  19.644  0.00  0.00    +0.000 HD
BRANCH   8  10
ATOM     10  N   UNL     1       4.596   2.327  20.431  0.00  0.00    +0.000 N 
ATOM     11  O   UNL     1       5.181   2.995  19.569  0.00  0.00    +0.000 OA
ATOM     12  O   UNL     1       5.137   1.526  21.213  0.00  0.00    +0.000 OA
ENDBRANCH   8  10
ENDBRANCH   2   4
ENDBRANCH   1   2
BRANCH   1  13
ATOM     13  C   UNL     1       2.096   4.782  17.618  0.00  0.00    +0.000 C 
BRANCH  13  14
ATOM     14  S   UNL     1       3.324   5.841  18.491  0.00  0.00    +0.000 S 
BRANCH  14  15
ATOM     15  C   UNL     1       4.474   6.224  17.136  0.00  0.00    +0.000 C 
BRANCH  15  21
ATOM     16  C   UNL     1       6.015   3.856  15.352  0.00  0.00    +0.000 C 
ATOM     17  C   UNL     1       6.425   4.597  16.566  0.00  0.00    +0.000 A 
ATOM     18  N   UNL     1       7.629   4.388  17.192  0.00  0.00    +0.000 N 
ATOM     19  C   UNL     1       7.689   5.222  18.270  0.00  0.00    +0.000 A 
ATOM     20  N   UNL     1       6.607   5.954  18.374  0.00  0.00    +0.000 NA
ATOM     21  C   UNL     1       5.804   5.582  17.317  0.00  0.00    +0.000 A 
ATOM     22  H   UNL     1       8.346   3.734  16.911  0.00  0.00    +0.000 HD
ENDBRANCH  15  21
ENDBRANCH  14  15
ENDBRANCH  13  14
ENDBRANCH   1  13
TORSDOF 7
ENDMDL
MODEL 2
REMARK VINA RESULT:      -6.5      2.391      5.648
REMARK  Name = 
REMARK  8 active torsions:
REMARK  status: ('A' for Active; 'I' for Inactive)
REMARK    1  A    between atoms: C_1  and  C_2
REMARK    2  A    between atoms: C_6  and  C_7
REMARK    3  A    between atoms: C_7  and  S_8
REMARK    4  A    between atoms: S_8  and  C_9
REMARK    5  A    between atoms: C_9  and  C_10
REMARK    6  A    between atoms: C_10  and  N_11
REMARK    7  A    between atoms: N_11  and  C_12
REMARK    8  A    between atoms: C_16  and  N_17
REMARK                            x       y       z     vdW  Elec       q    Type
REMARK                         _______ _______ _______ _____ _____    ______ ____
ROOT
ATOM      1  C   UNL     1       5.439   5.218  19.432  0.00  0.00    +0.000 C 
ENDROOT
BRANCH   1   2
ATOM      2  N   UNL     1       5.861   4.113  18.557  0.00  0.00    +0.000 N 
ATOM      3  H   UNL     1       5.314   3.255  18.696  0.00  0.00    +0.000 HD
BRANCH   2   4
ATOM      4  C   UNL     1       6.222   4.391  17.266  0.00  0.00    +0.000 A 
ATOM      5  N   UNL     1       5.884   3.523  16.250  0.00  0.00    +0.000 N 
ATOM      6  C   UNL     1       6.352   3.977  15.043  0.00  0.00    +0.000 A 
ATOM      7  C   UNL     1       6.978   5.177  15.269  0.00  0.00    +0.000 A 
ATOM      8  C   UNL     1       6.898   5.451  16.670  0.00  0.00    +0.000 A 
ATOM      9  H   UNL     1       5.363   2.669  16.377  0.00  0.00    +0.000 HD
BRANCH   8  10
ATOM     10  N   UNL     1       7.450   6.608  17.327  0.00  0.00    +0.000 N 
ATOM     11  O   UNL     1       8.091   6.431  18.371  0.00  0.00    +0.000 OA
ATOM     12  O   UNL     1       7.251   7.706  16.779  0.00  0.00    +0.000 OA
ENDBRANCH   8  10
ENDBRANCH   2   4
ENDBRANCH   1   2
BRANCH   1  13
ATOM     13  C   UNL     1       3.930   5.283  19.699  0.00  0.00    +0.000 C 
BRANCH  13  14
ATOM     14  S   UNL     1       3.200   6.207  18.283  0.00  0.00    +0.000 S 
BRANCH  14  15
ATOM     15  C   UNL     1       1.857   5.083  17.795  0.00  0.00    +0.000 C 
BRANCH  15  21
ATOM     16  C   UNL     1       0.702   3.125  20.244  0.00  0.00    +0.000 C 
ATOM     17  C   UNL     1       1.664   2.868  19.149  0.00  0.00    +0.000 A 
ATOM     18  N   UNL     1       2.279   1.653  18.972  0.00  0.00    +0.000 N 
ATOM     19  C   UNL     1       3.099   1.755  17.886  0.00  0.00    +0.000 A 
ATOM     20  N   UNL     1       3.046   2.950  17.352  0.00  0.00    +0.000 NA
ATOM     21  C   UNL     1       2.152   3.663  18.124  0.00  0.00    +0.000 A 
ATOM     22  H   UNL     1       2.155   0.828  19.542  0.00  0.00    +0.000 HD
ENDBRANCH  15  21
ENDBRANCH  14  15
ENDBRANCH  13  14
ENDBRANCH   1  13
TORSDOF 7
ENDMDL
MODEL 3
REMARK VINA RESULT:      -6.4      1.866      5.607
REMARK  Name = 
REMARK  8 active torsions:
REMARK  status: ('A' for Active; 'I' for Inactive)
REMARK    1  A    between atoms: C_1  and  C_2
REMARK    2  A    between atoms: C_6  and  C_7
REMARK    3  A    between atoms: C_7  and  S_8
REMARK    4  A    between atoms: S_8  and  C_9
REMARK    5  A    between atoms: C_9  and  C_10
REMARK    6  A    between atoms: C_10  and  N_11
REMARK    7  A    between atoms: N_11  and  C_12
REMARK    8  A    between atoms: C_16  and  N_17
REMARK                            x       y       z     vdW  Elec       q    Type
REMARK                         _______ _______ _______ _____ _____    ______ ____
ROOT
ATOM      1  C   UNL     1       3.931   7.082  17.486  0.00  0.00    +0.000 C 
ENDROOT
BRANCH   1   2
ATOM      2  N   UNL     1       5.381   6.993  17.251  0.00  0.00    +0.000 N 
ATOM      3  H   UNL     1       5.939   7.198  18.088  0.00  0.00    +0.000 HD
BRANCH   2   4
ATOM      4  C   UNL     1       5.860   6.002  16.437  0.00  0.00    +0.000 A 
ATOM      5  N   UNL     1       5.507   5.970  15.104  0.00  0.00    +0.000 N 
ATOM      6  C   UNL     1       6.078   4.894  14.473  0.00  0.00    +0.000 A 
ATOM      7  C   UNL     1       6.842   4.230  15.400  0.00  0.00    +0.000 A 
ATOM      8  C   UNL     1       6.716   4.925  16.643  0.00  0.00    +0.000 A 
ATOM      9  H   UNL     1       4.910   6.647  14.654  0.00  0.00    +0.000 HD
BRANCH   8  10
ATOM     10  N   UNL     1       7.346   4.542  17.881  0.00  0.00    +0.000 N 
ATOM     11  O   UNL     1       8.497   4.090  17.830  0.00  0.00    +0.000 OA
ATOM     12  O   UNL     1       6.682   4.712  18.919  0.00  0.00    +0.000 OA
ENDBRANCH   8  10
ENDBRANCH   2   4
ENDBRANCH   1   2
BRANCH   1  13
ATOM     13  C   UNL     1       3.300   5.816  18.080  0.00  0.00    +0.000 C 
BRANCH  13  14
ATOM     14  S   UNL     1       2.406   6.354  19.597  0.00  0.00    +0.000 S 
BRANCH  14  15
ATOM     15  C   UNL     1       2.526   4.855  20.618  0.00  0.00    +0.000 C 
BRANCH  15  21
ATOM     16  C   UNL     1       4.341   2.158  19.844  0.00  0.00    +0.000 C 
ATOM     17  C   UNL     1       2.934   2.514  19.554  0.00  0.00    +0.000 A 
ATOM     18  N   UNL     1       2.091   1.691  18.849  0.00  0.00    +0.000 N 
ATOM     19  C   UNL     1       0.880   2.315  18.757  0.00  0.00    +0.000 A 
ATOM     20  N   UNL     1       0.890   3.478  19.359  0.00  0.00    +0.000 NA
ATOM     21  C   UNL     1       2.164   3.622  19.868  0.00  0.00    +0.000 A 
ATOM     22  H   UNL     1       2.319   0.786  18.462  0.00  0.00    +0.000 HD
ENDBRANCH  15  21
ENDBRANCH  14  15
ENDBRANCH  13  14
ENDBRANCH   1  13
TORSDOF 7
ENDMDL
MODEL 4
REMARK VINA RESULT:      -6.3      2.862      5.846
REMARK  Name = 
REMARK  8 active torsions:
REMARK  status: ('A' for Active; 'I' for Inactive)
REMARK    1  A    between atoms: C_1  and  C_2
REMARK    2  A    between atoms: C_6  and  C_7
REMARK    3  A    between atoms: C_7  and  S_8
REMARK    4  A    between atoms: S_8  and  C_9
REMARK    5  A    between atoms: C_9  and  C_10
REMARK    6  A    between atoms: C_10  and  N_11
REMARK    7  A    between atoms: N_11  and  C_12
REMARK    8  A    between atoms: C_16  and  N_17
REMARK                            x       y       z     vdW  Elec       q    Type
REMARK                         _______ _______ _______ _____ _____    ______ ____
ROOT
ATOM      1  C   UNL     1       5.205   3.888  19.206  0.00  0.00    +0.000 C 
ENDROOT
BRANCH   1   2
ATOM      2  N   UNL     1       6.401   4.008  18.357  0.00  0.00    +0.000 N 
ATOM      3  H   UNL     1       6.417   3.337  17.581  0.00  0.00    +0.000 HD
BRANCH   2   4
ATOM      4  C   UNL     1       6.894   5.256  18.081  0.00  0.00    +0.000 A 
ATOM      5  N   UNL     1       7.707   5.897  18.992  0.00  0.00    +0.000 N 
ATOM      6  C   UNL     1       8.076   7.135  18.531  0.00  0.00    +0.000 A 
ATOM      7  C   UNL     1       7.522   7.294  17.286  0.00  0.00    +0.000 A 
ATOM      8  C   UNL     1       6.776   6.110  16.989  0.00  0.00    +0.000 A 
ATOM      9  H   UNL     1       7.993   5.507  19.877  0.00  0.00    +0.000 HD
BRANCH   8  10
ATOM     10  N   UNL     1       6.023   5.879  15.783  0.00  0.00    +0.000 N 
ATOM     11  O   UNL     1       5.254   6.770  15.400  0.00  0.00    +0.000 OA
ATOM     12  O   UNL     1       6.218   4.795  15.206  0.00  0.00    +0.000 OA
ENDBRANCH   8  10
ENDBRANCH   2   4
ENDBRANCH   1   2
BRANCH   1  13
ATOM     13  C   UNL     1       4.184   2.847  18.729  0.00  0.00    +0.000 C 
BRANCH  13  14
ATOM     14  S   UNL     1       3.484   3.502  17.157  0.00  0.00    +0.000 S 
BRANCH  14  15
ATOM     15  C   UNL     1       1.861   4.094  17.723  0.00  0.00    +0.000 C 
BRANCH  15  21
ATOM     16  C   UNL     1       1.273   3.655  20.983  0.00  0.00    +0.000 C 
ATOM     17  C   UNL     1       1.712   4.840  20.213  0.00  0.00    +0.000 A 
ATOM     18  N   UNL     1       1.966   6.055  20.800  0.00  0.00    +0.000 N 
ATOM     19  C   UNL     1       2.343   6.923  19.817  0.00  0.00    +0.000 A 
ATOM     20  N   UNL     1       2.352   6.346  18.642  0.00  0.00    +0.000 NA
ATOM     21  C   UNL     1       1.964   5.041  18.865  0.00  0.00    +0.000 A 
ATOM     22  H   UNL     1       1.887   6.275  21.783  0.00  0.00    +0.000 HD
ENDBRANCH  15  21
ENDBRANCH  14  15
ENDBRANCH  13  14
ENDBRANCH   1  13
TORSDOF 7
ENDMDL
MODEL 5
REMARK VINA RESULT:      -6.2      2.827      5.721
REMARK  Name = 
REMARK  8 active torsions:
REMARK  status: ('A' for Active; 'I' for Inactive)
REMARK    1  A    between atoms: C_1  and  C_2
REMARK    2  A    between atoms: C_6  and  C_7
REMARK    3  A    between atoms: C_7  and  S_8
REMARK    4  A    between atoms: S_8  and  C_9
REMARK    5  A    between atoms: C_9  and  C_10
REMARK    6  A    between atoms: C_10  and  N_11
REMARK    7  A    between atoms: N_11  and  C_12
REMARK    8  A    between atoms: C_16  and  N_17
REMARK                            x       y       z     vdW  Elec       q    Type
REMARK                         _______ _______ _______ _____ _____    ______ ____
ROOT
ATOM      1  C   UNL     1       4.622   3.329  16.557  0.00  0.00    +0.000 C 
ENDROOT
BRANCH   1   2
ATOM      2  N   UNL     1       6.052   3.640  16.403  0.00  0.00    +0.000 N 
ATOM      3  H   UNL     1       6.376   3.589  15.430  0.00  0.00    +0.000 HD
BRANCH   2   4
ATOM      4  C   UNL     1       6.599   4.638  17.165  0.00  0.00    +0.000 A 
ATOM      5  N   UNL     1       7.644   4.362  18.022  0.00  0.00    +0.000 N 
ATOM      6  C   UNL     1       8.031   5.489  18.700  0.00  0.00    +0.000 A 
ATOM      7  C   UNL     1       7.249   6.526  18.257  0.00  0.00    +0.000 A 
ATOM      8  C   UNL     1       6.343   6.000  17.283  0.00  0.00    +0.000 A 
ATOM      9  H   UNL     1       8.067   3.453  18.133  0.00  0.00    +0.000 HD
BRANCH   8  10
ATOM     10  N   UNL     1       5.336   6.758  16.585  0.00  0.00    +0.000 N 
ATOM     11  O   UNL     1       5.367   6.761  15.348  0.00  0.00    +0.000 OA
ATOM     12  O   UNL     1       4.494   7.344  17.288  0.00  0.00    +0.000 OA
ENDBRANCH   8  10
ENDBRANCH   2   4
ENDBRANCH   1   2
BRANCH   1  13
ATOM     13  C   UNL     1       4.148   3.203  18.010  0.00  0.00    +0.000 C 
BRANCH  13  14
ATOM     14  S   UNL     1       2.688   2.081  17.976  0.00  0.00    +0.000 S 
BRANCH  14  15
ATOM     15  C   UNL     1       1.349   3.246  18.365  0.00  0.00    +0.000 C 
BRANCH  15  21
ATOM     16  C   UNL     1       1.888   3.096  21.659  0.00  0.00    +0.000 C 
ATOM     17  C   UNL     1       1.984   4.216  20.696  0.00  0.00    +0.000 A 
ATOM     18  N   UNL     1       2.349   5.487  21.069  0.00  0.00    +0.000 N 
ATOM     19  C   UNL     1       2.333   6.269  19.951  0.00  0.00    +0.000 A 
ATOM     20  N   UNL     1       1.988   5.586  18.888  0.00  0.00    +0.000 NA
ATOM     21  C   UNL     1       1.768   4.298  19.330  0.00  0.00    +0.000 A 
ATOM     22  H   UNL     1       2.584   5.795  22.002  0.00  0.00    +0.000 HD
ENDBRANCH  15  21
ENDBRANCH  14  15
ENDBRANCH  13  14
ENDBRANCH   1  13
TORSDOF 7
ENDMDL
MODEL 6
REMARK VINA RESULT:      -6.1      2.264      5.685
REMARK  Name = 
REMARK  8 active torsions:
REMARK  status: ('A' for Active; 'I' for Inactive)
REMARK    1  A    between atoms: C_1  and  C_2
REMARK    2  A    between atoms: C_6  and  C_7
REMARK    3  A    between atoms: C_7  and  S_8
REMARK    4  A    between atoms: S_8  and  C_9
REMARK    5  A    between atoms: C_9  and  C_10
REMARK    6  A    between atoms: C_10  and  N_11
REMARK    7  A    between atoms: N_11  and  C_12
REMARK    8  A    between atoms: C_16  and  N_17
REMARK                            x       y       z     vdW  Elec       q    Type
REMARK                         _______ _______ _______ _____ _____    ______ ____
ROOT
ATOM      1  C   UNL     1       4.790   5.106  19.265  0.00  0.00    +0.000 C 
ENDROOT
BRANCH   1   2
ATOM      2  N   UNL     1       5.807   4.211  18.690  0.00  0.00    +0.000 N 
ATOM      3  H   UNL     1       5.689   3.230  18.971  0.00  0.00    +0.000 HD
BRANCH   2   4
ATOM      4  C   UNL     1       6.220   4.420  17.401  0.00  0.00    +0.000 A 
ATOM      5  N   UNL     1       5.843   3.547  16.403  0.00  0.00    +0.000 N 
ATOM      6  C   UNL     1       6.374   3.926  15.196  0.00  0.00    +0.000 A 
ATOM      7  C   UNL     1       7.082   5.083  15.402  0.00  0.00    +0.000 A 
ATOM      8  C   UNL     1       6.987   5.408  16.792  0.00  0.00    +0.000 A 
ATOM      9  H   UNL     1       5.257   2.738  16.542  0.00  0.00    +0.000 HD
BRANCH   8  10
ATOM     10  N   UNL     1       7.608   6.541  17.429  0.00  0.00    +0.000 N 
ATOM     11  O   UNL     1       7.998   6.409  18.596  0.00  0.00    +0.000 OA
ATOM     12  O   UNL     1       7.719   7.572  16.743  0.00  0.00    +0.000 OA
ENDBRANCH   8  10
ENDBRANCH   2   4
ENDBRANCH   1   2
BRANCH   1  13
ATOM     13  C   UNL     1       4.306   6.214  18.322  0.00  0.00    +0.000 C 
BRANCH  13  14
ATOM     14  S   UNL     1       2.519   6.458  18.695  0.00  0.00    +0.000 S 
BRANCH  14  15
ATOM     15  C   UNL     1       1.818   4.910  18.052  0.00  0.00    +0.000 C 
BRANCH  15  21
ATOM     16  C   UNL     1       3.053   1.806  18.136  0.00  0.00    +0.000 C 
ATOM     17  C   UNL     1       2.235   2.567  19.108  0.00  0.00    +0.000 A 
ATOM     18  N   UNL     1       1.829   2.040  20.309  0.00  0.00    +0.000 N 
ATOM     19  C   UNL     1       1.096   2.992  20.955  0.00  0.00    +0.000 A 
ATOM     20  N   UNL     1       1.009   4.094  20.252  0.00  0.00    +0.000 NA
ATOM     21  C   UNL     1       1.717   3.852  19.093  0.00  0.00    +0.000 A 
ATOM     22  H   UNL     1       2.031   1.113  20.657  0.00  0.00    +0.000 HD
ENDBRANCH  15  21
ENDBRANCH  14  15
ENDBRANCH  13  14
ENDBRANCH   1  13
TORSDOF 7
ENDMDL
MODEL 7
REMARK VINA RESULT:      -6.1      2.895      3.849
REMARK  Name = 
REMARK  8 active torsions:
REMARK  status: ('A' for Active; 'I' for Inactive)
REMARK    1  A    between atoms: C_1  and  C_2
REMARK    2  A    between atoms: C_6  and  C_7
REMARK    3  A    between atoms: C_7  and  S_8
REMARK    4  A    between atoms: S_8  and  C_9
REMARK    5  A    between atoms: C_9  and  C_10
REMARK    6  A    between atoms: C_10  and  N_11
REMARK    7  A    between atoms: N_11  and  C_12
REMARK    8  A    between atoms: C_16  and  N_17
REMARK                            x       y       z     vdW  Elec       q    Type
REMARK                         _______ _______ _______ _____ _____    ______ ____
ROOT
ATOM      1  C   UNL     1       4.154   6.454  17.462  0.00  0.00    +0.000 C 
ENDROOT
BRANCH   1   2
ATOM      2  N   UNL     1       4.139   5.244  18.299  0.00  0.00    +0.000 N 
ATOM      3  H   UNL     1       5.061   5.005  18.681  0.00  0.00    +0.000 HD
BRANCH   2   4
ATOM      4  C   UNL     1       3.071   5.025  19.127  0.00  0.00    +0.000 A 
ATOM      5  N   UNL     1       2.879   5.823  20.236  0.00  0.00    +0.000 N 
ATOM      6  C   UNL     1       1.768   5.428  20.936  0.00  0.00    +0.000 A 
ATOM      7  C   UNL     1       1.205   4.376  20.257  0.00  0.00    +0.000 A 
ATOM      8  C   UNL     1       2.018   4.116  19.109  0.00  0.00    +0.000 A 
ATOM      9  H   UNL     1       3.476   6.593  20.496  0.00  0.00    +0.000 HD
BRANCH   8  10
ATOM     10  N   UNL     1       1.785   3.077  18.140  0.00  0.00    +0.000 N 
ATOM     11  O   UNL     1       1.181   2.062  18.511  0.00  0.00    +0.000 OA
ATOM     12  O   UNL     1       2.201   3.289  16.987  0.00  0.00    +0.000 OA
ENDBRANCH   8  10
ENDBRANCH   2   4
ENDBRANCH   1   2
BRANCH   1  13
ATOM     13  C   UNL     1       5.137   6.407  16.286  0.00  0.00    +0.000 C 
BRANCH  13  14
ATOM     14  S   UNL     1       6.270   4.994  16.624  0.00  0.00    +0.000 S 
BRANCH  14  15
ATOM     15  C   UNL     1       5.905   3.914  15.209  0.00  0.00    +0.000 C 
BRANCH  15  21
ATOM     16  C   UNL     1       5.540   2.927  12.037  0.00  0.00    +0.000 C 
ATOM     17  C   UNL     1       6.460   3.902  12.665  0.00  0.00    +0.000 A 
ATOM     18  N   UNL     1       7.393   4.610  11.948  0.00  0.00    +0.000 N 
ATOM     19  C   UNL     1       8.072   5.408  12.822  0.00  0.00    +0.000 A 
ATOM     20  N   UNL     1       7.636   5.261  14.048  0.00  0.00    +0.000 NA
ATOM     21  C   UNL     1       6.625   4.326  13.974  0.00  0.00    +0.000 A 
ATOM     22  H   UNL     1       7.554   4.555  10.952  0.00  0.00    +0.000 HD
ENDBRANCH  15  21
ENDBRANCH  14  15
ENDBRANCH  13  14
ENDBRANCH   1  13
TORSDOF 7
ENDMDL
MODEL 8
REMARK VINA RESULT:      -6.0      2.857      5.469
REMARK  Name = 
REMARK  8 active torsions:
REMARK  status: ('A' for Active; 'I' for Inactive)
REMARK    1  A    between atoms: C_1  and  C_2
REMARK    2  A    between atoms: C_6  and  C_7
REMARK    3  A    between atoms: C_7  and  S_8
REMARK    4  A    between atoms: S_8  and  C_9
REMARK    5  A    between atoms: C_9  and  C_10
REMARK    6  A    between atoms: C_10  and  N_11
REMARK    7  A    between atoms: N_11  and  C_12
REMARK    8  A    between atoms: C_16  and  N_17
REMARK                            x       y       z     vdW  Elec       q    Type
REMARK                         _______ _______ _______ _____ _____    ______ ____
ROOT
ATOM      1  C   UNL     1       5.072   3.139  19.520  0.00  0.00    +0.000 C 
ENDROOT
BRANCH   1   2
ATOM      2  N   UNL     1       5.528   3.565  18.187  0.00  0.00    +0.000 N 
ATOM      3  H   UNL     1       4.826   3.420  17.453  0.00  0.00    +0.000 HD
BRANCH   2   4
ATOM      4  C   UNL     1       6.284   4.703  18.079  0.00  0.00    +0.000 A 
ATOM      5  N   UNL     1       7.101   5.092  19.118  0.00  0.00    +0.000 N 
ATOM      6  C   UNL     1       7.755   6.259  18.815  0.00  0.00    +0.000 A 
ATOM      7  C   UNL     1       7.384   6.621  17.544  0.00  0.00    +0.000 A 
ATOM      8  C   UNL     1       6.458   5.642  17.067  0.00  0.00    +0.000 A 
ATOM      9  H   UNL     1       7.205   4.587  19.985  0.00  0.00    +0.000 HD
BRANCH   8  10
ATOM     10  N   UNL     1       5.812   5.661  15.780  0.00  0.00    +0.000 N 
ATOM     11  O   UNL     1       5.674   4.584  15.184  0.00  0.00    +0.000 OA
ATOM     12  O   UNL     1       5.424   6.768  15.369  0.00  0.00    +0.000 OA
ENDBRANCH   8  10
ENDBRANCH   2   4
ENDBRANCH   1   2
BRANCH   1  13
ATOM     13  C   UNL     1       3.719   2.417  19.532  0.00  0.00    +0.000 C 
BRANCH  13  14
ATOM     14  S   UNL     1       3.107   2.448  17.795  0.00  0.00    +0.000 S 
BRANCH  14  15
ATOM     15  C   UNL     1       1.778   3.681  17.920  0.00  0.00    +0.000 C 
BRANCH  15  21
ATOM     16  C   UNL     1       1.544   4.938  21.007  0.00  0.00    +0.000 C 
ATOM     17  C   UNL     1       2.140   5.481  19.766  0.00  0.00    +0.000 A 
ATOM     18  N   UNL     1       2.745   6.713  19.710  0.00  0.00    +0.000 N 
ATOM     19  C   UNL     1       3.178   6.906  18.431  0.00  0.00    +0.000 A 
ATOM     20  N   UNL     1       2.897   5.881  17.665  0.00  0.00    +0.000 NA
ATOM     21  C   UNL     1       2.250   4.976  18.480  0.00  0.00    +0.000 A 
ATOM     22  H   UNL     1       2.850   7.365  20.474  0.00  0.00    +0.000 HD
ENDBRANCH  15  21
ENDBRANCH  14  15
ENDBRANCH  13  14
ENDBRANCH   1  13
TORSDOF 7
ENDMDL
MODEL 9
REMARK VINA RESULT:      -6.0      2.306      3.022
REMARK  Name = 
REMARK  8 active torsions:
REMARK  status: ('A' for Active; 'I' for Inactive)
REMARK    1  A    between atoms: C_1  and  C_2
REMARK    2  A    between atoms: C_6  and  C_7
REMARK    3  A    between atoms: C_7  and  S_8
REMARK    4  A    between atoms: S_8  and  C_9
REMARK    5  A    between atoms: C_9  and  C_10
REMARK    6  A    between atoms: C_10  and  N_11
REMARK    7  A    between atoms: N_11  and  C_12
REMARK    8  A    between atoms: C_16  and  N_17
REMARK                            x       y       z     vdW  Elec       q    Type
REMARK                         _______ _______ _______ _____ _____    ______ ____
ROOT
ATOM      1  C   UNL     1       4.586   4.040  17.308  0.00  0.00    +0.000 C 
ENDROOT
BRANCH   1   2
ATOM      2  N   UNL     1       4.462   3.479  18.662  0.00  0.00    +0.000 N 
ATOM      3  H   UNL     1       5.348   3.470  19.180  0.00  0.00    +0.000 HD
BRANCH   2   4
ATOM      4  C   UNL     1       3.340   3.763  19.396  0.00  0.00    +0.000 A 
ATOM      5  N   UNL     1       3.399   4.682  20.422  0.00  0.00    +0.000 N 
ATOM      6  C   UNL     1       2.179   4.807  21.037  0.00  0.00    +0.000 A 
ATOM      7  C   UNL     1       1.301   3.980  20.382  0.00  0.00    +0.000 A 
ATOM      8  C   UNL     1       2.023   3.319  19.340  0.00  0.00    +0.000 A 
ATOM      9  H   UNL     1       4.227   5.195  20.684  0.00  0.00    +0.000 HD
BRANCH   8  10
ATOM     10  N   UNL     1       1.472   2.349  18.428  0.00  0.00    +0.000 N 
ATOM     11  O   UNL     1       2.249   1.775  17.654  0.00  0.00    +0.000 OA
ATOM     12  O   UNL     1       0.247   2.150  18.502  0.00  0.00    +0.000 OA
ENDBRANCH   8  10
ENDBRANCH   2   4
ENDBRANCH   1   2
BRANCH   1  13
ATOM     13  C   UNL     1       4.232   5.528  17.197  0.00  0.00    +0.000 C 
BRANCH  13  14
ATOM     14  S   UNL     1       5.309   6.212  15.868  0.00  0.00    +0.000 S 
BRANCH  14  15
ATOM     15  C   UNL     1       6.879   5.371  16.229  0.00  0.00    +0.000 C 
BRANCH  15  21
ATOM     16  C   UNL     1       7.806   8.311  17.520  0.00  0.00    +0.000 C 
ATOM     17  C   UNL     1       7.799   6.944  18.089  0.00  0.00    +0.000 A 
ATOM     18  N   UNL     1       8.219   6.670  19.367  0.00  0.00    +0.000 N 
ATOM     19  C   UNL     1       8.088   5.327  19.570  0.00  0.00    +0.000 A 
ATOM     20  N   UNL     1       7.608   4.724  18.511  0.00  0.00    +0.000 NA
ATOM     21  C   UNL     1       7.416   5.716  17.573  0.00  0.00    +0.000 A 
ATOM     22  H   UNL     1       8.567   7.338  20.041  0.00  0.00    +0.000 HD
ENDBRANCH  15  21
ENDBRANCH  14  15
ENDBRANCH  13  14
ENDBRANCH   1  13
TORSDOF 7
ENDMDL
