MODEL 1
REMARK VINA RESULT:      -7.9      0.000      0.000
REMARK  Name = 
REMARK  7 active torsions:
REMARK  status: ('A' for Active; 'I' for Inactive)
REMARK    1  A    between atoms: C_1  and  N_2
REMARK    2  A    between atoms: C_5  and  N_6
REMARK    3  A    between atoms: C_7  and  C_9
REMARK    4  A    between atoms: C_11  and  C_12
REMARK    5  A    between atoms: C_21  and  N_22
REMARK    6  A    between atoms: C_23  and  C_24
REMARK    7  A    between atoms: C_27  and  O_28
REMARK                            x       y       z     vdW  Elec       q    Type
REMARK                         _______ _______ _______ _____ _____    ______ ____
ROOT
ATOM      1  N   UNL     1       1.919   5.593  18.496  0.00  0.00    +0.000 N 
ATOM      2  C   UNL     1       2.246   6.500  19.493  0.00  0.00    +0.000 C 
ATOM      3  O   UNL     1       2.781   6.194  20.554  0.00  0.00    +0.000 OA
ATOM      4  H   UNL     1       1.707   6.007  17.599  0.00  0.00    +0.000 HD
ENDROOT
BRANCH   1   9
ATOM      5  C   UNL     1       4.081   1.154  18.311  0.00  0.00    +0.000 C 
ATOM      6  N   UNL     1       3.147   2.249  18.452  0.00  0.00    +0.000 N 
ATOM      7  N   UNL     1       1.967   2.009  19.066  0.00  0.00    +0.000 NA
ATOM      8  C   UNL     1       1.404   3.215  19.181  0.00  0.00    +0.000 A 
ATOM      9  C   UNL     1       2.177   4.226  18.584  0.00  0.00    +0.000 A 
ATOM     10  C   UNL     1       3.345   3.578  18.166  0.00  0.00    +0.000 A 
BRANCH  10  11
ATOM     11  C   UNL     1       4.647   4.245  17.832  0.00  0.00    +0.000 C 
ATOM     12  C   UNL     1       5.036   3.680  16.420  0.00  0.00    +0.000 C 
ATOM     13  C   UNL     1       6.037   4.539  15.637  0.00  0.00    +0.000 C 
ATOM     14  C   UNL     1       6.986   5.152  16.630  0.00  0.00    +0.000 C 
ATOM     15  C   UNL     1       6.140   5.949  17.693  0.00  0.00    +0.000 C 
ATOM     16  C   UNL     1       6.433   5.435  19.076  0.00  0.00    +0.000 C 
ATOM     17  C   UNL     1       5.535   4.209  19.108  0.00  0.00    +0.000 C 
ATOM     18  O   UNL     1       4.676   5.669  17.592  0.00  0.00    +0.000 OA
BRANCH  14  19
ATOM     19  O   UNL     1       7.793   4.099  17.181  0.00  0.00    +0.000 OA
ATOM     20  H   UNL     1       7.342   3.227  17.079  0.00  0.00    +0.000 HD
ENDBRANCH  14  19
ENDBRANCH  10  11
ENDBRANCH   1   9
BRANCH   2  21
ATOM     21  C   UNL     1       1.969   7.911  19.118  0.00  0.00    +0.000 A 
ATOM     22  N   UNL     1       1.018   8.690  19.811  0.00  0.00    +0.000 NA
ATOM     23  C   UNL     1       0.975   9.916  19.316  0.00  0.00    +0.000 A 
ATOM     24  S   UNL     1       2.072  10.202  18.021  0.00  0.00    +0.000 S 
ATOM     25  C   UNL     1       2.558   8.564  18.041  0.00  0.00    +0.000 A 
BRANCH  23  26
ATOM     26  C   UNL     1       0.101  11.003  19.784  0.00  0.00    +0.000 A 
ATOM     27  C   UNL     1      -1.252  11.038  19.433  0.00  0.00    +0.000 A 
ATOM     28  F   UNL     1      -1.796  10.038  18.721  0.00  0.00    +0.000 F 
ATOM     29  C   UNL     1      -2.089  12.091  19.820  0.00  0.00    +0.000 A 
ATOM     30  C   UNL     1      -1.584  13.145  20.578  0.00  0.00    +0.000 A 
ATOM     31  C   UNL     1      -0.248  13.126  20.962  0.00  0.00    +0.000 A 
ATOM     32  C   UNL     1       0.577  12.068  20.568  0.00  0.00    +0.000 A 
ATOM     33  F   UNL     1       1.861  12.121  20.950  0.00  0.00    +0.000 F 
ENDBRANCH  23  26
BRANCH  25  34
ATOM     34  N   UNL     1       3.395   8.101  17.088  0.00  0.00    +0.000 N 
ATOM     35  H   UNL     1       4.393   8.045  17.271  0.00  0.00    +0.000 HD
ATOM     36  H   UNL     1       3.146   8.185  16.102  0.00  0.00    +0.000 HD
ENDBRANCH  25  34
ENDBRANCH   2  21
TORSDOF 6
ENDMDL
MODEL 2
REMARK VINA RESULT:      -7.8      0.099      1.463
REMARK  Name = 
REMARK  7 active torsions:
REMARK  status: ('A' for Active; 'I' for Inactive)
REMARK    1  A    between atoms: C_1  and  N_2
REMARK    2  A    between atoms: C_5  and  N_6
REMARK    3  A    between atoms: C_7  and  C_9
REMARK    4  A    between atoms: C_11  and  C_12
REMARK    5  A    between atoms: C_21  and  N_22
REMARK    6  A    between atoms: C_23  and  C_24
REMARK    7  A    between atoms: C_27  and  O_28
REMARK                            x       y       z     vdW  Elec       q    Type
REMARK                         _______ _______ _______ _____ _____    ______ ____
ROOT
ATOM      1  N   UNL     1       1.929   5.626  18.500  0.00  0.00    +0.000 N 
ATOM      2  C   UNL     1       2.158   6.522  19.534  0.00  0.00    +0.000 C 
ATOM      3  O   UNL     1       2.595   6.204  20.636  0.00  0.00    +0.000 OA
ATOM      4  H   UNL     1       1.798   6.051  17.592  0.00  0.00    +0.000 HD
ENDROOT
BRANCH   1   9
ATOM      5  C   UNL     1       4.093   1.188  18.339  0.00  0.00    +0.000 C 
ATOM      6  N   UNL     1       3.158   2.282  18.473  0.00  0.00    +0.000 N 
ATOM      7  N   UNL     1       1.975   2.044  19.082  0.00  0.00    +0.000 NA
ATOM      8  C   UNL     1       1.411   3.251  19.191  0.00  0.00    +0.000 A 
ATOM      9  C   UNL     1       2.187   4.260  18.594  0.00  0.00    +0.000 A 
ATOM     10  C   UNL     1       3.357   3.610  18.183  0.00  0.00    +0.000 A 
BRANCH  10  11
ATOM     11  C   UNL     1       4.661   4.277  17.852  0.00  0.00    +0.000 C 
ATOM     12  C   UNL     1       5.030   3.744  16.422  0.00  0.00    +0.000 C 
ATOM     13  C   UNL     1       6.029   4.616  15.650  0.00  0.00    +0.000 C 
ATOM     14  C   UNL     1       6.993   5.197  16.648  0.00  0.00    +0.000 C 
ATOM     15  C   UNL     1       6.164   5.973  17.739  0.00  0.00    +0.000 C 
ATOM     16  C   UNL     1       6.467   5.423  19.106  0.00  0.00    +0.000 C 
ATOM     17  C   UNL     1       5.562   4.202  19.117  0.00  0.00    +0.000 C 
ATOM     18  O   UNL     1       4.697   5.706  17.647  0.00  0.00    +0.000 OA
BRANCH  14  19
ATOM     19  O   UNL     1       7.798   4.125  17.164  0.00  0.00    +0.000 OA
ATOM     20  H   UNL     1       7.763   3.344  16.562  0.00  0.00    +0.000 HD
ENDBRANCH  14  19
ENDBRANCH  10  11
ENDBRANCH   1   9
BRANCH   2  21
ATOM     21  C   UNL     1       1.907   7.936  19.154  0.00  0.00    +0.000 A 
ATOM     22  N   UNL     1       0.975   8.737  19.847  0.00  0.00    +0.000 NA
ATOM     23  C   UNL     1       0.955   9.962  19.346  0.00  0.00    +0.000 A 
ATOM     24  S   UNL     1       2.050  10.220  18.044  0.00  0.00    +0.000 S 
ATOM     25  C   UNL     1       2.503   8.572  18.070  0.00  0.00    +0.000 A 
BRANCH  23  26
ATOM     26  C   UNL     1       0.105  11.069  19.813  0.00  0.00    +0.000 A 
ATOM     27  C   UNL     1       0.627  12.083  20.622  0.00  0.00    +0.000 A 
ATOM     28  F   UNL     1       1.933  12.104  20.928  0.00  0.00    +0.000 F 
ATOM     29  C   UNL     1      -0.176  13.114  21.124  0.00  0.00    +0.000 A 
ATOM     30  C   UNL     1      -1.535  13.155  20.821  0.00  0.00    +0.000 A 
ATOM     31  C   UNL     1      -2.077  12.173  20.000  0.00  0.00    +0.000 A 
ATOM     32  C   UNL     1      -1.264  11.149  19.506  0.00  0.00    +0.000 A 
ATOM     33  F   UNL     1      -1.852  10.219  18.739  0.00  0.00    +0.000 F 
ENDBRANCH  23  26
BRANCH  25  34
ATOM     34  N   UNL     1       3.326   8.088  17.115  0.00  0.00    +0.000 N 
ATOM     35  H   UNL     1       3.085   7.232  16.622  0.00  0.00    +0.000 HD
ATOM     36  H   UNL     1       4.324   8.299  17.141  0.00  0.00    +0.000 HD
ENDBRANCH  25  34
ENDBRANCH   2  21
TORSDOF 6
ENDMDL
MODEL 3
REMARK VINA RESULT:      -7.8      1.208      1.606
REMARK  Name = 
REMARK  7 active torsions:
REMARK  status: ('A' for Active; 'I' for Inactive)
REMARK    1  A    between atoms: C_1  and  N_2
REMARK    2  A    between atoms: C_5  and  N_6
REMARK    3  A    between atoms: C_7  and  C_9
REMARK    4  A    between atoms: C_11  and  C_12
REMARK    5  A    between atoms: C_21  and  N_22
REMARK    6  A    between atoms: C_23  and  C_24
REMARK    7  A    between atoms: C_27  and  O_28
REMARK                            x       y       z     vdW  Elec       q    Type
REMARK                         _______ _______ _______ _____ _____    ______ ____
ROOT
ATOM      1  N   UNL     1       1.597   5.376  19.017  0.00  0.00    +0.000 N 
ATOM      2  C   UNL     1       1.964   6.190  20.079  0.00  0.00    +0.000 C 
ATOM      3  O   UNL     1       2.592   5.801  21.059  0.00  0.00    +0.000 OA
ATOM      4  H   UNL     1       1.300   5.871  18.187  0.00  0.00    +0.000 HD
ENDROOT
BRANCH   1   9
ATOM      5  C   UNL     1       3.910   1.089  18.192  0.00  0.00    +0.000 C 
ATOM      6  N   UNL     1       2.948   2.117  18.522  0.00  0.00    +0.000 N 
ATOM      7  N   UNL     1       1.834   1.759  19.198  0.00  0.00    +0.000 NA
ATOM      8  C   UNL     1       1.235   2.919  19.485  0.00  0.00    +0.000 A 
ATOM      9  C   UNL     1       1.916   4.022  18.939  0.00  0.00    +0.000 A 
ATOM     10  C   UNL     1       3.070   3.477  18.364  0.00  0.00    +0.000 A 
BRANCH  10  11
ATOM     11  C   UNL     1       4.312   4.237  18.001  0.00  0.00    +0.000 C 
ATOM     12  C   UNL     1       4.611   3.828  16.515  0.00  0.00    +0.000 C 
ATOM     13  C   UNL     1       5.510   4.805  15.747  0.00  0.00    +0.000 C 
ATOM     14  C   UNL     1       6.507   5.368  16.722  0.00  0.00    +0.000 C 
ATOM     15  C   UNL     1       5.716   6.018  17.918  0.00  0.00    +0.000 C 
ATOM     16  C   UNL     1       6.138   5.391  19.218  0.00  0.00    +0.000 C 
ATOM     17  C   UNL     1       5.299   4.124  19.196  0.00  0.00    +0.000 C 
ATOM     18  O   UNL     1       4.261   5.677  17.900  0.00  0.00    +0.000 OA
BRANCH  14  19
ATOM     19  O   UNL     1       7.399   4.309  17.106  0.00  0.00    +0.000 OA
ATOM     20  H   UNL     1       8.304   4.470  16.745  0.00  0.00    +0.000 HD
ENDBRANCH  14  19
ENDBRANCH  10  11
ENDBRANCH   1   9
BRANCH   2  21
ATOM     21  C   UNL     1       1.603   7.617  19.879  0.00  0.00    +0.000 A 
ATOM     22  N   UNL     1       0.690   8.277  20.728  0.00  0.00    +0.000 NA
ATOM     23  C   UNL     1       0.558   9.545  20.369  0.00  0.00    +0.000 A 
ATOM     24  S   UNL     1       1.523  10.010  19.023  0.00  0.00    +0.000 S 
ATOM     25  C   UNL     1       2.068   8.402  18.830  0.00  0.00    +0.000 A 
BRANCH  23  26
ATOM     26  C   UNL     1      -0.310  10.538  21.022  0.00  0.00    +0.000 A 
ATOM     27  C   UNL     1      -0.389  10.617  22.416  0.00  0.00    +0.000 A 
ATOM     28  F   UNL     1       0.382   9.834  23.186  0.00  0.00    +0.000 F 
ATOM     29  C   UNL     1      -1.250  11.514  23.056  0.00  0.00    +0.000 A 
ATOM     30  C   UNL     1      -2.059  12.366  22.308  0.00  0.00    +0.000 A 
ATOM     31  C   UNL     1      -1.984  12.327  20.920  0.00  0.00    +0.000 A 
ATOM     32  C   UNL     1      -1.120  11.424  20.293  0.00  0.00    +0.000 A 
ATOM     33  F   UNL     1      -1.112  11.419  18.952  0.00  0.00    +0.000 F 
ENDBRANCH  23  26
BRANCH  25  34
ATOM     34  N   UNL     1       2.833   8.077  17.765  0.00  0.00    +0.000 N 
ATOM     35  H   UNL     1       2.694   8.549  16.876  0.00  0.00    +0.000 HD
ATOM     36  H   UNL     1       3.245   7.146  17.693  0.00  0.00    +0.000 HD
ENDBRANCH  25  34
ENDBRANCH   2  21
TORSDOF 6
ENDMDL
MODEL 4
REMARK VINA RESULT:      -7.7      2.330      3.835
REMARK  Name = 
REMARK  7 active torsions:
REMARK  status: ('A' for Active; 'I' for Inactive)
REMARK    1  A    between atoms: C_1  and  N_2
REMARK    2  A    between atoms: C_5  and  N_6
REMARK    3  A    between atoms: C_7  and  C_9
REMARK    4  A    between atoms: C_11  and  C_12
REMARK    5  A    between atoms: C_21  and  N_22
REMARK    6  A    between atoms: C_23  and  C_24
REMARK    7  A    between atoms: C_27  and  O_28
REMARK                            x       y       z     vdW  Elec       q    Type
REMARK                         _______ _______ _______ _____ _____    ______ ____
ROOT
ATOM      1  N   UNL     1       3.104   7.409  18.583  0.00  0.00    +0.000 N 
ATOM      2  C   UNL     1       2.250   8.459  18.281  0.00  0.00    +0.000 C 
ATOM      3  O   UNL     1       2.164   8.977  17.172  0.00  0.00    +0.000 OA
ATOM      4  H   UNL     1       2.902   6.935  19.453  0.00  0.00    +0.000 HD
ENDROOT
BRANCH   1   9
ATOM      5  C   UNL     1       5.671   4.131  15.923  0.00  0.00    +0.000 C 
ATOM      6  N   UNL     1       5.124   5.336  16.505  0.00  0.00    +0.000 N 
ATOM      7  N   UNL     1       5.352   6.512  15.879  0.00  0.00    +0.000 NA
ATOM      8  C   UNL     1       4.608   7.394  16.551  0.00  0.00    +0.000 A 
ATOM      9  C   UNL     1       3.953   6.813  17.652  0.00  0.00    +0.000 A 
ATOM     10  C   UNL     1       4.258   5.450  17.566  0.00  0.00    +0.000 A 
BRANCH  10  11
ATOM     11  C   UNL     1       3.511   4.340  18.245  0.00  0.00    +0.000 C 
ATOM     12  C   UNL     1       4.628   3.421  18.856  0.00  0.00    +0.000 C 
ATOM     13  C   UNL     1       4.158   2.509  19.997  0.00  0.00    +0.000 C 
ATOM     14  C   UNL     1       2.745   2.092  19.693  0.00  0.00    +0.000 C 
ATOM     15  C   UNL     1       1.877   3.392  19.503  0.00  0.00    +0.000 C 
ATOM     16  C   UNL     1       1.225   3.383  18.148  0.00  0.00    +0.000 C 
ATOM     17  C   UNL     1       2.374   3.883  17.288  0.00  0.00    +0.000 C 
ATOM     18  O   UNL     1       2.706   4.631  19.409  0.00  0.00    +0.000 OA
BRANCH  14  19
ATOM     19  O   UNL     1       2.775   1.224  18.549  0.00  0.00    +0.000 OA
ATOM     20  H   UNL     1       2.846   0.281  18.831  0.00  0.00    +0.000 HD
ENDBRANCH  14  19
ENDBRANCH  10  11
ENDBRANCH   1   9
BRANCH   2  21
ATOM     21  C   UNL     1       1.370   8.846  19.413  0.00  0.00    +0.000 A 
ATOM     22  N   UNL     1       0.613  10.036  19.391  0.00  0.00    +0.000 NA
ATOM     23  C   UNL     1      -0.114  10.143  20.492  0.00  0.00    +0.000 A 
ATOM     24  S   UNL     1       0.057   8.830  21.590  0.00  0.00    +0.000 S 
ATOM     25  C   UNL     1       1.256   8.126  20.597  0.00  0.00    +0.000 A 
BRANCH  23  26
ATOM     26  C   UNL     1      -1.024  11.252  20.818  0.00  0.00    +0.000 A 
ATOM     27  C   UNL     1      -1.166  11.701  22.135  0.00  0.00    +0.000 A 
ATOM     28  F   UNL     1      -0.419  11.173  23.118  0.00  0.00    +0.000 F 
ATOM     29  C   UNL     1      -2.067  12.715  22.477  0.00  0.00    +0.000 A 
ATOM     30  C   UNL     1      -2.852  13.315  21.496  0.00  0.00    +0.000 A 
ATOM     31  C   UNL     1      -2.716  12.906  20.174  0.00  0.00    +0.000 A 
ATOM     32  C   UNL     1      -1.813  11.890  19.847  0.00  0.00    +0.000 A 
ATOM     33  F   UNL     1      -1.746  11.526  18.558  0.00  0.00    +0.000 F 
ENDBRANCH  23  26
BRANCH  25  34
ATOM     34  N   UNL     1       1.922   7.031  21.024  0.00  0.00    +0.000 N 
ATOM     35  H   UNL     1       1.482   6.391  21.678  0.00  0.00    +0.000 HD
ATOM     36  H   UNL     1       2.942   7.026  21.043  0.00  0.00    +0.000 HD
ENDBRANCH  25  34
ENDBRANCH   2  21
TORSDOF 6
ENDMDL
MODEL 5
REMARK VINA RESULT:      -7.7      2.326      3.651
REMARK  Name = 
REMARK  7 active torsions:
REMARK  status: ('A' for Active; 'I' for Inactive)
REMARK    1  A    between atoms: C_1  and  N_2
REMARK    2  A    between atoms: C_5  and  N_6
REMARK    3  A    between atoms: C_7  and  C_9
REMARK    4  A    between atoms: C_11  and  C_12
REMARK    5  A    between atoms: C_21  and  N_22
REMARK    6  A    between atoms: C_23  and  C_24
REMARK    7  A    between atoms: C_27  and  O_28
REMARK                            x       y       z     vdW  Elec       q    Type
REMARK                         _______ _______ _______ _____ _____    ______ ____
ROOT
ATOM      1  N   UNL     1       3.041   7.417  18.580  0.00  0.00    +0.000 N 
ATOM      2  C   UNL     1       2.247   8.516  18.286  0.00  0.00    +0.000 C 
ATOM      3  O   UNL     1       2.227   9.078  17.196  0.00  0.00    +0.000 OA
ATOM      4  H   UNL     1       2.783   6.921  19.423  0.00  0.00    +0.000 HD
ENDROOT
BRANCH   1   9
ATOM      5  C   UNL     1       5.644   4.131  15.966  0.00  0.00    +0.000 C 
ATOM      6  N   UNL     1       5.085   5.338  16.534  0.00  0.00    +0.000 N 
ATOM      7  N   UNL     1       5.311   6.509  15.898  0.00  0.00    +0.000 NA
ATOM      8  C   UNL     1       4.557   7.393  16.557  0.00  0.00    +0.000 A 
ATOM      9  C   UNL     1       3.899   6.818  17.660  0.00  0.00    +0.000 A 
ATOM     10  C   UNL     1       4.212   5.456  17.588  0.00  0.00    +0.000 A 
BRANCH  10  11
ATOM     11  C   UNL     1       3.468   4.347  18.273  0.00  0.00    +0.000 C 
ATOM     12  C   UNL     1       4.588   3.429  18.879  0.00  0.00    +0.000 C 
ATOM     13  C   UNL     1       4.123   2.519  20.024  0.00  0.00    +0.000 C 
ATOM     14  C   UNL     1       2.708   2.103  19.729  0.00  0.00    +0.000 C 
ATOM     15  C   UNL     1       1.841   3.403  19.542  0.00  0.00    +0.000 C 
ATOM     16  C   UNL     1       1.181   3.393  18.190  0.00  0.00    +0.000 C 
ATOM     17  C   UNL     1       2.326   3.890  17.323  0.00  0.00    +0.000 C 
ATOM     18  O   UNL     1       2.671   4.642  19.441  0.00  0.00    +0.000 OA
BRANCH  14  19
ATOM     19  O   UNL     1       2.730   1.233  18.586  0.00  0.00    +0.000 OA
ATOM     20  H   UNL     1       3.658   0.990  18.353  0.00  0.00    +0.000 HD
ENDBRANCH  14  19
ENDBRANCH  10  11
ENDBRANCH   1   9
BRANCH   2  21
ATOM     21  C   UNL     1       1.340   8.900  19.398  0.00  0.00    +0.000 A 
ATOM     22  N   UNL     1       0.556  10.072  19.345  0.00  0.00    +0.000 NA
ATOM     23  C   UNL     1      -0.191  10.180  20.433  0.00  0.00    +0.000 A 
ATOM     24  S   UNL     1      -0.007   8.889  21.555  0.00  0.00    +0.000 S 
ATOM     25  C   UNL     1       1.224   8.197  20.592  0.00  0.00    +0.000 A 
BRANCH  23  26
ATOM     26  C   UNL     1      -1.130  11.273  20.727  0.00  0.00    +0.000 A 
ATOM     27  C   UNL     1      -1.974  11.781  19.734  0.00  0.00    +0.000 A 
ATOM     28  F   UNL     1      -1.993  11.230  18.510  0.00  0.00    +0.000 F 
ATOM     29  C   UNL     1      -2.834  12.858  19.976  0.00  0.00    +0.000 A 
ATOM     30  C   UNL     1      -2.873  13.455  21.234  0.00  0.00    +0.000 A 
ATOM     31  C   UNL     1      -2.063  12.956  22.247  0.00  0.00    +0.000 A 
ATOM     32  C   UNL     1      -1.207  11.880  21.991  0.00  0.00    +0.000 A 
ATOM     33  F   UNL     1      -0.434  11.461  23.004  0.00  0.00    +0.000 F 
ENDBRANCH  23  26
BRANCH  25  34
ATOM     34  N   UNL     1       1.908   7.125  21.047  0.00  0.00    +0.000 N 
ATOM     35  H   UNL     1       1.610   6.187  20.795  0.00  0.00    +0.000 HD
ATOM     36  H   UNL     1       2.436   7.184  21.918  0.00  0.00    +0.000 HD
ENDBRANCH  25  34
ENDBRANCH   2  21
TORSDOF 6
ENDMDL
MODEL 6
REMARK VINA RESULT:      -7.7      1.131      1.139
REMARK  Name = 
REMARK  7 active torsions:
REMARK  status: ('A' for Active; 'I' for Inactive)
REMARK    1  A    between atoms: C_1  and  N_2
REMARK    2  A    between atoms: C_5  and  N_6
REMARK    3  A    between atoms: C_7  and  C_9
REMARK    4  A    between atoms: C_11  and  C_12
REMARK    5  A    between atoms: C_21  and  N_22
REMARK    6  A    between atoms: C_23  and  C_24
REMARK    7  A    between atoms: C_27  and  O_28
REMARK                            x       y       z     vdW  Elec       q    Type
REMARK                         _______ _______ _______ _____ _____    ______ ____
ROOT
ATOM      1  N   UNL     1       1.688   5.355  18.909  0.00  0.00    +0.000 N 
ATOM      2  C   UNL     1       1.998   6.155  19.999  0.00  0.00    +0.000 C 
ATOM      3  O   UNL     1       2.582   5.755  21.002  0.00  0.00    +0.000 OA
ATOM      4  H   UNL     1       1.427   5.860  18.073  0.00  0.00    +0.000 HD
ENDROOT
BRANCH   1   9
ATOM      5  C   UNL     1       4.054   1.095  18.092  0.00  0.00    +0.000 C 
ATOM      6  N   UNL     1       3.077   2.112  18.413  0.00  0.00    +0.000 N 
ATOM      7  N   UNL     1       1.955   1.738  19.066  0.00  0.00    +0.000 NA
ATOM      8  C   UNL     1       1.340   2.890  19.351  0.00  0.00    +0.000 A 
ATOM      9  C   UNL     1       2.020   4.004  18.826  0.00  0.00    +0.000 A 
ATOM     10  C   UNL     1       3.189   3.473  18.268  0.00  0.00    +0.000 A 
BRANCH  10  11
ATOM     11  C   UNL     1       4.431   4.247  17.933  0.00  0.00    +0.000 C 
ATOM     12  C   UNL     1       4.755   3.859  16.447  0.00  0.00    +0.000 C 
ATOM     13  C   UNL     1       5.658   4.854  15.705  0.00  0.00    +0.000 C 
ATOM     14  C   UNL     1       6.636   5.411  16.702  0.00  0.00    +0.000 C 
ATOM     15  C   UNL     1       5.822   6.040  17.894  0.00  0.00    +0.000 C 
ATOM     16  C   UNL     1       6.229   5.399  19.192  0.00  0.00    +0.000 C 
ATOM     17  C   UNL     1       5.400   4.126  19.142  0.00  0.00    +0.000 C 
ATOM     18  O   UNL     1       4.370   5.688  17.850  0.00  0.00    +0.000 OA
BRANCH  14  19
ATOM     19  O   UNL     1       7.530   4.354  17.085  0.00  0.00    +0.000 OA
ATOM     20  H   UNL     1       7.513   3.627  16.418  0.00  0.00    +0.000 HD
ENDBRANCH  14  19
ENDBRANCH  10  11
ENDBRANCH   1   9
BRANCH   2  21
ATOM     21  C   UNL     1       1.636   7.582  19.803  0.00  0.00    +0.000 A 
ATOM     22  N   UNL     1       0.711   8.235  20.644  0.00  0.00    +0.000 NA
ATOM     23  C   UNL     1       0.581   9.504  20.292  0.00  0.00    +0.000 A 
ATOM     24  S   UNL     1       1.561   9.980  18.960  0.00  0.00    +0.000 S 
ATOM     25  C   UNL     1       2.112   8.374  18.764  0.00  0.00    +0.000 A 
BRANCH  23  26
ATOM     26  C   UNL     1      -0.298  10.491  20.939  0.00  0.00    +0.000 A 
ATOM     27  C   UNL     1      -1.105  11.342  20.178  0.00  0.00    +0.000 A 
ATOM     28  F   UNL     1      -1.148  11.225  18.841  0.00  0.00    +0.000 F 
ATOM     29  C   UNL     1      -1.905  12.326  20.770  0.00  0.00    +0.000 A 
ATOM     30  C   UNL     1      -1.918  12.480  22.154  0.00  0.00    +0.000 A 
ATOM     31  C   UNL     1      -1.144  11.633  22.938  0.00  0.00    +0.000 A 
ATOM     32  C   UNL     1      -0.348  10.655  22.334  0.00  0.00    +0.000 A 
ATOM     33  F   UNL     1       0.393   9.885  23.144  0.00  0.00    +0.000 F 
ENDBRANCH  23  26
BRANCH  25  34
ATOM     34  N   UNL     1       2.891   8.057  17.707  0.00  0.00    +0.000 N 
ATOM     35  H   UNL     1       3.891   7.930  17.831  0.00  0.00    +0.000 HD
ATOM     36  H   UNL     1       2.609   8.325  16.763  0.00  0.00    +0.000 HD
ENDBRANCH  25  34
ENDBRANCH   2  21
TORSDOF 6
ENDMDL
MODEL 7
REMARK VINA RESULT:      -7.5      2.168      3.539
REMARK  Name = 
REMARK  7 active torsions:
REMARK  status: ('A' for Active; 'I' for Inactive)
REMARK    1  A    between atoms: C_1  and  N_2
REMARK    2  A    between atoms: C_5  and  N_6
REMARK    3  A    between atoms: C_7  and  C_9
REMARK    4  A    between atoms: C_11  and  C_12
REMARK    5  A    between atoms: C_21  and  N_22
REMARK    6  A    between atoms: C_23  and  C_24
REMARK    7  A    between atoms: C_27  and  O_28
REMARK                            x       y       z     vdW  Elec       q    Type
REMARK                         _______ _______ _______ _____ _____    ______ ____
ROOT
ATOM      1  N   UNL     1       3.611   7.522  18.267  0.00  0.00    +0.000 N 
ATOM      2  C   UNL     1       2.269   7.817  18.079  0.00  0.00    +0.000 C 
ATOM      3  O   UNL     1       1.600   7.407  17.135  0.00  0.00    +0.000 OA
ATOM      4  H   UNL     1       3.965   7.725  19.192  0.00  0.00    +0.000 HD
ENDROOT
BRANCH   1   9
ATOM      5  C   UNL     1       5.617   3.637  15.967  0.00  0.00    +0.000 C 
ATOM      6  N   UNL     1       5.268   4.965  16.421  0.00  0.00    +0.000 N 
ATOM      7  N   UNL     1       5.670   6.022  15.682  0.00  0.00    +0.000 NA
ATOM      8  C   UNL     1       5.076   7.071  16.257  0.00  0.00    +0.000 A 
ATOM      9  C   UNL     1       4.350   6.712  17.406  0.00  0.00    +0.000 A 
ATOM     10  C   UNL     1       4.439   5.317  17.459  0.00  0.00    +0.000 A 
BRANCH  10  11
ATOM     11  C   UNL     1       3.536   4.409  18.242  0.00  0.00    +0.000 C 
ATOM     12  C   UNL     1       4.504   3.402  18.958  0.00  0.00    +0.000 C 
ATOM     13  C   UNL     1       3.906   2.695  20.182  0.00  0.00    +0.000 C 
ATOM     14  C   UNL     1       2.445   2.467  19.907  0.00  0.00    +0.000 C 
ATOM     15  C   UNL     1       1.783   3.855  19.573  0.00  0.00    +0.000 C 
ATOM     16  C   UNL     1       1.131   3.804  18.218  0.00  0.00    +0.000 C 
ATOM     17  C   UNL     1       2.339   4.031  17.324  0.00  0.00    +0.000 C 
ATOM     18  O   UNL     1       2.790   4.939  19.359  0.00  0.00    +0.000 OA
BRANCH  14  19
ATOM     19  O   UNL     1       2.338   1.489  18.860  0.00  0.00    +0.000 OA
ATOM     20  H   UNL     1       3.029   0.792  18.964  0.00  0.00    +0.000 HD
ENDBRANCH  14  19
ENDBRANCH  10  11
ENDBRANCH   1   9
BRANCH   2  21
ATOM     21  C   UNL     1       1.680   8.609  19.189  0.00  0.00    +0.000 A 
ATOM     22  N   UNL     1       1.285   9.952  19.013  0.00  0.00    +0.000 NA
ATOM     23  C   UNL     1       0.761  10.431  20.131  0.00  0.00    +0.000 A 
ATOM     24  S   UNL     1       0.700   9.305  21.430  0.00  0.00    +0.000 S 
ATOM     25  C   UNL     1       1.522   8.140  20.488  0.00  0.00    +0.000 A 
BRANCH  23  26
ATOM     26  C   UNL     1       0.242  11.794  20.323  0.00  0.00    +0.000 A 
ATOM     27  C   UNL     1      -1.101  12.093  20.077  0.00  0.00    +0.000 A 
ATOM     28  F   UNL     1      -1.961  11.123  19.728  0.00  0.00    +0.000 F 
ATOM     29  C   UNL     1      -1.603  13.394  20.198  0.00  0.00    +0.000 A 
ATOM     30  C   UNL     1      -0.762  14.437  20.578  0.00  0.00    +0.000 A 
ATOM     31  C   UNL     1       0.574  14.166  20.853  0.00  0.00    +0.000 A 
ATOM     32  C   UNL     1       1.062  12.862  20.726  0.00  0.00    +0.000 A 
ATOM     33  F   UNL     1       2.364  12.670  20.983  0.00  0.00    +0.000 F 
ENDBRANCH  23  26
BRANCH  25  34
ATOM     34  N   UNL     1       1.908   6.974  21.051  0.00  0.00    +0.000 N 
ATOM     35  H   UNL     1       1.703   6.789  22.029  0.00  0.00    +0.000 HD
ATOM     36  H   UNL     1       2.712   6.466  20.680  0.00  0.00    +0.000 HD
ENDBRANCH  25  34
ENDBRANCH   2  21
TORSDOF 6
ENDMDL
MODEL 8
REMARK VINA RESULT:      -7.5      2.252      3.757
REMARK  Name = 
REMARK  7 active torsions:
REMARK  status: ('A' for Active; 'I' for Inactive)
REMARK    1  A    between atoms: C_1  and  N_2
REMARK    2  A    between atoms: C_5  and  N_6
REMARK    3  A    between atoms: C_7  and  C_9
REMARK    4  A    between atoms: C_11  and  C_12
REMARK    5  A    between atoms: C_21  and  N_22
REMARK    6  A    between atoms: C_23  and  C_24
REMARK    7  A    between atoms: C_27  and  O_28
REMARK                            x       y       z     vdW  Elec       q    Type
REMARK                         _______ _______ _______ _____ _____    ______ ____
ROOT
ATOM      1  N   UNL     1       3.334   7.029  18.539  0.00  0.00    +0.000 N 
ATOM      2  C   UNL     1       2.469   8.088  18.300  0.00  0.00    +0.000 C 
ATOM      3  O   UNL     1       2.350   8.647  17.215  0.00  0.00    +0.000 OA
ATOM      4  H   UNL     1       3.157   6.523  19.396  0.00  0.00    +0.000 HD
ENDROOT
BRANCH   1   9
ATOM      5  C   UNL     1       5.853   3.863  15.705  0.00  0.00    +0.000 C 
ATOM      6  N   UNL     1       5.308   5.044  16.337  0.00  0.00    +0.000 N 
ATOM      7  N   UNL     1       5.495   6.238  15.733  0.00  0.00    +0.000 NA
ATOM      8  C   UNL     1       4.762   7.091  16.454  0.00  0.00    +0.000 A 
ATOM      9  C   UNL     1       4.157   6.472  17.563  0.00  0.00    +0.000 A 
ATOM     10  C   UNL     1       4.480   5.116  17.431  0.00  0.00    +0.000 A 
BRANCH  10  11
ATOM     11  C   UNL     1       3.776   3.977  18.108  0.00  0.00    +0.000 C 
ATOM     12  C   UNL     1       2.248   4.286  17.926  0.00  0.00    +0.000 C 
ATOM     13  C   UNL     1       1.323   3.071  18.079  0.00  0.00    +0.000 C 
ATOM     14  C   UNL     1       1.920   2.175  19.129  0.00  0.00    +0.000 C 
ATOM     15  C   UNL     1       3.391   1.819  18.696  0.00  0.00    +0.000 C 
ATOM     16  C   UNL     1       4.360   2.231  19.770  0.00  0.00    +0.000 C 
ATOM     17  C   UNL     1       4.501   3.712  19.458  0.00  0.00    +0.000 C 
ATOM     18  O   UNL     1       3.872   2.648  17.549  0.00  0.00    +0.000 OA
BRANCH  14  19
ATOM     19  O   UNL     1       1.819   2.846  20.395  0.00  0.00    +0.000 OA
ATOM     20  H   UNL     1       0.973   2.610  20.846  0.00  0.00    +0.000 HD
ENDBRANCH  14  19
ENDBRANCH  10  11
ENDBRANCH   1   9
BRANCH   2  21
ATOM     21  C   UNL     1       1.621   8.429  19.471  0.00  0.00    +0.000 A 
ATOM     22  N   UNL     1       0.956   9.670  19.568  0.00  0.00    +0.000 NA
ATOM     23  C   UNL     1       0.239   9.725  20.679  0.00  0.00    +0.000 A 
ATOM     24  S   UNL     1       0.309   8.303  21.646  0.00  0.00    +0.000 S 
ATOM     25  C   UNL     1       1.452   7.609  20.581  0.00  0.00    +0.000 A 
BRANCH  23  26
ATOM     26  C   UNL     1      -0.584  10.864  21.117  0.00  0.00    +0.000 A 
ATOM     27  C   UNL     1      -0.779  11.128  22.477  0.00  0.00    +0.000 A 
ATOM     28  F   UNL     1      -0.159  10.388  23.409  0.00  0.00    +0.000 F 
ATOM     29  C   UNL     1      -1.603  12.170  22.915  0.00  0.00    +0.000 A 
ATOM     30  C   UNL     1      -2.255  12.984  21.992  0.00  0.00    +0.000 A 
ATOM     31  C   UNL     1      -2.061  12.761  20.634  0.00  0.00    +0.000 A 
ATOM     32  C   UNL     1      -1.236  11.715  20.209  0.00  0.00    +0.000 A 
ATOM     33  F   UNL     1      -1.109  11.536  18.886  0.00  0.00    +0.000 F 
ENDBRANCH  23  26
BRANCH  25  34
ATOM     34  N   UNL     1       2.033   6.431  20.896  0.00  0.00    +0.000 N 
ATOM     35  H   UNL     1       1.907   6.034  21.823  0.00  0.00    +0.000 HD
ATOM     36  H   UNL     1       2.882   6.133  20.416  0.00  0.00    +0.000 HD
ENDBRANCH  25  34
ENDBRANCH   2  21
TORSDOF 6
ENDMDL
MODEL 9
REMARK VINA RESULT:      -7.5      2.240      3.597
REMARK  Name = 
REMARK  7 active torsions:
REMARK  status: ('A' for Active; 'I' for Inactive)
REMARK    1  A    between atoms: C_1  and  N_2
REMARK    2  A    between atoms: C_5  and  N_6
REMARK    3  A    between atoms: C_7  and  C_9
REMARK    4  A    between atoms: C_11  and  C_12
REMARK    5  A    between atoms: C_21  and  N_22
REMARK    6  A    between atoms: C_23  and  C_24
REMARK    7  A    between atoms: C_27  and  O_28
REMARK                            x       y       z     vdW  Elec       q    Type
REMARK                         _______ _______ _______ _____ _____    ______ ____
ROOT
ATOM      1  N   UNL     1       3.356   7.016  18.523  0.00  0.00    +0.000 N 
ATOM      2  C   UNL     1       2.504   8.082  18.278  0.00  0.00    +0.000 C 
ATOM      3  O   UNL     1       2.398   8.642  17.191  0.00  0.00    +0.000 OA
ATOM      4  H   UNL     1       3.168   6.511  19.379  0.00  0.00    +0.000 HD
ENDROOT
BRANCH   1   9
ATOM      5  C   UNL     1       5.872   3.825  15.714  0.00  0.00    +0.000 C 
ATOM      6  N   UNL     1       5.331   5.011  16.338  0.00  0.00    +0.000 N 
ATOM      7  N   UNL     1       5.527   6.202  15.731  0.00  0.00    +0.000 NA
ATOM      8  C   UNL     1       4.795   7.062  16.446  0.00  0.00    +0.000 A 
ATOM      9  C   UNL     1       4.182   6.450  17.554  0.00  0.00    +0.000 A 
ATOM     10  C   UNL     1       4.497   5.092  17.428  0.00  0.00    +0.000 A 
BRANCH  10  11
ATOM     11  C   UNL     1       3.783   3.960  18.106  0.00  0.00    +0.000 C 
ATOM     12  C   UNL     1       2.258   4.276  17.912  0.00  0.00    +0.000 C 
ATOM     13  C   UNL     1       1.326   3.067  18.065  0.00  0.00    +0.000 C 
ATOM     14  C   UNL     1       1.912   2.171  19.122  0.00  0.00    +0.000 C 
ATOM     15  C   UNL     1       3.384   1.806  18.700  0.00  0.00    +0.000 C 
ATOM     16  C   UNL     1       4.348   2.218  19.778  0.00  0.00    +0.000 C 
ATOM     17  C   UNL     1       4.498   3.697  19.461  0.00  0.00    +0.000 C 
ATOM     18  O   UNL     1       3.876   2.628  17.553  0.00  0.00    +0.000 OA
BRANCH  14  19
ATOM     19  O   UNL     1       1.806   2.848  20.385  0.00  0.00    +0.000 OA
ATOM     20  H   UNL     1       2.664   2.809  20.872  0.00  0.00    +0.000 HD
ENDBRANCH  14  19
ENDBRANCH  10  11
ENDBRANCH   1   9
BRANCH   2  21
ATOM     21  C   UNL     1       1.650   8.433  19.441  0.00  0.00    +0.000 A 
ATOM     22  N   UNL     1       0.964   9.664  19.515  0.00  0.00    +0.000 NA
ATOM     23  C   UNL     1       0.246   9.728  20.625  0.00  0.00    +0.000 A 
ATOM     24  S   UNL     1       0.341   8.327  21.619  0.00  0.00    +0.000 S 
ATOM     25  C   UNL     1       1.495   7.632  20.568  0.00  0.00    +0.000 A 
BRANCH  23  26
ATOM     26  C   UNL     1      -0.595  10.861  21.041  0.00  0.00    +0.000 A 
ATOM     27  C   UNL     1      -1.228  11.672  20.093  0.00  0.00    +0.000 A 
ATOM     28  F   UNL     1      -1.137  11.386  18.784  0.00  0.00    +0.000 F 
ATOM     29  C   UNL     1      -1.986  12.788  20.464  0.00  0.00    +0.000 A 
ATOM     30  C   UNL     1      -2.134  13.120  21.808  0.00  0.00    +0.000 A 
ATOM     31  C   UNL     1      -1.536  12.319  22.774  0.00  0.00    +0.000 A 
ATOM     32  C   UNL     1      -0.780  11.207  22.390  0.00  0.00    +0.000 A 
ATOM     33  F   UNL     1      -0.209  10.489  23.368  0.00  0.00    +0.000 F 
ENDBRANCH  23  26
BRANCH  25  34
ATOM     34  N   UNL     1       2.096   6.471  20.906  0.00  0.00    +0.000 N 
ATOM     35  H   UNL     1       3.022   6.480  21.326  0.00  0.00    +0.000 HD
ATOM     36  H   UNL     1       1.859   5.608  20.415  0.00  0.00    +0.000 HD
ENDBRANCH  25  34
ENDBRANCH   2  21
TORSDOF 6
ENDMDL
