MODEL 1
REMARK VINA RESULT:      -7.1      0.000      0.000
REMARK  Name = 
REMARK  3 active torsions:
REMARK  status: ('A' for Active; 'I' for Inactive)
REMARK    1  A    between atoms: C_2  and  C_3
REMARK    2  A    between atoms: C_3  and  C_4
REMARK    3  A    between atoms: N_15  and  C_16
REMARK                            x       y       z     vdW  Elec       q    Type
REMARK                         _______ _______ _______ _____ _____    ______ ____
ROOT
ATOM      1  C   UNL     1       2.654   7.254  19.139  0.00  0.00    +0.000 C 
ENDROOT
BRANCH   1   2
ATOM      2  C   UNL     1       3.359   6.228  18.278  0.00  0.00    +0.000 A 
ATOM      3  C   UNL     1       4.455   6.652  17.504  0.00  0.00    +0.000 A 
ATOM      4  C   UNL     1       5.147   5.759  16.685  0.00  0.00    +0.000 A 
ATOM      5  C   UNL     1       4.745   4.424  16.607  0.00  0.00    +0.000 A 
ATOM      6  C   UNL     1       3.678   3.977  17.381  0.00  0.00    +0.000 A 
ATOM      7  C   UNL     1       2.986   4.870  18.208  0.00  0.00    +0.000 A 
ATOM      8 BR   UNL     1       1.521   4.156  19.186  0.00  0.00    +0.000 Br
ATOM      9  O   UNL     1       5.349   3.502  15.798  0.00  0.00    +0.000 OA
ATOM     10  C   UNL     1       6.173   4.133  14.808  0.00  0.00    +0.000 C 
ATOM     11  C   UNL     1       7.027   5.219  15.442  0.00  0.00    +0.000 C 
ATOM     12  O   UNL     1       6.203   6.265  15.973  0.00  0.00    +0.000 OA
ENDBRANCH   1   2
BRANCH   1  14
ATOM     13  O   UNL     1       2.325   8.643  17.174  0.00  0.00    +0.000 OA
ATOM     14  C   UNL     1       2.045   8.402  18.342  0.00  0.00    +0.000 C 
ATOM     15  N   UNL     1       1.140   9.143  19.072  0.00  0.00    +0.000 N 
ATOM     16  H   UNL     1       1.251   9.047  20.079  0.00  0.00    +0.000 HD
BRANCH  15  17
ATOM     17  C   UNL     1       0.505  10.370  18.598  0.00  0.00    +0.000 C 
ATOM     18  C   UNL     1       1.377  11.563  19.019  0.00  0.00    +0.000 C 
ATOM     19  C   UNL     1       1.172  11.703  20.524  0.00  0.00    +0.000 C 
ATOM     20  S   UNL     1      -0.581  11.466  20.753  0.00  0.00    +0.000 S 
ATOM     21  O   UNL     1      -1.217  12.769  20.727  0.00  0.00    +0.000 OA
ATOM     22  O   UNL     1      -0.784  10.532  21.840  0.00  0.00    +0.000 OA
ATOM     23  C   UNL     1      -0.883  10.649  19.192  0.00  0.00    +0.000 C 
ENDBRANCH  15  17
ENDBRANCH   1  14
TORSDOF 3
ENDMDL
MODEL 2
REMARK VINA RESULT:      -7.1      5.155      6.217
REMARK  Name = 
REMARK  3 active torsions:
REMARK  status: ('A' for Active; 'I' for Inactive)
REMARK    1  A    between atoms: C_2  and  C_3
REMARK    2  A    between atoms: C_3  and  C_4
REMARK    3  A    between atoms: N_15  and  C_16
REMARK                            x       y       z     vdW  Elec       q    Type
REMARK                         _______ _______ _______ _____ _____    ______ ____
ROOT
ATOM      1  C   UNL     1       4.576   5.556  17.631  0.00  0.00    +0.000 C 
ENDROOT
BRANCH   1   2
ATOM      2  C   UNL     1       5.385   5.324  16.374  0.00  0.00    +0.000 A 
ATOM      3  C   UNL     1       4.818   4.535  15.356  0.00  0.00    +0.000 A 
ATOM      4  C   UNL     1       5.512   4.277  14.173  0.00  0.00    +0.000 A 
ATOM      5  C   UNL     1       6.799   4.788  13.990  0.00  0.00    +0.000 A 
ATOM      6  C   UNL     1       7.371   5.590  14.974  0.00  0.00    +0.000 A 
ATOM      7  C   UNL     1       6.673   5.853  16.159  0.00  0.00    +0.000 A 
ATOM      8 BR   UNL     1       7.571   6.924  17.448  0.00  0.00    +0.000 Br
ATOM      9  O   UNL     1       7.554   4.546  12.876  0.00  0.00    +0.000 OA
ATOM     10  C   UNL     1       7.028   3.449  12.115  0.00  0.00    +0.000 C 
ATOM     11  C   UNL     1       5.522   3.582  11.963  0.00  0.00    +0.000 C 
ATOM     12  O   UNL     1       4.875   3.503  13.239  0.00  0.00    +0.000 OA
ENDBRANCH   1   2
BRANCH   1  14
ATOM     13  O   UNL     1       5.414   3.973  19.272  0.00  0.00    +0.000 OA
ATOM     14  C   UNL     1       4.499   4.334  18.541  0.00  0.00    +0.000 C 
ATOM     15  N   UNL     1       3.289   3.678  18.460  0.00  0.00    +0.000 N 
ATOM     16  H   UNL     1       2.773   3.877  17.607  0.00  0.00    +0.000 HD
BRANCH  15  17
ATOM     17  C   UNL     1       2.991   2.412  19.126  0.00  0.00    +0.000 C 
ATOM     18  C   UNL     1       1.478   2.165  19.044  0.00  0.00    +0.000 C 
ATOM     19  C   UNL     1       0.851   3.153  20.022  0.00  0.00    +0.000 C 
ATOM     20  S   UNL     1       1.916   3.090  21.451  0.00  0.00    +0.000 S 
ATOM     21  O   UNL     1       1.373   2.111  22.373  0.00  0.00    +0.000 OA
ATOM     22  O   UNL     1       2.222   4.444  21.861  0.00  0.00    +0.000 OA
ATOM     23  C   UNL     1       3.330   2.376  20.623  0.00  0.00    +0.000 C 
ENDBRANCH  15  17
ENDBRANCH   1  14
TORSDOF 3
ENDMDL
MODEL 3
REMARK VINA RESULT:      -7.0      3.303      6.934
REMARK  Name = 
REMARK  3 active torsions:
REMARK  status: ('A' for Active; 'I' for Inactive)
REMARK    1  A    between atoms: C_2  and  C_3
REMARK    2  A    between atoms: C_3  and  C_4
REMARK    3  A    between atoms: N_15  and  C_16
REMARK                            x       y       z     vdW  Elec       q    Type
REMARK                         _______ _______ _______ _____ _____    ______ ____
ROOT
ATOM      1  C   UNL     1       3.348   3.237  18.248  0.00  0.00    +0.000 C 
ENDROOT
BRANCH   1   2
ATOM      2  C   UNL     1       2.746   4.396  19.012  0.00  0.00    +0.000 A 
ATOM      3  C   UNL     1       2.764   5.668  18.412  0.00  0.00    +0.000 A 
ATOM      4  C   UNL     1       2.231   6.781  19.064  0.00  0.00    +0.000 A 
ATOM      5  C   UNL     1       1.683   6.648  20.342  0.00  0.00    +0.000 A 
ATOM      6  C   UNL     1       1.632   5.394  20.945  0.00  0.00    +0.000 A 
ATOM      7  C   UNL     1       2.163   4.276  20.290  0.00  0.00    +0.000 A 
ATOM      8 BR   UNL     1       2.076   2.625  21.229  0.00  0.00    +0.000 Br
ATOM      9  O   UNL     1       1.177   7.697  21.057  0.00  0.00    +0.000 OA
ATOM     10  C   UNL     1       1.596   8.955  20.509  0.00  0.00    +0.000 C 
ATOM     11  C   UNL     1       1.435   8.956  18.998  0.00  0.00    +0.000 C 
ATOM     12  O   UNL     1       2.292   7.976  18.397  0.00  0.00    +0.000 OA
ENDBRANCH   1   2
BRANCH   1  14
ATOM     13  O   UNL     1       4.299   3.679  16.056  0.00  0.00    +0.000 OA
ATOM     14  C   UNL     1       4.444   3.654  17.273  0.00  0.00    +0.000 C 
ATOM     15  N   UNL     1       5.619   4.006  17.903  0.00  0.00    +0.000 N 
ATOM     16  H   UNL     1       5.705   3.633  18.845  0.00  0.00    +0.000 HD
BRANCH  15  17
ATOM     17  C   UNL     1       6.864   4.323  17.208  0.00  0.00    +0.000 C 
ATOM     18  C   UNL     1       7.919   4.711  18.255  0.00  0.00    +0.000 C 
ATOM     19  C   UNL     1       7.511   6.096  18.749  0.00  0.00    +0.000 C 
ATOM     20  S   UNL     1       7.036   6.967  17.268  0.00  0.00    +0.000 S 
ATOM     21  O   UNL     1       8.197   7.683  16.777  0.00  0.00    +0.000 OA
ATOM     22  O   UNL     1       5.769   7.626  17.504  0.00  0.00    +0.000 OA
ATOM     23  C   UNL     1       6.781   5.520  16.250  0.00  0.00    +0.000 C 
ENDBRANCH  15  17
ENDBRANCH   1  14
TORSDOF 3
ENDMDL
MODEL 4
REMARK VINA RESULT:      -7.0      1.784      1.918
REMARK  Name = 
REMARK  3 active torsions:
REMARK  status: ('A' for Active; 'I' for Inactive)
REMARK    1  A    between atoms: C_2  and  C_3
REMARK    2  A    between atoms: C_3  and  C_4
REMARK    3  A    between atoms: N_15  and  C_16
REMARK                            x       y       z     vdW  Elec       q    Type
REMARK                         _______ _______ _______ _____ _____    ______ ____
ROOT
ATOM      1  C   UNL     1       1.643   7.639  17.983  0.00  0.00    +0.000 C 
ENDROOT
BRANCH   1   2
ATOM      2  C   UNL     1       2.925   6.876  18.232  0.00  0.00    +0.000 A 
ATOM      3  C   UNL     1       4.003   7.084  17.353  0.00  0.00    +0.000 A 
ATOM      4  C   UNL     1       5.212   6.409  17.521  0.00  0.00    +0.000 A 
ATOM      5  C   UNL     1       5.364   5.494  18.565  0.00  0.00    +0.000 A 
ATOM      6  C   UNL     1       4.320   5.289  19.462  0.00  0.00    +0.000 A 
ATOM      7  C   UNL     1       3.107   5.969  19.297  0.00  0.00    +0.000 A 
ATOM      8 BR   UNL     1       1.738   5.577  20.556  0.00  0.00    +0.000 Br
ATOM      9  O   UNL     1       6.504   4.768  18.771  0.00  0.00    +0.000 OA
ATOM     10  C   UNL     1       7.354   4.790  17.615  0.00  0.00    +0.000 C 
ATOM     11  C   UNL     1       7.476   6.204  17.072  0.00  0.00    +0.000 C 
ATOM     12  O   UNL     1       6.205   6.683  16.616  0.00  0.00    +0.000 OA
ENDBRANCH   1   2
BRANCH   1  14
ATOM     13  O   UNL     1       2.477   9.835  17.366  0.00  0.00    +0.000 OA
ATOM     14  C   UNL     1       1.796   9.150  18.120  0.00  0.00    +0.000 C 
ATOM     15  N   UNL     1       1.084   9.669  19.180  0.00  0.00    +0.000 N 
ATOM     16  H   UNL     1       0.848   8.981  19.890  0.00  0.00    +0.000 HD
BRANCH  15  17
ATOM     17  C   UNL     1       1.151  11.062  19.615  0.00  0.00    +0.000 C 
ATOM     18  C   UNL     1       0.670  11.140  21.071  0.00  0.00    +0.000 C 
ATOM     19  C   UNL     1      -0.841  10.935  21.011  0.00  0.00    +0.000 C 
ATOM     20  S   UNL     1      -1.360  11.910  19.611  0.00  0.00    +0.000 S 
ATOM     21  O   UNL     1      -1.739  13.223  20.094  0.00  0.00    +0.000 OA
ATOM     22  O   UNL     1      -2.243  11.108  18.790  0.00  0.00    +0.000 OA
ATOM     23  C   UNL     1       0.246  12.025  18.834  0.00  0.00    +0.000 C 
ENDBRANCH  15  17
ENDBRANCH   1  14
TORSDOF 3
ENDMDL
MODEL 5
REMARK VINA RESULT:      -7.0      3.528      8.237
REMARK  Name = 
REMARK  3 active torsions:
REMARK  status: ('A' for Active; 'I' for Inactive)
REMARK    1  A    between atoms: C_2  and  C_3
REMARK    2  A    between atoms: C_3  and  C_4
REMARK    3  A    between atoms: N_15  and  C_16
REMARK                            x       y       z     vdW  Elec       q    Type
REMARK                         _______ _______ _______ _____ _____    ______ ____
ROOT
ATOM      1  C   UNL     1       1.608   9.493  18.330  0.00  0.00    +0.000 C 
ENDROOT
BRANCH   1   2
ATOM      2  C   UNL     1       0.272  10.182  18.505  0.00  0.00    +0.000 A 
ATOM      3  C   UNL     1      -0.837   9.666  17.810  0.00  0.00    +0.000 A 
ATOM      4  C   UNL     1      -2.096  10.256  17.922  0.00  0.00    +0.000 A 
ATOM      5  C   UNL     1      -2.270  11.390  18.718  0.00  0.00    +0.000 A 
ATOM      6  C   UNL     1      -1.192  11.905  19.433  0.00  0.00    +0.000 A 
ATOM      7  C   UNL     1       0.071  11.311  19.325  0.00  0.00    +0.000 A 
ATOM      8 BR   UNL     1       1.477  12.125  20.313  0.00  0.00    +0.000 Br
ATOM      9  O   UNL     1      -3.463  12.046  18.846  0.00  0.00    +0.000 OA
ATOM     10  C   UNL     1      -4.385  11.659  17.817  0.00  0.00    +0.000 C 
ATOM     11  C   UNL     1      -4.395  10.148  17.653  0.00  0.00    +0.000 C 
ATOM     12  O   UNL     1      -3.115   9.679  17.211  0.00  0.00    +0.000 OA
ENDBRANCH   1   2
BRANCH   1  14
ATOM     13  O   UNL     1       1.487   8.406  20.499  0.00  0.00    +0.000 OA
ATOM     14  C   UNL     1       1.846   8.364  19.328  0.00  0.00    +0.000 C 
ATOM     15  N   UNL     1       2.506   7.287  18.776  0.00  0.00    +0.000 N 
ATOM     16  H   UNL     1       3.019   7.514  17.928  0.00  0.00    +0.000 HD
BRANCH  15  17
ATOM     17  C   UNL     1       2.971   6.128  19.533  0.00  0.00    +0.000 C 
ATOM     18  C   UNL     1       4.187   5.531  18.809  0.00  0.00    +0.000 C 
ATOM     19  C   UNL     1       3.625   4.849  17.565  0.00  0.00    +0.000 C 
ATOM     20  S   UNL     1       2.156   4.022  18.146  0.00  0.00    +0.000 S 
ATOM     21  O   UNL     1       2.517   2.665  18.506  0.00  0.00    +0.000 OA
ATOM     22  O   UNL     1       1.070   4.313  17.234  0.00  0.00    +0.000 OA
ATOM     23  C   UNL     1       1.958   4.980  19.642  0.00  0.00    +0.000 C 
ENDBRANCH  15  17
ENDBRANCH   1  14
TORSDOF 3
ENDMDL
MODEL 6
REMARK VINA RESULT:      -6.9      3.555      7.571
REMARK  Name = 
REMARK  3 active torsions:
REMARK  status: ('A' for Active; 'I' for Inactive)
REMARK    1  A    between atoms: C_2  and  C_3
REMARK    2  A    between atoms: C_3  and  C_4
REMARK    3  A    between atoms: N_15  and  C_16
REMARK                            x       y       z     vdW  Elec       q    Type
REMARK                         _______ _______ _______ _____ _____    ______ ____
ROOT
ATOM      1  C   UNL     1       3.918   3.805  19.185  0.00  0.00    +0.000 C 
ENDROOT
BRANCH   1   2
ATOM      2  C   UNL     1       3.023   4.934  19.647  0.00  0.00    +0.000 A 
ATOM      3  C   UNL     1       3.098   6.162  18.965  0.00  0.00    +0.000 A 
ATOM      4  C   UNL     1       2.304   7.246  19.343  0.00  0.00    +0.000 A 
ATOM      5  C   UNL     1       1.429   7.130  20.425  0.00  0.00    +0.000 A 
ATOM      6  C   UNL     1       1.321   5.917  21.100  0.00  0.00    +0.000 A 
ATOM      7  C   UNL     1       2.114   4.827  20.719  0.00  0.00    +0.000 A 
ATOM      8 BR   UNL     1       1.912   3.237  21.740  0.00  0.00    +0.000 Br
ATOM      9  O   UNL     1       0.649   8.158  20.877  0.00  0.00    +0.000 OA
ATOM     10  C   UNL     1       1.093   9.419  20.357  0.00  0.00    +0.000 C 
ATOM     11  C   UNL     1       1.369   9.311  18.866  0.00  0.00    +0.000 C 
ATOM     12  O   UNL     1       2.444   8.398  18.615  0.00  0.00    +0.000 OA
ENDBRANCH   1   2
BRANCH   1  14
ATOM     13  O   UNL     1       6.130   4.633  19.755  0.00  0.00    +0.000 OA
ATOM     14  C   UNL     1       5.350   4.243  18.894  0.00  0.00    +0.000 C 
ATOM     15  N   UNL     1       5.680   4.152  17.558  0.00  0.00    +0.000 N 
ATOM     16  H   UNL     1       4.874   4.138  16.939  0.00  0.00    +0.000 HD
BRANCH  15  17
ATOM     17  C   UNL     1       6.938   4.623  16.986  0.00  0.00    +0.000 C 
ATOM     18  C   UNL     1       6.805   6.123  16.686  0.00  0.00    +0.000 C 
ATOM     19  C   UNL     1       5.890   6.214  15.469  0.00  0.00    +0.000 C 
ATOM     20  S   UNL     1       6.457   4.908  14.395  0.00  0.00    +0.000 S 
ATOM     21  O   UNL     1       7.430   5.470  13.480  0.00  0.00    +0.000 OA
ATOM     22  O   UNL     1       5.309   4.157  13.932  0.00  0.00    +0.000 OA
ATOM     23  C   UNL     1       7.322   3.972  15.649  0.00  0.00    +0.000 C 
ENDBRANCH  15  17
ENDBRANCH   1  14
TORSDOF 3
ENDMDL
MODEL 7
REMARK VINA RESULT:      -6.9      3.026      3.831
REMARK  Name = 
REMARK  3 active torsions:
REMARK  status: ('A' for Active; 'I' for Inactive)
REMARK    1  A    between atoms: C_2  and  C_3
REMARK    2  A    between atoms: C_3  and  C_4
REMARK    3  A    between atoms: N_15  and  C_16
REMARK                            x       y       z     vdW  Elec       q    Type
REMARK                         _______ _______ _______ _____ _____    ______ ____
ROOT
ATOM      1  C   UNL     1       1.797   7.819  21.102  0.00  0.00    +0.000 C 
ENDROOT
BRANCH   1   2
ATOM      2  C   UNL     1       1.871   6.697  20.091  0.00  0.00    +0.000 A 
ATOM      3  C   UNL     1       1.622   5.385  20.535  0.00  0.00    +0.000 A 
ATOM      4  C   UNL     1       1.679   4.303  19.657  0.00  0.00    +0.000 A 
ATOM      5  C   UNL     1       2.006   4.507  18.314  0.00  0.00    +0.000 A 
ATOM      6  C   UNL     1       2.234   5.799  17.847  0.00  0.00    +0.000 A 
ATOM      7  C   UNL     1       2.172   6.886  18.727  0.00  0.00    +0.000 A 
ATOM      8 BR   UNL     1       2.543   8.597  17.985  0.00  0.00    +0.000 Br
ATOM      9  O   UNL     1       2.119   3.494  17.404  0.00  0.00    +0.000 OA
ATOM     10  C   UNL     1       2.217   2.217  18.051  0.00  0.00    +0.000 C 
ATOM     11  C   UNL     1       1.176   2.098  19.152  0.00  0.00    +0.000 C 
ATOM     12  O   UNL     1       1.417   3.065  20.182  0.00  0.00    +0.000 OA
ENDBRANCH   1   2
BRANCH   1  14
ATOM     13  O   UNL     1      -0.555   8.033  21.672  0.00  0.00    +0.000 OA
ATOM     14  C   UNL     1       0.440   8.515  21.143  0.00  0.00    +0.000 C 
ATOM     15  N   UNL     1       0.448   9.747  20.525  0.00  0.00    +0.000 N 
ATOM     16  H   UNL     1       1.213   9.868  19.866  0.00  0.00    +0.000 HD
BRANCH  15  17
ATOM     17  C   UNL     1      -0.740  10.569  20.310  0.00  0.00    +0.000 C 
ATOM     18  C   UNL     1      -0.605  11.271  18.950  0.00  0.00    +0.000 C 
ATOM     19  C   UNL     1       0.453  12.351  19.154  0.00  0.00    +0.000 C 
ATOM     20  S   UNL     1       0.054  13.061  20.741  0.00  0.00    +0.000 S 
ATOM     21  O   UNL     1      -0.810  14.203  20.517  0.00  0.00    +0.000 OA
ATOM     22  O   UNL     1       1.268  13.156  21.524  0.00  0.00    +0.000 OA
ATOM     23  C   UNL     1      -0.938  11.696  21.332  0.00  0.00    +0.000 C 
ENDBRANCH  15  17
ENDBRANCH   1  14
TORSDOF 3
ENDMDL
MODEL 8
REMARK VINA RESULT:      -6.9      2.360      3.332
REMARK  Name = 
REMARK  3 active torsions:
REMARK  status: ('A' for Active; 'I' for Inactive)
REMARK    1  A    between atoms: C_2  and  C_3
REMARK    2  A    between atoms: C_3  and  C_4
REMARK    3  A    between atoms: N_15  and  C_16
REMARK                            x       y       z     vdW  Elec       q    Type
REMARK                         _______ _______ _______ _____ _____    ______ ____
ROOT
ATOM      1  C   UNL     1       3.206   8.016  18.076  0.00  0.00    +0.000 C 
ENDROOT
BRANCH   1   2
ATOM      2  C   UNL     1       3.184   6.507  17.969  0.00  0.00    +0.000 A 
ATOM      3  C   UNL     1       2.161   5.810  18.638  0.00  0.00    +0.000 A 
ATOM      4  C   UNL     1       2.085   4.418  18.586  0.00  0.00    +0.000 A 
ATOM      5  C   UNL     1       3.043   3.689  17.878  0.00  0.00    +0.000 A 
ATOM      6  C   UNL     1       4.050   4.359  17.189  0.00  0.00    +0.000 A 
ATOM      7  C   UNL     1       4.125   5.757  17.236  0.00  0.00    +0.000 A 
ATOM      8 BR   UNL     1       5.568   6.559  16.294  0.00  0.00    +0.000 Br
ATOM      9  O   UNL     1       3.055   2.324  17.813  0.00  0.00    +0.000 OA
ATOM     10  C   UNL     1       2.216   1.745  18.822  0.00  0.00    +0.000 C 
ATOM     11  C   UNL     1       0.877   2.462  18.875  0.00  0.00    +0.000 C 
ATOM     12  O   UNL     1       1.050   3.829  19.266  0.00  0.00    +0.000 OA
ENDBRANCH   1   2
BRANCH   1  14
ATOM     13  O   UNL     1       1.141   8.892  17.144  0.00  0.00    +0.000 OA
ATOM     14  C   UNL     1       1.818   8.644  18.135  0.00  0.00    +0.000 C 
ATOM     15  N   UNL     1       1.397   8.901  19.422  0.00  0.00    +0.000 N 
ATOM     16  H   UNL     1       2.157   8.956  20.096  0.00  0.00    +0.000 HD
BRANCH  15  17
ATOM     17  C   UNL     1       0.166   9.610  19.762  0.00  0.00    +0.000 C 
ATOM     18  C   UNL     1       0.469  11.115  19.807  0.00  0.00    +0.000 C 
ATOM     19  C   UNL     1       1.278  11.328  21.083  0.00  0.00    +0.000 C 
ATOM     20  S   UNL     1       0.453  10.319  22.300  0.00  0.00    +0.000 S 
ATOM     21  O   UNL     1      -0.514  11.149  22.990  0.00  0.00    +0.000 OA
ATOM     22  O   UNL     1       1.447   9.543  23.011  0.00  0.00    +0.000 OA
ATOM     23  C   UNL     1      -0.415   9.269  21.141  0.00  0.00    +0.000 C 
ENDBRANCH  15  17
ENDBRANCH   1  14
TORSDOF 3
ENDMDL
MODEL 9
REMARK VINA RESULT:      -6.9      2.446      3.473
REMARK  Name = 
REMARK  3 active torsions:
REMARK  status: ('A' for Active; 'I' for Inactive)
REMARK    1  A    between atoms: C_2  and  C_3
REMARK    2  A    between atoms: C_3  and  C_4
REMARK    3  A    between atoms: N_15  and  C_16
REMARK                            x       y       z     vdW  Elec       q    Type
REMARK                         _______ _______ _______ _____ _____    ______ ____
ROOT
ATOM      1  C   UNL     1       3.007   8.378  17.816  0.00  0.00    +0.000 C 
ENDROOT
BRANCH   1   2
ATOM      2  C   UNL     1       3.100   6.933  18.253  0.00  0.00    +0.000 A 
ATOM      3  C   UNL     1       2.301   6.513  19.332  0.00  0.00    +0.000 A 
ATOM      4  C   UNL     1       2.343   5.196  19.790  0.00  0.00    +0.000 A 
ATOM      5  C   UNL     1       3.199   4.271  19.188  0.00  0.00    +0.000 A 
ATOM      6  C   UNL     1       3.981   4.658  18.104  0.00  0.00    +0.000 A 
ATOM      7  C   UNL     1       3.938   5.979  17.641  0.00  0.00    +0.000 A 
ATOM      8 BR   UNL     1       5.081   6.402  16.182  0.00  0.00    +0.000 Br
ATOM      9  O   UNL     1       3.322   2.975  19.606  0.00  0.00    +0.000 OA
ATOM     10  C   UNL     1       2.760   2.791  20.913  0.00  0.00    +0.000 C 
ATOM     11  C   UNL     1       1.400   3.463  21.006  0.00  0.00    +0.000 C 
ATOM     12  O   UNL     1       1.525   4.881  20.844  0.00  0.00    +0.000 OA
ENDBRANCH   1   2
BRANCH   1  14
ATOM     13  O   UNL     1       0.638   8.491  17.287  0.00  0.00    +0.000 OA
ATOM     14  C   UNL     1       1.595   8.950  17.899  0.00  0.00    +0.000 C 
ATOM     15  N   UNL     1       1.505  10.039  18.740  0.00  0.00    +0.000 N 
ATOM     16  H   UNL     1       2.396  10.499  18.910  0.00  0.00    +0.000 HD
BRANCH  15  17
ATOM     17  C   UNL     1       0.304  10.854  18.908  0.00  0.00    +0.000 C 
ATOM     18  C   UNL     1       0.735  12.296  19.216  0.00  0.00    +0.000 C 
ATOM     19  C   UNL     1       1.258  12.267  20.648  0.00  0.00    +0.000 C 
ATOM     20  S   UNL     1       0.089  11.241  21.521  0.00  0.00    +0.000 S 
ATOM     21  O   UNL     1      -0.921  12.105  22.099  0.00  0.00    +0.000 OA
ATOM     22  O   UNL     1       0.821  10.275  22.313  0.00  0.00    +0.000 OA
ATOM     23  C   UNL     1      -0.598  10.439  20.078  0.00  0.00    +0.000 C 
ENDBRANCH  15  17
ENDBRANCH   1  14
TORSDOF 3
ENDMDL
