MODEL 1
REMARK VINA RESULT:      -8.2      0.000      0.000
REMARK  Name = 
REMARK  3 active torsions:
REMARK  status: ('A' for Active; 'I' for Inactive)
REMARK    1  A    between atoms: C_2  and  O_3
REMARK    2  A    between atoms: C_2  and  C_12
REMARK    3  A    between atoms: O_3  and  C_4
REMARK                            x       y       z     vdW  Elec       q    Type
REMARK                         _______ _______ _______ _____ _____    ______ ____
ROOT
ATOM      1  C   UNL     1       1.534   9.296  18.454  0.00  0.00    +0.000 C 
ATOM      2  C   UNL     1       0.244   9.306  17.571  0.00  0.00    +0.000 C 
ATOM      3  C   UNL     1      -0.816  10.239  18.150  0.00  0.00    +0.000 A 
ATOM      4  C   UNL     1      -0.657  10.806  19.412  0.00  0.00    +0.000 A 
ATOM      5  S   UNL     1      -1.972  11.787  19.816  0.00  0.00    +0.000 S 
ATOM      6  C   UNL     1      -2.806  11.466  18.397  0.00  0.00    +0.000 A 
ATOM      7  C   UNL     1      -4.078  11.924  18.042  0.00  0.00    +0.000 A 
ATOM      8  C   UNL     1      -4.607  11.513  16.818  0.00  0.00    +0.000 A 
ATOM      9  C   UNL     1      -3.867  10.670  15.967  0.00  0.00    +0.000 A 
ATOM     10  C   UNL     1      -2.585  10.216  16.338  0.00  0.00    +0.000 A 
ATOM     11  C   UNL     1      -2.057  10.618  17.581  0.00  0.00    +0.000 A 
ATOM     12  C   UNL     1       0.480  10.468  20.324  0.00  0.00    +0.000 C 
ATOM     13  N   UNL     1       1.161   9.234  19.886  0.00  0.00    +0.000 NA
ATOM     14  H   UNL     1       0.507   8.425  20.029  0.00  0.00    +0.000 HD
ENDROOT
BRANCH   1  16
ATOM     15  O   UNL     1       3.207   8.170  17.149  0.00  0.00    +0.000 OA
ATOM     16  C   UNL     1       2.534   8.141  18.170  0.00  0.00    +0.000 C 
BRANCH  16  17
ATOM     17  O   UNL     1       2.609   7.059  19.010  0.00  0.00    +0.000 OA
BRANCH  17  18
ATOM     18  C   UNL     1       2.991   5.756  18.660  0.00  0.00    +0.000 C 
ATOM     19  C   UNL     1       4.253   5.226  19.432  0.00  0.00    +0.000 C 
ATOM     20  C   UNL     1       4.598   3.684  19.413  0.00  0.00    +0.000 C 
ATOM     21  C   UNL     1       3.632   2.516  19.862  0.00  0.00    +0.000 C 
ATOM     22  C   UNL     1       2.791   2.660  21.154  0.00  0.00    +0.000 C 
ATOM     23  C   UNL     1       1.428   3.393  21.027  0.00  0.00    +0.000 C 
ATOM     24  C   UNL     1       1.531   4.826  20.528  0.00  0.00    +0.000 C 
ATOM     25  C   UNL     1       1.804   4.879  19.000  0.00  0.00    +0.000 C 
ENDBRANCH  17  18
ENDBRANCH  16  17
ENDBRANCH   1  16
TORSDOF 3
ENDMDL
MODEL 2
REMARK VINA RESULT:      -8.1      0.825      1.336
REMARK  Name = 
REMARK  3 active torsions:
REMARK  status: ('A' for Active; 'I' for Inactive)
REMARK    1  A    between atoms: C_2  and  O_3
REMARK    2  A    between atoms: C_2  and  C_12
REMARK    3  A    between atoms: O_3  and  C_4
REMARK                            x       y       z     vdW  Elec       q    Type
REMARK                         _______ _______ _______ _____ _____    ______ ____
ROOT
ATOM      1  C   UNL     1       1.490   9.291  18.407  0.00  0.00    +0.000 C 
ATOM      2  C   UNL     1       0.183   9.285  17.549  0.00  0.00    +0.000 C 
ATOM      3  C   UNL     1      -0.857  10.247  18.119  0.00  0.00    +0.000 A 
ATOM      4  C   UNL     1      -0.668  10.853  19.358  0.00  0.00    +0.000 A 
ATOM      5  S   UNL     1      -1.965  11.860  19.755  0.00  0.00    +0.000 S 
ATOM      6  C   UNL     1      -2.830  11.501  18.364  0.00  0.00    +0.000 A 
ATOM      7  C   UNL     1      -4.104  11.960  18.018  0.00  0.00    +0.000 A 
ATOM      8  C   UNL     1      -4.661  11.515  16.819  0.00  0.00    +0.000 A 
ATOM      9  C   UNL     1      -3.946  10.639  15.982  0.00  0.00    +0.000 A 
ATOM     10  C   UNL     1      -2.662  10.184  16.343  0.00  0.00    +0.000 A 
ATOM     11  C   UNL     1      -2.105  10.620  17.561  0.00  0.00    +0.000 A 
ATOM     12  C   UNL     1       0.484  10.533  20.259  0.00  0.00    +0.000 C 
ATOM     13  N   UNL     1       1.144   9.278  19.848  0.00  0.00    +0.000 NA
ATOM     14  H   UNL     1       0.485   8.481  20.030  0.00  0.00    +0.000 HD
ENDROOT
BRANCH   1  16
ATOM     15  O   UNL     1       3.569   8.353  17.655  0.00  0.00    +0.000 OA
ATOM     16  C   UNL     1       2.472   8.116  18.142  0.00  0.00    +0.000 C 
BRANCH  16  17
ATOM     17  O   UNL     1       2.091   6.819  18.376  0.00  0.00    +0.000 OA
BRANCH  17  18
ATOM     18  C   UNL     1       2.712   5.912  19.247  0.00  0.00    +0.000 C 
ATOM     19  C   UNL     1       1.813   5.466  20.457  0.00  0.00    +0.000 C 
ATOM     20  C   UNL     1       2.223   4.207  21.321  0.00  0.00    +0.000 C 
ATOM     21  C   UNL     1       2.480   2.750  20.764  0.00  0.00    +0.000 C 
ATOM     22  C   UNL     1       1.521   2.142  19.712  0.00  0.00    +0.000 C 
ATOM     23  C   UNL     1       1.804   2.483  18.223  0.00  0.00    +0.000 C 
ATOM     24  C   UNL     1       1.762   3.970  17.902  0.00  0.00    +0.000 C 
ATOM     25  C   UNL     1       3.039   4.697  18.405  0.00  0.00    +0.000 C 
ENDBRANCH  17  18
ENDBRANCH  16  17
ENDBRANCH   1  16
TORSDOF 3
ENDMDL
MODEL 3
REMARK VINA RESULT:      -7.9      3.149      7.829
REMARK  Name = 
REMARK  3 active torsions:
REMARK  status: ('A' for Active; 'I' for Inactive)
REMARK    1  A    between atoms: C_2  and  O_3
REMARK    2  A    between atoms: C_2  and  C_12
REMARK    3  A    between atoms: O_3  and  C_4
REMARK                            x       y       z     vdW  Elec       q    Type
REMARK                         _______ _______ _______ _____ _____    ______ ____
ROOT
ATOM      1  C   UNL     1       2.768   8.365  18.376  0.00  0.00    +0.000 C 
ATOM      2  C   UNL     1       2.190   7.249  19.306  0.00  0.00    +0.000 C 
ATOM      3  C   UNL     1       3.021   5.970  19.219  0.00  0.00    +0.000 A 
ATOM      4  C   UNL     1       4.019   5.831  18.258  0.00  0.00    +0.000 A 
ATOM      5  S   UNL     1       4.777   4.325  18.372  0.00  0.00    +0.000 S 
ATOM      6  C   UNL     1       3.803   3.792  19.630  0.00  0.00    +0.000 A 
ATOM      7  C   UNL     1       3.825   2.536  20.242  0.00  0.00    +0.000 A 
ATOM      8  C   UNL     1       2.903   2.284  21.260  0.00  0.00    +0.000 A 
ATOM      9  C   UNL     1       1.991   3.279  21.660  0.00  0.00    +0.000 A 
ATOM     10  C   UNL     1       1.982   4.542  21.033  0.00  0.00    +0.000 A 
ATOM     11  C   UNL     1       2.900   4.792  19.995  0.00  0.00    +0.000 A 
ATOM     12  C   UNL     1       4.275   6.847  17.190  0.00  0.00    +0.000 C 
ATOM     13  N   UNL     1       3.141   7.783  17.066  0.00  0.00    +0.000 NA
ATOM     14  H   UNL     1       2.316   7.256  16.684  0.00  0.00    +0.000 HD
ENDROOT
BRANCH   1  16
ATOM     15  O   UNL     1       2.122  10.381  17.243  0.00  0.00    +0.000 OA
ATOM     16  C   UNL     1       1.827   9.573  18.112  0.00  0.00    +0.000 C 
BRANCH  16  17
ATOM     17  O   UNL     1       0.717   9.778  18.892  0.00  0.00    +0.000 OA
BRANCH  17  18
ATOM     18  C   UNL     1       0.482  10.875  19.735  0.00  0.00    +0.000 C 
ATOM     19  C   UNL     1      -1.038  11.224  19.926  0.00  0.00    +0.000 C 
ATOM     20  C   UNL     1      -1.484  12.190  21.095  0.00  0.00    +0.000 C 
ATOM     21  C   UNL     1      -1.171  11.985  22.631  0.00  0.00    +0.000 C 
ATOM     22  C   UNL     1      -1.321  10.583  23.272  0.00  0.00    +0.000 C 
ATOM     23  C   UNL     1      -0.103   9.626  23.160  0.00  0.00    +0.000 C 
ATOM     24  C   UNL     1       0.311   9.304  21.731  0.00  0.00    +0.000 C 
ATOM     25  C   UNL     1       1.070  10.490  21.077  0.00  0.00    +0.000 C 
ENDBRANCH  17  18
ENDBRANCH  16  17
ENDBRANCH   1  16
TORSDOF 3
ENDMDL
MODEL 4
REMARK VINA RESULT:      -7.9      3.021      4.697
REMARK  Name = 
REMARK  3 active torsions:
REMARK  status: ('A' for Active; 'I' for Inactive)
REMARK    1  A    between atoms: C_2  and  O_3
REMARK    2  A    between atoms: C_2  and  C_12
REMARK    3  A    between atoms: O_3  and  C_4
REMARK                            x       y       z     vdW  Elec       q    Type
REMARK                         _______ _______ _______ _____ _____    ______ ____
ROOT
ATOM      1  C   UNL     1       2.028   6.541  19.696  0.00  0.00    +0.000 C 
ATOM      2  C   UNL     1       1.420   7.327  20.902  0.00  0.00    +0.000 C 
ATOM      3  C   UNL     1       0.925   8.706  20.472  0.00  0.00    +0.000 A 
ATOM      4  C   UNL     1       1.208   9.203  19.202  0.00  0.00    +0.000 A 
ATOM      5  S   UNL     1       0.556  10.746  18.986  0.00  0.00    +0.000 S 
ATOM      6  C   UNL     1      -0.064  10.838  20.542  0.00  0.00    +0.000 A 
ATOM      7  C   UNL     1      -0.729  11.919  21.125  0.00  0.00    +0.000 A 
ATOM      8  C   UNL     1      -1.141  11.800  22.453  0.00  0.00    +0.000 A 
ATOM      9  C   UNL     1      -0.900  10.614  23.171  0.00  0.00    +0.000 A 
ATOM     10  C   UNL     1      -0.228   9.531  22.570  0.00  0.00    +0.000 A 
ATOM     11  C   UNL     1       0.202   9.656  21.235  0.00  0.00    +0.000 A 
ATOM     12  C   UNL     1       2.090   8.493  18.223  0.00  0.00    +0.000 C 
ATOM     13  N   UNL     1       2.884   7.443  18.890  0.00  0.00    +0.000 NA
ATOM     14  H   UNL     1       3.579   7.907  19.527  0.00  0.00    +0.000 HD
ENDROOT
BRANCH   1  16
ATOM     15  O   UNL     1       2.346   4.382  20.698  0.00  0.00    +0.000 OA
ATOM     16  C   UNL     1       2.871   5.289  20.066  0.00  0.00    +0.000 C 
BRANCH  16  17
ATOM     17  O   UNL     1       4.206   5.229  19.760  0.00  0.00    +0.000 OA
BRANCH  17  18
ATOM     18  C   UNL     1       4.815   4.344  18.858  0.00  0.00    +0.000 C 
ATOM     19  C   UNL     1       4.131   4.295  17.444  0.00  0.00    +0.000 C 
ATOM     20  C   UNL     1       4.885   3.628  16.226  0.00  0.00    +0.000 C 
ATOM     21  C   UNL     1       6.320   4.029  15.697  0.00  0.00    +0.000 C 
ATOM     22  C   UNL     1       6.705   5.523  15.558  0.00  0.00    +0.000 C 
ATOM     23  C   UNL     1       7.258   6.226  16.828  0.00  0.00    +0.000 C 
ATOM     24  C   UNL     1       6.299   6.231  18.009  0.00  0.00    +0.000 C 
ATOM     25  C   UNL     1       6.237   4.841  18.698  0.00  0.00    +0.000 C 
ENDBRANCH  17  18
ENDBRANCH  16  17
ENDBRANCH   1  16
TORSDOF 3
ENDMDL
MODEL 5
REMARK VINA RESULT:      -7.9      2.722      8.282
REMARK  Name = 
REMARK  3 active torsions:
REMARK  status: ('A' for Active; 'I' for Inactive)
REMARK    1  A    between atoms: C_2  and  O_3
REMARK    2  A    between atoms: C_2  and  C_12
REMARK    3  A    between atoms: O_3  and  C_4
REMARK                            x       y       z     vdW  Elec       q    Type
REMARK                         _______ _______ _______ _____ _____    ______ ____
ROOT
ATOM      1  C   UNL     1       1.318   8.964  18.736  0.00  0.00    +0.000 C 
ATOM      2  C   UNL     1       2.506   8.524  17.820  0.00  0.00    +0.000 C 
ATOM      3  C   UNL     1       3.044   7.156  18.231  0.00  0.00    +0.000 A 
ATOM      4  C   UNL     1       2.618   6.544  19.407  0.00  0.00    +0.000 A 
ATOM      5  S   UNL     1       3.372   5.048  19.630  0.00  0.00    +0.000 S 
ATOM      6  C   UNL     1       4.307   5.173  18.243  0.00  0.00    +0.000 A 
ATOM      7  C   UNL     1       5.270   4.268  17.788  0.00  0.00    +0.000 A 
ATOM      8  C   UNL     1       5.962   4.578  16.616  0.00  0.00    +0.000 A 
ATOM      9  C   UNL     1       5.682   5.765  15.914  0.00  0.00    +0.000 A 
ATOM     10  C   UNL     1       4.708   6.668  16.385  0.00  0.00    +0.000 A 
ATOM     11  C   UNL     1       4.020   6.365  17.576  0.00  0.00    +0.000 A 
ATOM     12  C   UNL     1       1.709   7.207  20.392  0.00  0.00    +0.000 C 
ATOM     13  N   UNL     1       1.637   8.661  20.151  0.00  0.00    +0.000 NA
ATOM     14  H   UNL     1       2.570   9.083  20.384  0.00  0.00    +0.000 HD
ENDROOT
BRANCH   1  16
ATOM     15  O   UNL     1       1.656  11.307  19.141  0.00  0.00    +0.000 OA
ATOM     16  C   UNL     1       0.920  10.464  18.647  0.00  0.00    +0.000 C 
BRANCH  16  17
ATOM     17  O   UNL     1      -0.276  10.838  18.090  0.00  0.00    +0.000 OA
BRANCH  17  18
ATOM     18  C   UNL     1      -1.546  10.687  18.664  0.00  0.00    +0.000 C 
ATOM     19  C   UNL     1      -2.259  12.044  19.013  0.00  0.00    +0.000 C 
ATOM     20  C   UNL     1      -3.807  12.061  19.335  0.00  0.00    +0.000 C 
ATOM     21  C   UNL     1      -4.952  11.514  18.393  0.00  0.00    +0.000 C 
ATOM     22  C   UNL     1      -4.918  11.818  16.875  0.00  0.00    +0.000 C 
ATOM     23  C   UNL     1      -4.081  10.859  15.985  0.00  0.00    +0.000 C 
ATOM     24  C   UNL     1      -2.606  10.793  16.351  0.00  0.00    +0.000 C 
ATOM     25  C   UNL     1      -2.375   9.948  17.633  0.00  0.00    +0.000 C 
ENDBRANCH  17  18
ENDBRANCH  16  17
ENDBRANCH   1  16
TORSDOF 3
ENDMDL
MODEL 6
REMARK VINA RESULT:      -7.8      3.318      7.652
REMARK  Name = 
REMARK  3 active torsions:
REMARK  status: ('A' for Active; 'I' for Inactive)
REMARK    1  A    between atoms: C_2  and  O_3
REMARK    2  A    between atoms: C_2  and  C_12
REMARK    3  A    between atoms: O_3  and  C_4
REMARK                            x       y       z     vdW  Elec       q    Type
REMARK                         _______ _______ _______ _____ _____    ______ ____
ROOT
ATOM      1  C   UNL     1       2.763   8.155  18.140  0.00  0.00    +0.000 C 
ATOM      2  C   UNL     1       1.924   6.869  18.435  0.00  0.00    +0.000 C 
ATOM      3  C   UNL     1       2.730   5.605  18.145  0.00  0.00    +0.000 A 
ATOM      4  C   UNL     1       3.965   5.675  17.506  0.00  0.00    +0.000 A 
ATOM      5  S   UNL     1       4.639   4.139  17.299  0.00  0.00    +0.000 S 
ATOM      6  C   UNL     1       3.333   3.339  17.981  0.00  0.00    +0.000 A 
ATOM      7  C   UNL     1       3.159   1.958  18.106  0.00  0.00    +0.000 A 
ATOM      8  C   UNL     1       1.976   1.493  18.682  0.00  0.00    +0.000 A 
ATOM      9  C   UNL     1       0.998   2.398  19.134  0.00  0.00    +0.000 A 
ATOM     10  C   UNL     1       1.187   3.789  19.001  0.00  0.00    +0.000 A 
ATOM     11  C   UNL     1       2.373   4.259  18.405  0.00  0.00    +0.000 A 
ATOM     12  C   UNL     1       4.536   6.948  16.965  0.00  0.00    +0.000 C 
ATOM     13  N   UNL     1       3.498   7.993  16.864  0.00  0.00    +0.000 NA
ATOM     14  H   UNL     1       2.817   7.713  16.115  0.00  0.00    +0.000 HD
ENDROOT
BRANCH   1  16
ATOM     15  O   UNL     1       2.374  10.395  17.366  0.00  0.00    +0.000 OA
ATOM     16  C   UNL     1       1.954   9.480  18.060  0.00  0.00    +0.000 C 
BRANCH  16  17
ATOM     17  O   UNL     1       0.823   9.656  18.816  0.00  0.00    +0.000 OA
BRANCH  17  18
ATOM     18  C   UNL     1       0.539  10.747  19.650  0.00  0.00    +0.000 C 
ATOM     19  C   UNL     1      -0.995  11.003  19.874  0.00  0.00    +0.000 C 
ATOM     20  C   UNL     1      -1.474  11.955  21.041  0.00  0.00    +0.000 C 
ATOM     21  C   UNL     1      -1.112  11.794  22.571  0.00  0.00    +0.000 C 
ATOM     22  C   UNL     1      -1.157  10.395  23.235  0.00  0.00    +0.000 C 
ATOM     23  C   UNL     1       0.117   9.515  23.104  0.00  0.00    +0.000 C 
ATOM     24  C   UNL     1       0.515   9.199  21.671  0.00  0.00    +0.000 C 
ATOM     25  C   UNL     1       1.181  10.421  20.982  0.00  0.00    +0.000 C 
ENDBRANCH  17  18
ENDBRANCH  16  17
ENDBRANCH   1  16
TORSDOF 3
ENDMDL
MODEL 7
REMARK VINA RESULT:      -7.8      0.885      1.582
REMARK  Name = 
REMARK  3 active torsions:
REMARK  status: ('A' for Active; 'I' for Inactive)
REMARK    1  A    between atoms: C_2  and  O_3
REMARK    2  A    between atoms: C_2  and  C_12
REMARK    3  A    between atoms: O_3  and  C_4
REMARK                            x       y       z     vdW  Elec       q    Type
REMARK                         _______ _______ _______ _____ _____    ______ ____
ROOT
ATOM      1  C   UNL     1       1.827   8.959  18.566  0.00  0.00    +0.000 C 
ATOM      2  C   UNL     1       0.558   8.987  17.652  0.00  0.00    +0.000 C 
ATOM      3  C   UNL     1      -0.494   9.950  18.197  0.00  0.00    +0.000 A 
ATOM      4  C   UNL     1      -0.352  10.528  19.455  0.00  0.00    +0.000 A 
ATOM      5  S   UNL     1      -1.654  11.543  19.817  0.00  0.00    +0.000 S 
ATOM      6  C   UNL     1      -2.461  11.224  18.382  0.00  0.00    +0.000 A 
ATOM      7  C   UNL     1      -3.713  11.706  17.992  0.00  0.00    +0.000 A 
ATOM      8  C   UNL     1      -4.223  11.292  16.760  0.00  0.00    +0.000 A 
ATOM      9  C   UNL     1      -3.482  10.424  15.937  0.00  0.00    +0.000 A 
ATOM     10  C   UNL     1      -2.220   9.946  16.343  0.00  0.00    +0.000 A 
ATOM     11  C   UNL     1      -1.712  10.350  17.593  0.00  0.00    +0.000 A 
ATOM     12  C   UNL     1       0.755  10.175  20.398  0.00  0.00    +0.000 C 
ATOM     13  N   UNL     1       1.419   8.921  19.990  0.00  0.00    +0.000 NA
ATOM     14  H   UNL     1       0.743   8.129  20.126  0.00  0.00    +0.000 HD
ENDROOT
BRANCH   1  16
ATOM     15  O   UNL     1       3.404   7.710  17.254  0.00  0.00    +0.000 OA
ATOM     16  C   UNL     1       2.806   7.777  18.319  0.00  0.00    +0.000 C 
BRANCH  16  17
ATOM     17  O   UNL     1       2.945   6.778  19.248  0.00  0.00    +0.000 OA
BRANCH  17  18
ATOM     18  C   UNL     1       2.153   5.625  19.356  0.00  0.00    +0.000 C 
ATOM     19  C   UNL     1       1.867   4.911  17.985  0.00  0.00    +0.000 C 
ATOM     20  C   UNL     1       1.298   3.436  17.969  0.00  0.00    +0.000 C 
ATOM     21  C   UNL     1       1.961   2.184  18.668  0.00  0.00    +0.000 C 
ATOM     22  C   UNL     1       3.490   1.958  18.568  0.00  0.00    +0.000 C 
ATOM     23  C   UNL     1       4.377   2.689  19.614  0.00  0.00    +0.000 C 
ATOM     24  C   UNL     1       4.254   4.205  19.589  0.00  0.00    +0.000 C 
ATOM     25  C   UNL     1       2.931   4.680  20.249  0.00  0.00    +0.000 C 
ENDBRANCH  17  18
ENDBRANCH  16  17
ENDBRANCH   1  16
TORSDOF 3
ENDMDL
MODEL 8
REMARK VINA RESULT:      -7.6      2.457      8.162
REMARK  Name = 
REMARK  3 active torsions:
REMARK  status: ('A' for Active; 'I' for Inactive)
REMARK    1  A    between atoms: C_2  and  O_3
REMARK    2  A    between atoms: C_2  and  C_12
REMARK    3  A    between atoms: O_3  and  C_4
REMARK                            x       y       z     vdW  Elec       q    Type
REMARK                         _______ _______ _______ _____ _____    ______ ____
ROOT
ATOM      1  C   UNL     1       1.618   9.147  19.707  0.00  0.00    +0.000 C 
ATOM      2  C   UNL     1       1.479   7.751  20.398  0.00  0.00    +0.000 C 
ATOM      3  C   UNL     1       2.283   6.685  19.657  0.00  0.00    +0.000 A 
ATOM      4  C   UNL     1       2.862   6.956  18.421  0.00  0.00    +0.000 A 
ATOM      5  S   UNL     1       3.684   5.609  17.817  0.00  0.00    +0.000 S 
ATOM      6  C   UNL     1       3.270   4.623  19.109  0.00  0.00    +0.000 A 
ATOM      7  C   UNL     1       3.578   3.270  19.273  0.00  0.00    +0.000 A 
ATOM      8  C   UNL     1       3.110   2.622  20.417  0.00  0.00    +0.000 A 
ATOM      9  C   UNL     1       2.360   3.324  21.379  0.00  0.00    +0.000 A 
ATOM     10  C   UNL     1       2.057   4.689  21.201  0.00  0.00    +0.000 A 
ATOM     11  C   UNL     1       2.516   5.340  20.039  0.00  0.00    +0.000 A 
ATOM     12  C   UNL     1       2.657   8.243  17.685  0.00  0.00    +0.000 C 
ATOM     13  N   UNL     1       1.511   8.991  18.237  0.00  0.00    +0.000 NA
ATOM     14  H   UNL     1       0.631   8.461  18.017  0.00  0.00    +0.000 HD
ENDROOT
BRANCH   1  16
ATOM     15  O   UNL     1       0.526  10.541  21.329  0.00  0.00    +0.000 OA
ATOM     16  C   UNL     1       0.586  10.221  20.150  0.00  0.00    +0.000 C 
BRANCH  16  17
ATOM     17  O   UNL     1      -0.302  10.751  19.248  0.00  0.00    +0.000 OA
BRANCH  17  18
ATOM     18  C   UNL     1      -1.701  10.671  19.311  0.00  0.00    +0.000 C 
ATOM     19  C   UNL     1      -2.437  12.016  18.966  0.00  0.00    +0.000 C 
ATOM     20  C   UNL     1      -3.987  12.009  18.653  0.00  0.00    +0.000 C 
ATOM     21  C   UNL     1      -4.699  11.144  17.538  0.00  0.00    +0.000 C 
ATOM     22  C   UNL     1      -4.068  11.023  16.129  0.00  0.00    +0.000 C 
ATOM     23  C   UNL     1      -2.991   9.921  15.934  0.00  0.00    +0.000 C 
ATOM     24  C   UNL     1      -1.776  10.065  16.839  0.00  0.00    +0.000 C 
ATOM     25  C   UNL     1      -2.095   9.621  18.293  0.00  0.00    +0.000 C 
ENDBRANCH  17  18
ENDBRANCH  16  17
ENDBRANCH   1  16
TORSDOF 3
ENDMDL
MODEL 9
REMARK VINA RESULT:      -7.6      2.720      8.063
REMARK  Name = 
REMARK  3 active torsions:
REMARK  status: ('A' for Active; 'I' for Inactive)
REMARK    1  A    between atoms: C_2  and  O_3
REMARK    2  A    between atoms: C_2  and  C_12
REMARK    3  A    between atoms: O_3  and  C_4
REMARK                            x       y       z     vdW  Elec       q    Type
REMARK                         _______ _______ _______ _____ _____    ______ ____
ROOT
ATOM      1  C   UNL     1       1.093   8.541  19.603  0.00  0.00    +0.000 C 
ATOM      2  C   UNL     1       2.207   8.350  18.523  0.00  0.00    +0.000 C 
ATOM      3  C   UNL     1       2.828   6.957  18.609  0.00  0.00    +0.000 A 
ATOM      4  C   UNL     1       2.533   6.107  19.671  0.00  0.00    +0.000 A 
ATOM      5  S   UNL     1       3.355   4.638  19.530  0.00  0.00    +0.000 S 
ATOM      6  C   UNL     1       4.155   5.079  18.123  0.00  0.00    +0.000 A 
ATOM      7  C   UNL     1       5.103   4.330  17.420  0.00  0.00    +0.000 A 
ATOM      8  C   UNL     1       5.674   4.897  16.280  0.00  0.00    +0.000 A 
ATOM      9  C   UNL     1       5.290   6.182  15.852  0.00  0.00    +0.000 A 
ATOM     10  C   UNL     1       4.332   6.925  16.572  0.00  0.00    +0.000 A 
ATOM     11  C   UNL     1       3.767   6.360  17.731  0.00  0.00    +0.000 A 
ATOM     12  C   UNL     1       1.694   6.519  20.840  0.00  0.00    +0.000 C 
ATOM     13  N   UNL     1       1.550   7.986  20.898  0.00  0.00    +0.000 NA
ATOM     14  H   UNL     1       2.486   8.402  21.132  0.00  0.00    +0.000 HD
ENDROOT
BRANCH   1  16
ATOM     15  O   UNL     1       1.369  10.765  20.468  0.00  0.00    +0.000 OA
ATOM     16  C   UNL     1       0.637  10.007  19.845  0.00  0.00    +0.000 C 
BRANCH  16  17
ATOM     17  O   UNL     1      -0.601  10.431  19.436  0.00  0.00    +0.000 OA
BRANCH  17  18
ATOM     18  C   UNL     1      -0.964  10.812  18.136  0.00  0.00    +0.000 C 
ATOM     19  C   UNL     1      -1.701   9.690  17.319  0.00  0.00    +0.000 C 
ATOM     20  C   UNL     1      -2.473  10.060  15.990  0.00  0.00    +0.000 C 
ATOM     21  C   UNL     1      -3.624  11.135  15.861  0.00  0.00    +0.000 C 
ATOM     22  C   UNL     1      -4.739  11.210  16.934  0.00  0.00    +0.000 C 
ATOM     23  C   UNL     1      -4.439  12.059  18.200  0.00  0.00    +0.000 C 
ATOM     24  C   UNL     1      -3.231  11.589  18.997  0.00  0.00    +0.000 C 
ATOM     25  C   UNL     1      -1.901  11.991  18.304  0.00  0.00    +0.000 C 
ENDBRANCH  17  18
ENDBRANCH  16  17
ENDBRANCH   1  16
TORSDOF 3
ENDMDL
