MODEL 1
REMARK VINA RESULT:      -7.4      0.000      0.000
REMARK  Name = 
REMARK  11 active torsions:
REMARK  status: ('A' for Active; 'I' for Inactive)
REMARK    1  A    between atoms: C_2  and  C_3
REMARK    2  A    between atoms: C_3  and  C_4
REMARK    3  A    between atoms: C_4  and  C_5
REMARK    4  A    between atoms: C_5  and  C_6
REMARK    5  A    between atoms: C_6  and  C_7
REMARK    6  A    between atoms: C_12  and  C_14
REMARK    7  A    between atoms: C_14  and  C_15
REMARK    8  A    between atoms: N_22  and  C_23
REMARK    9  A    between atoms: C_23  and  C_24
REMARK   10  A    between atoms: C_24  and  N_25
REMARK   11  A    between atoms: C_28  and  O_29
REMARK                            x       y       z     vdW  Elec       q    Type
REMARK                         _______ _______ _______ _____ _____    ______ ____
ROOT
ATOM      1  C   UNL     1       4.971   4.936  15.885  0.00  0.00    +0.000 C 
ENDROOT
BRANCH   1   2
ATOM      2  C   UNL     1       3.677   4.701  16.657  0.00  0.00    +0.000 C 
BRANCH   2   3
ATOM      3  C   UNL     1       3.758   3.477  17.559  0.00  0.00    +0.000 C 
BRANCH   3   5
ATOM      4  O   UNL     1       3.762   3.184  19.956  0.00  0.00    +0.000 OA
ATOM      5  C   UNL     1       3.344   3.786  18.975  0.00  0.00    +0.000 C 
ATOM      6  N   UNL     1       2.440   4.827  19.031  0.00  0.00    +0.000 N 
ATOM      7  H   UNL     1       2.325   5.408  18.211  0.00  0.00    +0.000 HD
BRANCH   6   8
ATOM      8  C   UNL     1       2.022   5.354  20.311  0.00  0.00    +0.000 C 
BRANCH   8   9
ATOM      9  C   UNL     1       2.417   6.827  20.482  0.00  0.00    +0.000 C 
BRANCH   9  10
ATOM     10  N   UNL     1       1.525   7.764  19.777  0.00  0.00    +0.000 NA
ATOM     11  C   UNL     1       2.164   8.316  18.571  0.00  0.00    +0.000 C 
ATOM     12  C   UNL     1       1.215   9.239  17.811  0.00  0.00    +0.000 C 
ATOM     13  C   UNL     1       0.667  10.348  18.698  0.00  0.00    +0.000 C 
ATOM     14  C   UNL     1       0.116   9.789  20.006  0.00  0.00    +0.000 C 
ATOM     15  C   UNL     1       1.102   8.840  20.688  0.00  0.00    +0.000 C 
BRANCH  13  16
ATOM     16  O   UNL     1       1.676  11.325  18.959  0.00  0.00    +0.000 OA
ATOM     17  H   UNL     1       1.365  11.915  19.665  0.00  0.00    +0.000 HD
ENDBRANCH  13  16
ENDBRANCH   9  10
ENDBRANCH   8   9
ENDBRANCH   6   8
ENDBRANCH   3   5
ENDBRANCH   2   3
ENDBRANCH   1   2
BRANCH   1  18
ATOM     18  C   UNL     1       6.153   4.135  16.444  0.00  0.00    +0.000 C 
BRANCH  18  19
ATOM     19  C   UNL     1       6.954   4.932  17.415  0.00  0.00    +0.000 A 
ATOM     20  N   UNL     1       7.590   4.449  18.463  0.00  0.00    +0.000 NA
ATOM     21  N   UNL     1       8.230   5.447  19.178  0.00  0.00    +0.000 NA
ATOM     22  C   UNL     1       8.067   6.630  18.628  0.00  0.00    +0.000 A 
ATOM     23  N   UNL     1       8.585   7.789  19.152  0.00  0.00    +0.000 N 
ATOM     24  C   UNL     1       8.533   9.033  18.551  0.00  0.00    +0.000 C 
ATOM     25  O   UNL     1       8.068   9.296  17.444  0.00  0.00    +0.000 OA
ATOM     26  S   UNL     1       7.117   6.620  17.217  0.00  0.00    +0.000 S 
ATOM     27  H   UNL     1       9.117   7.659  20.004  0.00  0.00    +0.000 HD
BRANCH  24  28
ATOM     28  C   UNL     1       9.157  10.131  19.385  0.00  0.00    +0.000 C 
BRANCH  28  29
ATOM     29  C   UNL     1       9.726  11.270  18.574  0.00  0.00    +0.000 A 
ATOM     30  C   UNL     1       8.958  12.386  18.207  0.00  0.00    +0.000 A 
ATOM     31  C   UNL     1       9.512  13.401  17.427  0.00  0.00    +0.000 A 
ATOM     32  C   UNL     1      10.846  13.332  17.035  0.00  0.00    +0.000 A 
ATOM     33  C   UNL     1      11.634  12.257  17.439  0.00  0.00    +0.000 A 
ATOM     34  C   UNL     1      11.080  11.235  18.212  0.00  0.00    +0.000 A 
ENDBRANCH  28  29
ENDBRANCH  24  28
ENDBRANCH  18  19
ENDBRANCH   1  18
TORSDOF 11
ENDMDL
MODEL 2
REMARK VINA RESULT:      -7.3      3.495      8.880
REMARK  Name = 
REMARK  11 active torsions:
REMARK  status: ('A' for Active; 'I' for Inactive)
REMARK    1  A    between atoms: C_2  and  C_3
REMARK    2  A    between atoms: C_3  and  C_4
REMARK    3  A    between atoms: C_4  and  C_5
REMARK    4  A    between atoms: C_5  and  C_6
REMARK    5  A    between atoms: C_6  and  C_7
REMARK    6  A    between atoms: C_12  and  C_14
REMARK    7  A    between atoms: C_14  and  C_15
REMARK    8  A    between atoms: N_22  and  C_23
REMARK    9  A    between atoms: C_23  and  C_24
REMARK   10  A    between atoms: C_24  and  N_25
REMARK   11  A    between atoms: C_28  and  O_29
REMARK                            x       y       z     vdW  Elec       q    Type
REMARK                         _______ _______ _______ _____ _____    ______ ____
ROOT
ATOM      1  C   UNL     1       8.866   9.527  18.667  0.00  0.00    +0.000 C 
ENDROOT
BRANCH   1   2
ATOM      2  C   UNL     1       9.160  10.953  18.214  0.00  0.00    +0.000 C 
BRANCH   2   3
ATOM      3  C   UNL     1       9.617  11.841  19.363  0.00  0.00    +0.000 C 
BRANCH   3   5
ATOM      4  O   UNL     1       9.649  13.852  18.027  0.00  0.00    +0.000 OA
ATOM      5  C   UNL     1       9.371  13.302  19.085  0.00  0.00    +0.000 C 
ATOM      6  N   UNL     1       8.797  13.942  20.164  0.00  0.00    +0.000 N 
ATOM      7  H   UNL     1       8.397  13.376  20.901  0.00  0.00    +0.000 HD
BRANCH   6   8
ATOM      8  C   UNL     1       8.369  15.317  20.046  0.00  0.00    +0.000 C 
BRANCH   8   9
ATOM      9  C   UNL     1       7.004  15.553  20.707  0.00  0.00    +0.000 C 
BRANCH   9  10
ATOM     10  N   UNL     1       5.871  15.015  19.933  0.00  0.00    +0.000 NA
ATOM     11  C   UNL     1       5.778  15.640  18.604  0.00  0.00    +0.000 C 
ATOM     12  C   UNL     1       4.642  15.036  17.783  0.00  0.00    +0.000 C 
ATOM     13  C   UNL     1       3.310  15.107  18.517  0.00  0.00    +0.000 C 
ATOM     14  C   UNL     1       3.433  14.574  19.940  0.00  0.00    +0.000 C 
ATOM     15  C   UNL     1       4.617  15.189  20.685  0.00  0.00    +0.000 C 
BRANCH  13  16
ATOM     16  O   UNL     1       2.814  16.447  18.527  0.00  0.00    +0.000 OA
ATOM     17  H   UNL     1       1.930  16.450  18.928  0.00  0.00    +0.000 HD
ENDBRANCH  13  16
ENDBRANCH   9  10
ENDBRANCH   8   9
ENDBRANCH   6   8
ENDBRANCH   3   5
ENDBRANCH   2   3
ENDBRANCH   1   2
BRANCH   1  18
ATOM     18  C   UNL     1       8.269   8.658  17.553  0.00  0.00    +0.000 C 
BRANCH  18  19
ATOM     19  C   UNL     1       7.765   7.357  18.076  0.00  0.00    +0.000 A 
ATOM     20  N   UNL     1       8.302   6.668  19.062  0.00  0.00    +0.000 NA
ATOM     21  N   UNL     1       7.610   5.492  19.300  0.00  0.00    +0.000 NA
ATOM     22  C   UNL     1       6.573   5.360  18.502  0.00  0.00    +0.000 A 
ATOM     23  N   UNL     1       5.733   4.273  18.523  0.00  0.00    +0.000 N 
ATOM     24  C   UNL     1       4.573   4.145  17.782  0.00  0.00    +0.000 C 
ATOM     25  O   UNL     1       4.081   4.986  17.033  0.00  0.00    +0.000 OA
ATOM     26  S   UNL     1       6.372   6.638  17.398  0.00  0.00    +0.000 S 
ATOM     27  H   UNL     1       5.973   3.575  19.216  0.00  0.00    +0.000 HD
BRANCH  24  28
ATOM     28  C   UNL     1       3.874   2.817  17.985  0.00  0.00    +0.000 C 
BRANCH  28  29
ATOM     29  C   UNL     1       2.954   2.785  19.181  0.00  0.00    +0.000 A 
ATOM     30  C   UNL     1       3.427   2.577  20.486  0.00  0.00    +0.000 A 
ATOM     31  C   UNL     1       2.540   2.518  21.561  0.00  0.00    +0.000 A 
ATOM     32  C   UNL     1       1.176   2.704  21.351  0.00  0.00    +0.000 A 
ATOM     33  C   UNL     1       0.699   2.967  20.069  0.00  0.00    +0.000 A 
ATOM     34  C   UNL     1       1.584   3.016  18.991  0.00  0.00    +0.000 A 
ENDBRANCH  28  29
ENDBRANCH  24  28
ENDBRANCH  18  19
ENDBRANCH   1  18
TORSDOF 11
ENDMDL
MODEL 3
REMARK VINA RESULT:      -7.2      1.331      1.735
REMARK  Name = 
REMARK  11 active torsions:
REMARK  status: ('A' for Active; 'I' for Inactive)
REMARK    1  A    between atoms: C_2  and  C_3
REMARK    2  A    between atoms: C_3  and  C_4
REMARK    3  A    between atoms: C_4  and  C_5
REMARK    4  A    between atoms: C_5  and  C_6
REMARK    5  A    between atoms: C_6  and  C_7
REMARK    6  A    between atoms: C_12  and  C_14
REMARK    7  A    between atoms: C_14  and  C_15
REMARK    8  A    between atoms: N_22  and  C_23
REMARK    9  A    between atoms: C_23  and  C_24
REMARK   10  A    between atoms: C_24  and  N_25
REMARK   11  A    between atoms: C_28  and  O_29
REMARK                            x       y       z     vdW  Elec       q    Type
REMARK                         _______ _______ _______ _____ _____    ______ ____
ROOT
ATOM      1  C   UNL     1       4.034   5.138  17.042  0.00  0.00    +0.000 C 
ENDROOT
BRANCH   1   2
ATOM      2  C   UNL     1       3.314   4.007  17.769  0.00  0.00    +0.000 C 
BRANCH   2   3
ATOM      3  C   UNL     1       1.986   4.458  18.364  0.00  0.00    +0.000 C 
BRANCH   3   5
ATOM      4  O   UNL     1       2.638   4.970  20.632  0.00  0.00    +0.000 OA
ATOM      5  C   UNL     1       2.175   5.351  19.564  0.00  0.00    +0.000 C 
ATOM      6  N   UNL     1       1.767   6.644  19.313  0.00  0.00    +0.000 N 
ATOM      7  H   UNL     1       1.615   6.922  18.352  0.00  0.00    +0.000 HD
BRANCH   6   8
ATOM      8  C   UNL     1       1.987   7.677  20.299  0.00  0.00    +0.000 C 
BRANCH   8   9
ATOM      9  C   UNL     1       0.837   7.759  21.313  0.00  0.00    +0.000 C 
BRANCH   9  10
ATOM     10  N   UNL     1       0.086   9.025  21.253  0.00  0.00    +0.000 NA
ATOM     11  C   UNL     1       0.559   9.885  20.156  0.00  0.00    +0.000 C 
ATOM     12  C   UNL     1      -0.262  11.167  20.061  0.00  0.00    +0.000 C 
ATOM     13  C   UNL     1      -0.289  11.926  21.380  0.00  0.00    +0.000 C 
ATOM     14  C   UNL     1      -0.658  11.008  22.539  0.00  0.00    +0.000 C 
ATOM     15  C   UNL     1       0.173   9.725  22.545  0.00  0.00    +0.000 C 
BRANCH  13  16
ATOM     16  O   UNL     1       0.972  12.554  21.622  0.00  0.00    +0.000 OA
ATOM     17  H   UNL     1       1.114  13.240  20.951  0.00  0.00    +0.000 HD
ENDBRANCH  13  16
ENDBRANCH   9  10
ENDBRANCH   8   9
ENDBRANCH   6   8
ENDBRANCH   3   5
ENDBRANCH   2   3
ENDBRANCH   1   2
BRANCH   1  18
ATOM     18  C   UNL     1       5.441   4.745  16.575  0.00  0.00    +0.000 C 
BRANCH  18  19
ATOM     19  C   UNL     1       6.500   5.387  17.403  0.00  0.00    +0.000 A 
ATOM     20  N   UNL     1       7.358   4.753  18.176  0.00  0.00    +0.000 NA
ATOM     21  N   UNL     1       8.206   5.632  18.828  0.00  0.00    +0.000 NA
ATOM     22  C   UNL     1       7.965   6.883  18.502  0.00  0.00    +0.000 A 
ATOM     23  N   UNL     1       8.655   7.950  19.025  0.00  0.00    +0.000 N 
ATOM     24  C   UNL     1       8.510   9.267  18.630  0.00  0.00    +0.000 C 
ATOM     25  O   UNL     1       7.791   9.690  17.727  0.00  0.00    +0.000 OA
ATOM     26  S   UNL     1       6.687   7.084  17.398  0.00  0.00    +0.000 S 
ATOM     27  H   UNL     1       9.379   7.694  19.685  0.00  0.00    +0.000 HD
BRANCH  24  28
ATOM     28  C   UNL     1       9.378  10.228  19.414  0.00  0.00    +0.000 C 
BRANCH  28  29
ATOM     29  C   UNL     1       9.759  11.473  18.650  0.00  0.00    +0.000 A 
ATOM     30  C   UNL     1       9.022  12.664  18.742  0.00  0.00    +0.000 A 
ATOM     31  C   UNL     1       9.388  13.782  17.992  0.00  0.00    +0.000 A 
ATOM     32  C   UNL     1      10.512  13.736  17.172  0.00  0.00    +0.000 A 
ATOM     33  C   UNL     1      11.284  12.578  17.114  0.00  0.00    +0.000 A 
ATOM     34  C   UNL     1      10.915  11.455  17.856  0.00  0.00    +0.000 A 
ENDBRANCH  28  29
ENDBRANCH  24  28
ENDBRANCH  18  19
ENDBRANCH   1  18
TORSDOF 11
ENDMDL
MODEL 4
REMARK VINA RESULT:      -7.2      4.661      8.493
REMARK  Name = 
REMARK  11 active torsions:
REMARK  status: ('A' for Active; 'I' for Inactive)
REMARK    1  A    between atoms: C_2  and  C_3
REMARK    2  A    between atoms: C_3  and  C_4
REMARK    3  A    between atoms: C_4  and  C_5
REMARK    4  A    between atoms: C_5  and  C_6
REMARK    5  A    between atoms: C_6  and  C_7
REMARK    6  A    between atoms: C_12  and  C_14
REMARK    7  A    between atoms: C_14  and  C_15
REMARK    8  A    between atoms: N_22  and  C_23
REMARK    9  A    between atoms: C_23  and  C_24
REMARK   10  A    between atoms: C_24  and  N_25
REMARK   11  A    between atoms: C_28  and  O_29
REMARK                            x       y       z     vdW  Elec       q    Type
REMARK                         _______ _______ _______ _____ _____    ______ ____
ROOT
ATOM      1  C   UNL     1       4.302   6.963  17.663  0.00  0.00    +0.000 C 
ENDROOT
BRANCH   1   2
ATOM      2  C   UNL     1       4.521   6.680  16.180  0.00  0.00    +0.000 C 
BRANCH   2   3
ATOM      3  C   UNL     1       5.722   5.775  15.937  0.00  0.00    +0.000 C 
BRANCH   3   5
ATOM      4  O   UNL     1       6.600   4.367  17.691  0.00  0.00    +0.000 OA
ATOM      5  C   UNL     1       5.729   4.581  16.858  0.00  0.00    +0.000 C 
ATOM      6  N   UNL     1       4.638   3.763  16.649  0.00  0.00    +0.000 N 
ATOM      7  H   UNL     1       3.861   4.126  16.111  0.00  0.00    +0.000 HD
BRANCH   6   8
ATOM      8  C   UNL     1       4.401   2.635  17.521  0.00  0.00    +0.000 C 
BRANCH   8   9
ATOM      9  C   UNL     1       2.917   2.247  17.568  0.00  0.00    +0.000 C 
BRANCH   9  10
ATOM     10  N   UNL     1       2.288   2.471  18.882  0.00  0.00    +0.000 NA
ATOM     11  C   UNL     1       1.442   3.676  18.878  0.00  0.00    +0.000 C 
ATOM     12  C   UNL     1       0.745   3.870  20.222  0.00  0.00    +0.000 C 
ATOM     13  C   UNL     1       1.735   3.899  21.378  0.00  0.00    +0.000 C 
ATOM     14  C   UNL     1       2.695   2.716  21.313  0.00  0.00    +0.000 C 
ATOM     15  C   UNL     1       3.321   2.557  19.927  0.00  0.00    +0.000 C 
BRANCH  13  16
ATOM     16  O   UNL     1       2.459   5.130  21.386  0.00  0.00    +0.000 OA
ATOM     17  H   UNL     1       1.895   5.827  21.014  0.00  0.00    +0.000 HD
ENDBRANCH  13  16
ENDBRANCH   9  10
ENDBRANCH   8   9
ENDBRANCH   6   8
ENDBRANCH   3   5
ENDBRANCH   2   3
ENDBRANCH   1   2
BRANCH   1  18
ATOM     18  C   UNL     1       2.829   6.864  18.078  0.00  0.00    +0.000 C 
BRANCH  18  19
ATOM     19  C   UNL     1       2.247   8.202  18.380  0.00  0.00    +0.000 A 
ATOM     20  N   UNL     1       2.211   9.226  17.553  0.00  0.00    +0.000 NA
ATOM     21  N   UNL     1       1.619  10.334  18.136  0.00  0.00    +0.000 NA
ATOM     22  C   UNL     1       1.217  10.089  19.364  0.00  0.00    +0.000 A 
ATOM     23  N   UNL     1       0.615  11.028  20.167  0.00  0.00    +0.000 N 
ATOM     24  C   UNL     1       0.080  10.785  21.418  0.00  0.00    +0.000 C 
ATOM     25  O   UNL     1       0.008   9.699  21.990  0.00  0.00    +0.000 OA
ATOM     26  S   UNL     1       1.541   8.509  19.904  0.00  0.00    +0.000 S 
ATOM     27  H   UNL     1       0.496  11.933  19.731  0.00  0.00    +0.000 HD
BRANCH  24  28
ATOM     28  C   UNL     1      -0.484  12.023  22.082  0.00  0.00    +0.000 C 
BRANCH  28  29
ATOM     29  C   UNL     1      -1.931  12.294  21.748  0.00  0.00    +0.000 A 
ATOM     30  C   UNL     1      -2.385  12.421  20.426  0.00  0.00    +0.000 A 
ATOM     31  C   UNL     1      -3.724  12.706  20.161  0.00  0.00    +0.000 A 
ATOM     32  C   UNL     1      -4.632  12.832  21.210  0.00  0.00    +0.000 A 
ATOM     33  C   UNL     1      -4.205  12.654  22.524  0.00  0.00    +0.000 A 
ATOM     34  C   UNL     1      -2.864  12.377  22.791  0.00  0.00    +0.000 A 
ENDBRANCH  28  29
ENDBRANCH  24  28
ENDBRANCH  18  19
ENDBRANCH   1  18
TORSDOF 11
ENDMDL
MODEL 5
REMARK VINA RESULT:      -7.1      4.730     10.632
REMARK  Name = 
REMARK  11 active torsions:
REMARK  status: ('A' for Active; 'I' for Inactive)
REMARK    1  A    between atoms: C_2  and  C_3
REMARK    2  A    between atoms: C_3  and  C_4
REMARK    3  A    between atoms: C_4  and  C_5
REMARK    4  A    between atoms: C_5  and  C_6
REMARK    5  A    between atoms: C_6  and  C_7
REMARK    6  A    between atoms: C_12  and  C_14
REMARK    7  A    between atoms: C_14  and  C_15
REMARK    8  A    between atoms: N_22  and  C_23
REMARK    9  A    between atoms: C_23  and  C_24
REMARK   10  A    between atoms: C_24  and  N_25
REMARK   11  A    between atoms: C_28  and  O_29
REMARK                            x       y       z     vdW  Elec       q    Type
REMARK                         _______ _______ _______ _____ _____    ______ ____
ROOT
ATOM      1  C   UNL     1       1.822   8.752  17.711  0.00  0.00    +0.000 C 
ENDROOT
BRANCH   1   2
ATOM      2  C   UNL     1       2.907   7.714  17.973  0.00  0.00    +0.000 C 
BRANCH   2   3
ATOM      3  C   UNL     1       4.086   7.860  17.020  0.00  0.00    +0.000 C 
BRANCH   3   5
ATOM      4  O   UNL     1       6.131   6.668  16.544  0.00  0.00    +0.000 OA
ATOM      5  C   UNL     1       5.117   6.779  17.221  0.00  0.00    +0.000 C 
ATOM      6  N   UNL     1       4.781   5.934  18.259  0.00  0.00    +0.000 N 
ATOM      7  H   UNL     1       4.057   6.227  18.902  0.00  0.00    +0.000 HD
BRANCH   6   8
ATOM      8  C   UNL     1       5.708   4.911  18.688  0.00  0.00    +0.000 C 
BRANCH   8   9
ATOM      9  C   UNL     1       4.985   3.695  19.284  0.00  0.00    +0.000 C 
BRANCH   9  10
ATOM     10  N   UNL     1       3.519   3.838  19.322  0.00  0.00    +0.000 NA
ATOM     11  C   UNL     1       2.912   2.940  20.317  0.00  0.00    +0.000 C 
ATOM     12  C   UNL     1       1.400   3.135  20.395  0.00  0.00    +0.000 C 
ATOM     13  C   UNL     1       0.735   2.977  19.036  0.00  0.00    +0.000 C 
ATOM     14  C   UNL     1       1.440   3.813  17.974  0.00  0.00    +0.000 C 
ATOM     15  C   UNL     1       2.954   3.599  17.984  0.00  0.00    +0.000 C 
BRANCH  13  16
ATOM     16  O   UNL     1       0.705   1.602  18.650  0.00  0.00    +0.000 OA
ATOM     17  H   UNL     1       1.601   1.329  18.396  0.00  0.00    +0.000 HD
ENDBRANCH  13  16
ENDBRANCH   9  10
ENDBRANCH   8   9
ENDBRANCH   6   8
ENDBRANCH   3   5
ENDBRANCH   2   3
ENDBRANCH   1   2
BRANCH   1  18
ATOM     18  C   UNL     1       1.466   9.570  18.959  0.00  0.00    +0.000 C 
BRANCH  18  19
ATOM     19  C   UNL     1       0.385  10.559  18.683  0.00  0.00    +0.000 A 
ATOM     20  N   UNL     1       0.471  11.860  18.872  0.00  0.00    +0.000 NA
ATOM     21  N   UNL     1      -0.708  12.504  18.536  0.00  0.00    +0.000 NA
ATOM     22  C   UNL     1      -1.618  11.666  18.089  0.00  0.00    +0.000 A 
ATOM     23  N   UNL     1      -2.880  12.050  17.706  0.00  0.00    +0.000 N 
ATOM     24  C   UNL     1      -3.827  11.224  17.130  0.00  0.00    +0.000 C 
ATOM     25  O   UNL     1      -3.683  10.042  16.821  0.00  0.00    +0.000 OA
ATOM     26  S   UNL     1      -1.117  10.041  18.059  0.00  0.00    +0.000 S 
ATOM     27  H   UNL     1      -3.056  13.043  17.789  0.00  0.00    +0.000 HD
BRANCH  24  28
ATOM     28  C   UNL     1      -5.142  11.920  16.850  0.00  0.00    +0.000 C 
BRANCH  28  29
ATOM     29  C   UNL     1      -5.999  12.126  18.075  0.00  0.00    +0.000 A 
ATOM     30  C   UNL     1      -6.446  11.057  18.867  0.00  0.00    +0.000 A 
ATOM     31  C   UNL     1      -7.267  11.288  19.971  0.00  0.00    +0.000 A 
ATOM     32  C   UNL     1      -7.620  12.589  20.318  0.00  0.00    +0.000 A 
ATOM     33  C   UNL     1      -7.139  13.663  19.573  0.00  0.00    +0.000 A 
ATOM     34  C   UNL     1      -6.326  13.434  18.463  0.00  0.00    +0.000 A 
ENDBRANCH  28  29
ENDBRANCH  24  28
ENDBRANCH  18  19
ENDBRANCH   1  18
TORSDOF 11
ENDMDL
MODEL 6
REMARK VINA RESULT:      -7.1      3.668      9.672
REMARK  Name = 
REMARK  11 active torsions:
REMARK  status: ('A' for Active; 'I' for Inactive)
REMARK    1  A    between atoms: C_2  and  C_3
REMARK    2  A    between atoms: C_3  and  C_4
REMARK    3  A    between atoms: C_4  and  C_5
REMARK    4  A    between atoms: C_5  and  C_6
REMARK    5  A    between atoms: C_6  and  C_7
REMARK    6  A    between atoms: C_12  and  C_14
REMARK    7  A    between atoms: C_14  and  C_15
REMARK    8  A    between atoms: N_22  and  C_23
REMARK    9  A    between atoms: C_23  and  C_24
REMARK   10  A    between atoms: C_24  and  N_25
REMARK   11  A    between atoms: C_28  and  O_29
REMARK                            x       y       z     vdW  Elec       q    Type
REMARK                         _______ _______ _______ _____ _____    ______ ____
ROOT
ATOM      1  C   UNL     1       7.941   9.450  17.967  0.00  0.00    +0.000 C 
ENDROOT
BRANCH   1   2
ATOM      2  C   UNL     1       9.064   9.923  18.884  0.00  0.00    +0.000 C 
BRANCH   2   3
ATOM      3  C   UNL     1       9.794  11.135  18.322  0.00  0.00    +0.000 C 
BRANCH   3   5
ATOM      4  O   UNL     1      10.563  13.271  19.146  0.00  0.00    +0.000 OA
ATOM      5  C   UNL     1      10.053  12.182  19.377  0.00  0.00    +0.000 C 
ATOM      6  N   UNL     1       9.646  11.764  20.627  0.00  0.00    +0.000 N 
ATOM      7  H   UNL     1       9.037  10.959  20.689  0.00  0.00    +0.000 HD
BRANCH   6   8
ATOM      8  C   UNL     1       9.694  12.678  21.746  0.00  0.00    +0.000 C 
BRANCH   8   9
ATOM      9  C   UNL     1       8.445  13.566  21.817  0.00  0.00    +0.000 C 
BRANCH   9  10
ATOM     10  N   UNL     1       8.743  15.009  21.803  0.00  0.00    +0.000 NA
ATOM     11  C   UNL     1       8.323  15.636  20.539  0.00  0.00    +0.000 C 
ATOM     12  C   UNL     1       8.578  17.141  20.553  0.00  0.00    +0.000 C 
ATOM     13  C   UNL     1      10.030  17.469  20.872  0.00  0.00    +0.000 C 
ATOM     14  C   UNL     1      10.506  16.722  22.113  0.00  0.00    +0.000 C 
ATOM     15  C   UNL     1      10.178  15.230  22.048  0.00  0.00    +0.000 C 
BRANCH  13  16
ATOM     16  O   UNL     1      10.869  17.169  19.756  0.00  0.00    +0.000 OA
ATOM     17  H   UNL     1      10.492  17.582  18.962  0.00  0.00    +0.000 HD
ENDBRANCH  13  16
ENDBRANCH   9  10
ENDBRANCH   8   9
ENDBRANCH   6   8
ENDBRANCH   3   5
ENDBRANCH   2   3
ENDBRANCH   1   2
BRANCH   1  18
ATOM     18  C   UNL     1       8.283   8.150  17.228  0.00  0.00    +0.000 C 
BRANCH  18  19
ATOM     19  C   UNL     1       7.689   6.959  17.897  0.00  0.00    +0.000 A 
ATOM     20  N   UNL     1       8.069   6.463  19.057  0.00  0.00    +0.000 NA
ATOM     21  N   UNL     1       7.331   5.343  19.402  0.00  0.00    +0.000 NA
ATOM     22  C   UNL     1       6.416   5.059  18.500  0.00  0.00    +0.000 A 
ATOM     23  N   UNL     1       5.565   3.985  18.595  0.00  0.00    +0.000 N 
ATOM     24  C   UNL     1       4.521   3.713  17.731  0.00  0.00    +0.000 C 
ATOM     25  O   UNL     1       4.154   4.401  16.781  0.00  0.00    +0.000 OA
ATOM     26  S   UNL     1       6.396   6.116  17.168  0.00  0.00    +0.000 S 
ATOM     27  H   UNL     1       5.693   3.425  19.429  0.00  0.00    +0.000 HD
BRANCH  24  28
ATOM     28  C   UNL     1       3.779   2.437  18.067  0.00  0.00    +0.000 C 
BRANCH  28  29
ATOM     29  C   UNL     1       2.818   2.572  19.223  0.00  0.00    +0.000 A 
ATOM     30  C   UNL     1       1.440   2.764  19.034  0.00  0.00    +0.000 A 
ATOM     31  C   UNL     1       0.590   2.919  20.129  0.00  0.00    +0.000 A 
ATOM     32  C   UNL     1       1.099   2.848  21.423  0.00  0.00    +0.000 A 
ATOM     33  C   UNL     1       2.455   2.602  21.625  0.00  0.00    +0.000 A 
ATOM     34  C   UNL     1       3.309   2.456  20.531  0.00  0.00    +0.000 A 
ENDBRANCH  28  29
ENDBRANCH  24  28
ENDBRANCH  18  19
ENDBRANCH   1  18
TORSDOF 11
ENDMDL
MODEL 7
REMARK VINA RESULT:      -7.0      4.165      9.236
REMARK  Name = 
REMARK  11 active torsions:
REMARK  status: ('A' for Active; 'I' for Inactive)
REMARK    1  A    between atoms: C_2  and  C_3
REMARK    2  A    between atoms: C_3  and  C_4
REMARK    3  A    between atoms: C_4  and  C_5
REMARK    4  A    between atoms: C_5  and  C_6
REMARK    5  A    between atoms: C_6  and  C_7
REMARK    6  A    between atoms: C_12  and  C_14
REMARK    7  A    between atoms: C_14  and  C_15
REMARK    8  A    between atoms: N_22  and  C_23
REMARK    9  A    between atoms: C_23  and  C_24
REMARK   10  A    between atoms: C_24  and  N_25
REMARK   11  A    between atoms: C_28  and  O_29
REMARK                            x       y       z     vdW  Elec       q    Type
REMARK                         _______ _______ _______ _____ _____    ______ ____
ROOT
ATOM      1  C   UNL     1       8.112   9.687  18.201  0.00  0.00    +0.000 C 
ENDROOT
BRANCH   1   2
ATOM      2  C   UNL     1       9.330   9.944  19.082  0.00  0.00    +0.000 C 
BRANCH   2   3
ATOM      3  C   UNL     1       9.849  11.369  18.945  0.00  0.00    +0.000 C 
BRANCH   3   5
ATOM      4  O   UNL     1       8.730  13.423  19.545  0.00  0.00    +0.000 OA
ATOM      5  C   UNL     1       9.148  12.322  19.880  0.00  0.00    +0.000 C 
ATOM      6  N   UNL     1       9.035  11.804  21.153  0.00  0.00    +0.000 N 
ATOM      7  H   UNL     1       9.199  10.814  21.285  0.00  0.00    +0.000 HD
BRANCH   6   8
ATOM      8  C   UNL     1       8.280  12.515  22.160  0.00  0.00    +0.000 C 
BRANCH   8   9
ATOM      9  C   UNL     1       9.190  13.128  23.234  0.00  0.00    +0.000 C 
BRANCH   9  10
ATOM     10  N   UNL     1       8.472  13.533  24.455  0.00  0.00    +0.000 NA
ATOM     11  C   UNL     1       7.921  12.370  25.170  0.00  0.00    +0.000 C 
ATOM     12  C   UNL     1       7.231  12.789  26.466  0.00  0.00    +0.000 C 
ATOM     13  C   UNL     1       6.160  13.843  26.226  0.00  0.00    +0.000 C 
ATOM     14  C   UNL     1       6.695  14.993  25.378  0.00  0.00    +0.000 C 
ATOM     15  C   UNL     1       7.410  14.497  24.121  0.00  0.00    +0.000 C 
BRANCH  13  16
ATOM     16  O   UNL     1       5.012  13.260  25.607  0.00  0.00    +0.000 OA
ATOM     17  H   UNL     1       5.247  12.986  24.706  0.00  0.00    +0.000 HD
ENDBRANCH  13  16
ENDBRANCH   9  10
ENDBRANCH   8   9
ENDBRANCH   6   8
ENDBRANCH   3   5
ENDBRANCH   2   3
ENDBRANCH   1   2
BRANCH   1  18
ATOM     18  C   UNL     1       8.279   8.460  17.296  0.00  0.00    +0.000 C 
BRANCH  18  19
ATOM     19  C   UNL     1       7.752   7.222  17.936  0.00  0.00    +0.000 A 
ATOM     20  N   UNL     1       8.216   6.674  19.040  0.00  0.00    +0.000 NA
ATOM     21  N   UNL     1       7.522   5.521  19.369  0.00  0.00    +0.000 NA
ATOM     22  C   UNL     1       6.556   5.266  18.514  0.00  0.00    +0.000 A 
ATOM     23  N   UNL     1       5.733   4.170  18.605  0.00  0.00    +0.000 N 
ATOM     24  C   UNL     1       4.639   3.923  17.796  0.00  0.00    +0.000 C 
ATOM     25  O   UNL     1       4.198   4.652  16.910  0.00  0.00    +0.000 OA
ATOM     26  S   UNL     1       6.429   6.392  17.246  0.00  0.00    +0.000 S 
ATOM     27  H   UNL     1       5.925   3.570  19.397  0.00  0.00    +0.000 HD
BRANCH  24  28
ATOM     28  C   UNL     1       3.944   2.615  18.109  0.00  0.00    +0.000 C 
BRANCH  28  29
ATOM     29  C   UNL     1       2.973   2.696  19.261  0.00  0.00    +0.000 A 
ATOM     30  C   UNL     1       3.368   2.485  20.591  0.00  0.00    +0.000 A 
ATOM     31  C   UNL     1       2.432   2.535  21.624  0.00  0.00    +0.000 A 
ATOM     32  C   UNL     1       1.100   2.830  21.346  0.00  0.00    +0.000 A 
ATOM     33  C   UNL     1       0.705   3.095  20.037  0.00  0.00    +0.000 A 
ATOM     34  C   UNL     1       1.638   3.037  19.001  0.00  0.00    +0.000 A 
ENDBRANCH  28  29
ENDBRANCH  24  28
ENDBRANCH  18  19
ENDBRANCH   1  18
TORSDOF 11
ENDMDL
MODEL 8
REMARK VINA RESULT:      -6.9      4.418      8.321
REMARK  Name = 
REMARK  11 active torsions:
REMARK  status: ('A' for Active; 'I' for Inactive)
REMARK    1  A    between atoms: C_2  and  C_3
REMARK    2  A    between atoms: C_3  and  C_4
REMARK    3  A    between atoms: C_4  and  C_5
REMARK    4  A    between atoms: C_5  and  C_6
REMARK    5  A    between atoms: C_6  and  C_7
REMARK    6  A    between atoms: C_12  and  C_14
REMARK    7  A    between atoms: C_14  and  C_15
REMARK    8  A    between atoms: N_22  and  C_23
REMARK    9  A    between atoms: C_23  and  C_24
REMARK   10  A    between atoms: C_24  and  N_25
REMARK   11  A    between atoms: C_28  and  O_29
REMARK                            x       y       z     vdW  Elec       q    Type
REMARK                         _______ _______ _______ _____ _____    ______ ____
ROOT
ATOM      1  C   UNL     1       4.610   7.126  17.476  0.00  0.00    +0.000 C 
ENDROOT
BRANCH   1   2
ATOM      2  C   UNL     1       5.314   6.644  16.213  0.00  0.00    +0.000 C 
BRANCH   2   3
ATOM      3  C   UNL     1       6.262   5.485  16.488  0.00  0.00    +0.000 C 
BRANCH   3   5
ATOM      4  O   UNL     1       5.490   3.546  15.272  0.00  0.00    +0.000 OA
ATOM      5  C   UNL     1       5.583   4.147  16.335  0.00  0.00    +0.000 C 
ATOM      6  N   UNL     1       5.082   3.685  17.534  0.00  0.00    +0.000 N 
ATOM      7  H   UNL     1       5.398   4.126  18.389  0.00  0.00    +0.000 HD
BRANCH   6   8
ATOM      8  C   UNL     1       4.508   2.361  17.616  0.00  0.00    +0.000 C 
BRANCH   8   9
ATOM      9  C   UNL     1       2.976   2.393  17.532  0.00  0.00    +0.000 C 
BRANCH   9  10
ATOM     10  N   UNL     1       2.315   2.549  18.840  0.00  0.00    +0.000 NA
ATOM     11  C   UNL     1       1.507   3.779  18.894  0.00  0.00    +0.000 C 
ATOM     12  C   UNL     1       0.776   3.906  20.227  0.00  0.00    +0.000 C 
ATOM     13  C   UNL     1       1.731   3.824  21.410  0.00  0.00    +0.000 C 
ATOM     14  C   UNL     1       2.655   2.617  21.293  0.00  0.00    +0.000 C 
ATOM     15  C   UNL     1       3.317   2.530  19.917  0.00  0.00    +0.000 C 
BRANCH  13  16
ATOM     16  O   UNL     1       2.493   5.027  21.523  0.00  0.00    +0.000 OA
ATOM     17  H   UNL     1       2.649   5.210  22.464  0.00  0.00    +0.000 HD
ENDBRANCH  13  16
ENDBRANCH   9  10
ENDBRANCH   8   9
ENDBRANCH   6   8
ENDBRANCH   3   5
ENDBRANCH   2   3
ENDBRANCH   1   2
BRANCH   1  18
ATOM     18  C   UNL     1       3.100   6.859  17.457  0.00  0.00    +0.000 C 
BRANCH  18  19
ATOM     19  C   UNL     1       2.390   7.609  18.531  0.00  0.00    +0.000 A 
ATOM     20  N   UNL     1       2.244   7.208  19.777  0.00  0.00    +0.000 NA
ATOM     21  N   UNL     1       1.523   8.122  20.528  0.00  0.00    +0.000 NA
ATOM     22  C   UNL     1       1.178   9.177  19.822  0.00  0.00    +0.000 A 
ATOM     23  N   UNL     1       0.442  10.220  20.328  0.00  0.00    +0.000 N 
ATOM     24  C   UNL     1       0.153  11.394  19.657  0.00  0.00    +0.000 C 
ATOM     25  O   UNL     1       0.542  11.716  18.536  0.00  0.00    +0.000 OA
ATOM     26  S   UNL     1       1.689   9.130  18.200  0.00  0.00    +0.000 S 
ATOM     27  H   UNL     1       0.187  10.116  21.301  0.00  0.00    +0.000 HD
BRANCH  24  28
ATOM     28  C   UNL     1      -0.712  12.345  20.455  0.00  0.00    +0.000 C 
BRANCH  28  29
ATOM     29  C   UNL     1      -2.169  12.329  20.060  0.00  0.00    +0.000 A 
ATOM     30  C   UNL     1      -3.163  12.948  20.835  0.00  0.00    +0.000 A 
ATOM     31  C   UNL     1      -4.503  12.880  20.453  0.00  0.00    +0.000 A 
ATOM     32  C   UNL     1      -4.862  12.227  19.277  0.00  0.00    +0.000 A 
ATOM     33  C   UNL     1      -3.879  11.656  18.471  0.00  0.00    +0.000 A 
ATOM     34  C   UNL     1      -2.539  11.715  18.856  0.00  0.00    +0.000 A 
ENDBRANCH  28  29
ENDBRANCH  24  28
ENDBRANCH  18  19
ENDBRANCH   1  18
TORSDOF 11
ENDMDL
MODEL 9
REMARK VINA RESULT:      -6.9      3.910      9.676
REMARK  Name = 
REMARK  11 active torsions:
REMARK  status: ('A' for Active; 'I' for Inactive)
REMARK    1  A    between atoms: C_2  and  C_3
REMARK    2  A    between atoms: C_3  and  C_4
REMARK    3  A    between atoms: C_4  and  C_5
REMARK    4  A    between atoms: C_5  and  C_6
REMARK    5  A    between atoms: C_6  and  C_7
REMARK    6  A    between atoms: C_12  and  C_14
REMARK    7  A    between atoms: C_14  and  C_15
REMARK    8  A    between atoms: N_22  and  C_23
REMARK    9  A    between atoms: C_23  and  C_24
REMARK   10  A    between atoms: C_24  and  N_25
REMARK   11  A    between atoms: C_28  and  O_29
REMARK                            x       y       z     vdW  Elec       q    Type
REMARK                         _______ _______ _______ _____ _____    ______ ____
ROOT
ATOM      1  C   UNL     1       2.073   7.056  20.180  0.00  0.00    +0.000 C 
ENDROOT
BRANCH   1   2
ATOM      2  C   UNL     1       2.914   5.819  19.885  0.00  0.00    +0.000 C 
BRANCH   2   3
ATOM      3  C   UNL     1       2.063   4.635  19.446  0.00  0.00    +0.000 C 
BRANCH   3   5
ATOM      4  O   UNL     1       1.510   3.913  17.210  0.00  0.00    +0.000 OA
ATOM      5  C   UNL     1       2.368   4.209  18.033  0.00  0.00    +0.000 C 
ATOM      6  N   UNL     1       3.723   4.196  17.779  0.00  0.00    +0.000 N 
ATOM      7  H   UNL     1       4.338   4.666  18.431  0.00  0.00    +0.000 HD
BRANCH   6   8
ATOM      8  C   UNL     1       4.207   3.937  16.442  0.00  0.00    +0.000 C 
BRANCH   8   9
ATOM      9  C   UNL     1       4.961   5.141  15.862  0.00  0.00    +0.000 C 
BRANCH   9  10
ATOM     10  N   UNL     1       6.235   5.427  16.545  0.00  0.00    +0.000 NA
ATOM     11  C   UNL     1       6.716   4.261  17.304  0.00  0.00    +0.000 C 
ATOM     12  C   UNL     1       8.065   4.541  17.960  0.00  0.00    +0.000 C 
ATOM     13  C   UNL     1       8.025   5.786  18.835  0.00  0.00    +0.000 C 
ATOM     14  C   UNL     1       7.412   6.967  18.089  0.00  0.00    +0.000 C 
ATOM     15  C   UNL     1       6.086   6.600  17.422  0.00  0.00    +0.000 C 
BRANCH  13  16
ATOM     16  O   UNL     1       7.304   5.528  20.041  0.00  0.00    +0.000 OA
ATOM     17  H   UNL     1       7.566   4.658  20.382  0.00  0.00    +0.000 HD
ENDBRANCH  13  16
ENDBRANCH   9  10
ENDBRANCH   8   9
ENDBRANCH   6   8
ENDBRANCH   3   5
ENDBRANCH   2   3
ENDBRANCH   1   2
BRANCH   1  18
ATOM     18  C   UNL     1       2.028   8.041  19.006  0.00  0.00    +0.000 C 
BRANCH  18  19
ATOM     19  C   UNL     1       1.271   9.279  19.349  0.00  0.00    +0.000 A 
ATOM     20  N   UNL     1       0.949  10.238  18.506  0.00  0.00    +0.000 NA
ATOM     21  N   UNL     1       0.260  11.262  19.135  0.00  0.00    +0.000 NA
ATOM     22  C   UNL     1       0.074  11.018  20.414  0.00  0.00    +0.000 A 
ATOM     23  N   UNL     1      -0.566  11.884  21.266  0.00  0.00    +0.000 N 
ATOM     24  C   UNL     1      -0.879  11.621  22.586  0.00  0.00    +0.000 C 
ATOM     25  O   UNL     1      -0.687  10.570  23.194  0.00  0.00    +0.000 OA
ATOM     26  S   UNL     1       0.734   9.544  20.948  0.00  0.00    +0.000 S 
ATOM     27  H   UNL     1      -0.895  12.734  20.826  0.00  0.00    +0.000 HD
BRANCH  24  28
ATOM     28  C   UNL     1      -1.552  12.783  23.287  0.00  0.00    +0.000 C 
BRANCH  28  29
ATOM     29  C   UNL     1      -3.057  12.779  23.175  0.00  0.00    +0.000 A 
ATOM     30  C   UNL     1      -3.716  12.775  21.935  0.00  0.00    +0.000 A 
ATOM     31  C   UNL     1      -5.109  12.807  21.874  0.00  0.00    +0.000 A 
ATOM     32  C   UNL     1      -5.860  12.806  23.047  0.00  0.00    +0.000 A 
ATOM     33  C   UNL     1      -5.219  12.755  24.283  0.00  0.00    +0.000 A 
ATOM     34  C   UNL     1      -3.825  12.732  24.346  0.00  0.00    +0.000 A 
ENDBRANCH  28  29
ENDBRANCH  24  28
ENDBRANCH  18  19
ENDBRANCH   1  18
TORSDOF 11
ENDMDL
