MODEL 1
REMARK VINA RESULT:      -8.2      0.000      0.000
REMARK  Name = 
REMARK  14 active torsions:
REMARK  status: ('A' for Active; 'I' for Inactive)
REMARK    1  A    between atoms: C_1  and  O_2
REMARK    2  A    between atoms: O_2  and  C_3
REMARK    3  A    between atoms: C_6  and  N_7
REMARK    4  A    between atoms: N_7  and  C_8
REMARK    5  A    between atoms: C_8  and  C_9
REMARK    6  A    between atoms: C_9  and  N_10
REMARK    7  A    between atoms: C_11  and  C_13
REMARK    8  A    between atoms: C_13  and  C_14
REMARK    9  A    between atoms: C_13  and  N_18
REMARK   10  A    between atoms: C_14  and  C_15
REMARK   11  A    between atoms: C_15  and  C_16
REMARK   12  A    between atoms: C_15  and  C_17
REMARK   13  A    between atoms: C_19  and  C_21
REMARK   14  A    between atoms: C_24  and  C_25
REMARK                            x       y       z     vdW  Elec       q    Type
REMARK                         _______ _______ _______ _____ _____    ______ ____
ROOT
ATOM      1  N   UNL     1       5.717   4.220  17.973  0.00  0.00    +0.000 N 
ATOM      2  C   UNL     1       5.554   4.702  19.258  0.00  0.00    +0.000 C 
ATOM      3  O   UNL     1       6.454   5.284  19.866  0.00  0.00    +0.000 OA
ATOM      4  H   UNL     1       4.892   3.984  17.440  0.00  0.00    +0.000 HD
ENDROOT
BRANCH   1   5
ATOM      5  C   UNL     1       6.948   4.454  17.235  0.00  0.00    +0.000 C 
BRANCH   5   6
ATOM      6  C   UNL     1       6.945   5.805  16.503  0.00  0.00    +0.000 C 
BRANCH   6   7
ATOM      7  N   UNL     1       7.628   5.697  15.216  0.00  0.00    +0.000 N 
ATOM      8  H   UNL     1       7.941   6.598  14.861  0.00  0.00    +0.000 HD
BRANCH   7  12
ATOM      9  C   UNL     1       6.047   3.249  12.151  0.00  0.00    +0.000 A 
ATOM     10  C   UNL     1       7.165   4.049  11.932  0.00  0.00    +0.000 A 
ATOM     11  C   UNL     1       7.668   4.858  12.955  0.00  0.00    +0.000 A 
ATOM     12  C   UNL     1       7.035   4.930  14.203  0.00  0.00    +0.000 A 
ATOM     13  C   UNL     1       5.911   4.122  14.406  0.00  0.00    +0.000 A 
ATOM     14  C   UNL     1       5.412   3.295  13.389  0.00  0.00    +0.000 A 
BRANCH   9  16
ATOM     15  C   UNL     1       5.870   1.082  11.236  0.00  0.00    +0.000 C 
ATOM     16  O   UNL     1       5.656   2.481  11.088  0.00  0.00    +0.000 OA
ENDBRANCH   9  16
ENDBRANCH   7  12
ENDBRANCH   6   7
ENDBRANCH   5   6
ENDBRANCH   1   5
BRANCH   2  17
ATOM     17  C   UNL     1       4.170   4.430  19.898  0.00  0.00    +0.000 C 
BRANCH  17  18
ATOM     18  N   UNL     1       3.392   5.669  19.933  0.00  0.00    +0.000 N 
ATOM     19  C   UNL     1       3.076   6.354  18.778  0.00  0.00    +0.000 C 
ATOM     20  O   UNL     1       3.424   5.980  17.665  0.00  0.00    +0.000 OA
ATOM     21  H   UNL     1       3.119   6.019  20.843  0.00  0.00    +0.000 HD
BRANCH  19  22
ATOM     22  C   UNL     1       2.311   7.616  18.921  0.00  0.00    +0.000 A 
ATOM     23  C   UNL     1       1.772   7.922  20.177  0.00  0.00    +0.000 A 
ATOM     24  C   UNL     1       1.078   9.117  20.374  0.00  0.00    +0.000 A 
ATOM     25  C   UNL     1       0.926  10.026  19.321  0.00  0.00    +0.000 A 
ATOM     26  C   UNL     1       0.207  11.327  19.525  0.00  0.00    +0.000 C 
ATOM     27  C   UNL     1       1.475   9.719  18.068  0.00  0.00    +0.000 A 
ATOM     28  C   UNL     1       2.163   8.519  17.865  0.00  0.00    +0.000 A 
ENDBRANCH  19  22
ENDBRANCH  17  18
BRANCH  17  29
ATOM     29  C   UNL     1       3.383   3.269  19.258  0.00  0.00    +0.000 C 
BRANCH  29  30
ATOM     30  C   UNL     1       1.887   3.162  19.624  0.00  0.00    +0.000 C 
ATOM     31  C   UNL     1       1.087   2.258  18.688  0.00  0.00    +0.000 C 
ATOM     32  C   UNL     1       1.760   2.629  21.055  0.00  0.00    +0.000 C 
ENDBRANCH  29  30
ENDBRANCH  17  29
ENDBRANCH   2  17
TORSDOF 10
ENDMDL
MODEL 2
REMARK VINA RESULT:      -8.2      4.212      6.295
REMARK  Name = 
REMARK  14 active torsions:
REMARK  status: ('A' for Active; 'I' for Inactive)
REMARK    1  A    between atoms: C_1  and  O_2
REMARK    2  A    between atoms: O_2  and  C_3
REMARK    3  A    between atoms: C_6  and  N_7
REMARK    4  A    between atoms: N_7  and  C_8
REMARK    5  A    between atoms: C_8  and  C_9
REMARK    6  A    between atoms: C_9  and  N_10
REMARK    7  A    between atoms: C_11  and  C_13
REMARK    8  A    between atoms: C_13  and  C_14
REMARK    9  A    between atoms: C_13  and  N_18
REMARK   10  A    between atoms: C_14  and  C_15
REMARK   11  A    between atoms: C_15  and  C_16
REMARK   12  A    between atoms: C_15  and  C_17
REMARK   13  A    between atoms: C_19  and  C_21
REMARK   14  A    between atoms: C_24  and  C_25
REMARK                            x       y       z     vdW  Elec       q    Type
REMARK                         _______ _______ _______ _____ _____    ______ ____
ROOT
ATOM      1  N   UNL     1       6.319   6.282  17.862  0.00  0.00    +0.000 N 
ATOM      2  C   UNL     1       5.774   5.243  18.592  0.00  0.00    +0.000 C 
ATOM      3  O   UNL     1       6.454   4.522  19.325  0.00  0.00    +0.000 OA
ATOM      4  H   UNL     1       5.696   6.983  17.486  0.00  0.00    +0.000 HD
ENDROOT
BRANCH   1   5
ATOM      5  C   UNL     1       7.724   6.634  17.989  0.00  0.00    +0.000 C 
BRANCH   5   6
ATOM      6  C   UNL     1       7.969   8.141  17.816  0.00  0.00    +0.000 C 
BRANCH   6   7
ATOM      7  N   UNL     1       8.699   8.680  18.962  0.00  0.00    +0.000 N 
ATOM      8  H   UNL     1       8.262   8.444  19.851  0.00  0.00    +0.000 HD
BRANCH   7  12
ATOM      9  C   UNL     1       9.671  12.795  18.884  0.00  0.00    +0.000 A 
ATOM     10  C   UNL     1       8.962  12.200  17.843  0.00  0.00    +0.000 A 
ATOM     11  C   UNL     1       8.658  10.836  17.883  0.00  0.00    +0.000 A 
ATOM     12  C   UNL     1       9.100  10.022  18.934  0.00  0.00    +0.000 A 
ATOM     13  C   UNL     1       9.813  10.635  19.971  0.00  0.00    +0.000 A 
ATOM     14  C   UNL     1      10.107  12.006  19.945  0.00  0.00    +0.000 A 
BRANCH   9  16
ATOM     15  C   UNL     1       8.756  14.910  18.381  0.00  0.00    +0.000 C 
ATOM     16  O   UNL     1       9.892  14.138  18.751  0.00  0.00    +0.000 OA
ENDBRANCH   9  16
ENDBRANCH   7  12
ENDBRANCH   6   7
ENDBRANCH   5   6
ENDBRANCH   1   5
BRANCH   2  17
ATOM     17  C   UNL     1       4.254   5.022  18.401  0.00  0.00    +0.000 C 
BRANCH  17  18
ATOM     18  N   UNL     1       3.564   6.313  18.404  0.00  0.00    +0.000 N 
ATOM     19  C   UNL     1       2.648   6.638  19.383  0.00  0.00    +0.000 C 
ATOM     20  O   UNL     1       2.351   5.878  20.297  0.00  0.00    +0.000 OA
ATOM     21  H   UNL     1       3.765   6.947  17.641  0.00  0.00    +0.000 HD
BRANCH  19  22
ATOM     22  C   UNL     1       1.979   7.957  19.280  0.00  0.00    +0.000 A 
ATOM     23  C   UNL     1       1.348   8.467  20.421  0.00  0.00    +0.000 A 
ATOM     24  C   UNL     1       0.738   9.723  20.387  0.00  0.00    +0.000 A 
ATOM     25  C   UNL     1       0.764  10.487  19.215  0.00  0.00    +0.000 A 
ATOM     26  C   UNL     1       0.137  11.850  19.173  0.00  0.00    +0.000 C 
ATOM     27  C   UNL     1       1.404   9.976  18.078  0.00  0.00    +0.000 A 
ATOM     28  C   UNL     1       2.008   8.715  18.106  0.00  0.00    +0.000 A 
ENDBRANCH  19  22
ENDBRANCH  17  18
BRANCH  17  29
ATOM     29  C   UNL     1       3.878   4.168  17.173  0.00  0.00    +0.000 C 
BRANCH  29  30
ATOM     30  C   UNL     1       2.966   2.949  17.431  0.00  0.00    +0.000 C 
ATOM     31  C   UNL     1       3.530   1.962  18.453  0.00  0.00    +0.000 C 
ATOM     32  C   UNL     1       1.600   3.442  17.922  0.00  0.00    +0.000 C 
ENDBRANCH  29  30
ENDBRANCH  17  29
ENDBRANCH   2  17
TORSDOF 10
ENDMDL
MODEL 3
REMARK VINA RESULT:      -8.1      1.569      2.368
REMARK  Name = 
REMARK  14 active torsions:
REMARK  status: ('A' for Active; 'I' for Inactive)
REMARK    1  A    between atoms: C_1  and  O_2
REMARK    2  A    between atoms: O_2  and  C_3
REMARK    3  A    between atoms: C_6  and  N_7
REMARK    4  A    between atoms: N_7  and  C_8
REMARK    5  A    between atoms: C_8  and  C_9
REMARK    6  A    between atoms: C_9  and  N_10
REMARK    7  A    between atoms: C_11  and  C_13
REMARK    8  A    between atoms: C_13  and  C_14
REMARK    9  A    between atoms: C_13  and  N_18
REMARK   10  A    between atoms: C_14  and  C_15
REMARK   11  A    between atoms: C_15  and  C_16
REMARK   12  A    between atoms: C_15  and  C_17
REMARK   13  A    between atoms: C_19  and  C_21
REMARK   14  A    between atoms: C_24  and  C_25
REMARK                            x       y       z     vdW  Elec       q    Type
REMARK                         _______ _______ _______ _____ _____    ______ ____
ROOT
ATOM      1  N   UNL     1       4.846   6.475  17.617  0.00  0.00    +0.000 N 
ATOM      2  C   UNL     1       4.446   5.865  18.791  0.00  0.00    +0.000 C 
ATOM      3  O   UNL     1       5.250   5.432  19.618  0.00  0.00    +0.000 OA
ATOM      4  H   UNL     1       4.169   7.025  17.107  0.00  0.00    +0.000 HD
ENDROOT
BRANCH   1   5
ATOM      5  C   UNL     1       6.252   6.716  17.338  0.00  0.00    +0.000 C 
BRANCH   5   6
ATOM      6  C   UNL     1       6.968   5.461  16.812  0.00  0.00    +0.000 C 
BRANCH   6   7
ATOM      7  N   UNL     1       7.489   5.690  15.466  0.00  0.00    +0.000 N 
ATOM      8  H   UNL     1       7.504   6.676  15.214  0.00  0.00    +0.000 HD
BRANCH   7  12
ATOM      9  C   UNL     1       5.814   3.470  12.279  0.00  0.00    +0.000 A 
ATOM     10  C   UNL     1       5.182   3.546  13.517  0.00  0.00    +0.000 A 
ATOM     11  C   UNL     1       5.756   4.277  14.562  0.00  0.00    +0.000 A 
ATOM     12  C   UNL     1       6.999   4.905  14.413  0.00  0.00    +0.000 A 
ATOM     13  C   UNL     1       7.622   4.818  13.163  0.00  0.00    +0.000 A 
ATOM     14  C   UNL     1       7.044   4.099  12.106  0.00  0.00    +0.000 A 
BRANCH   9  16
ATOM     15  C   UNL     1       3.801   3.131  11.097  0.00  0.00    +0.000 C 
ATOM     16  O   UNL     1       5.152   2.748  11.325  0.00  0.00    +0.000 OA
ENDBRANCH   9  16
ENDBRANCH   7  12
ENDBRANCH   6   7
ENDBRANCH   5   6
ENDBRANCH   1   5
BRANCH   2  17
ATOM     17  C   UNL     1       2.915   5.729  18.980  0.00  0.00    +0.000 C 
BRANCH  17  18
ATOM     18  N   UNL     1       2.353   7.018  19.384  0.00  0.00    +0.000 N 
ATOM     19  C   UNL     1       1.611   7.150  20.539  0.00  0.00    +0.000 C 
ATOM     20  O   UNL     1       1.373   6.212  21.290  0.00  0.00    +0.000 OA
ATOM     21  H   UNL     1       2.505   7.804  18.764  0.00  0.00    +0.000 HD
BRANCH  19  22
ATOM     22  C   UNL     1       1.056   8.492  20.844  0.00  0.00    +0.000 A 
ATOM     23  C   UNL     1       0.979   9.425  19.804  0.00  0.00    +0.000 A 
ATOM     24  C   UNL     1       0.428  10.689  20.029  0.00  0.00    +0.000 A 
ATOM     25  C   UNL     1      -0.063  11.027  21.295  0.00  0.00    +0.000 A 
ATOM     26  C   UNL     1      -0.684  12.370  21.545  0.00  0.00    +0.000 C 
ATOM     27  C   UNL     1       0.009  10.086  22.331  0.00  0.00    +0.000 A 
ATOM     28  C   UNL     1       0.567   8.823  22.111  0.00  0.00    +0.000 A 
ENDBRANCH  19  22
ENDBRANCH  17  18
BRANCH  17  29
ATOM     29  C   UNL     1       2.169   5.123  17.774  0.00  0.00    +0.000 C 
BRANCH  29  30
ATOM     30  C   UNL     1       1.725   3.651  17.904  0.00  0.00    +0.000 C 
ATOM     31  C   UNL     1       2.831   2.643  17.596  0.00  0.00    +0.000 C 
ATOM     32  C   UNL     1       1.216   3.406  19.329  0.00  0.00    +0.000 C 
ENDBRANCH  29  30
ENDBRANCH  17  29
ENDBRANCH   2  17
TORSDOF 10
ENDMDL
MODEL 4
REMARK VINA RESULT:      -8.1      4.356      6.656
REMARK  Name = 
REMARK  14 active torsions:
REMARK  status: ('A' for Active; 'I' for Inactive)
REMARK    1  A    between atoms: C_1  and  O_2
REMARK    2  A    between atoms: O_2  and  C_3
REMARK    3  A    between atoms: C_6  and  N_7
REMARK    4  A    between atoms: N_7  and  C_8
REMARK    5  A    between atoms: C_8  and  C_9
REMARK    6  A    between atoms: C_9  and  N_10
REMARK    7  A    between atoms: C_11  and  C_13
REMARK    8  A    between atoms: C_13  and  C_14
REMARK    9  A    between atoms: C_13  and  N_18
REMARK   10  A    between atoms: C_14  and  C_15
REMARK   11  A    between atoms: C_15  and  C_16
REMARK   12  A    between atoms: C_15  and  C_17
REMARK   13  A    between atoms: C_19  and  C_21
REMARK   14  A    between atoms: C_24  and  C_25
REMARK                            x       y       z     vdW  Elec       q    Type
REMARK                         _______ _______ _______ _____ _____    ______ ____
ROOT
ATOM      1  N   UNL     1       6.441   6.520  17.709  0.00  0.00    +0.000 N 
ATOM      2  C   UNL     1       6.210   5.215  18.100  0.00  0.00    +0.000 C 
ATOM      3  O   UNL     1       7.110   4.376  18.171  0.00  0.00    +0.000 OA
ATOM      4  H   UNL     1       5.733   7.214  17.907  0.00  0.00    +0.000 HD
ENDROOT
BRANCH   1   5
ATOM      5  C   UNL     1       7.789   6.996  17.440  0.00  0.00    +0.000 C 
BRANCH   5   6
ATOM      6  C   UNL     1       8.227   8.097  18.419  0.00  0.00    +0.000 C 
BRANCH   6   7
ATOM      7  N   UNL     1       8.239   9.400  17.757  0.00  0.00    +0.000 N 
ATOM      8  H   UNL     1       8.544   9.344  16.787  0.00  0.00    +0.000 HD
BRANCH   7  12
ATOM      9  C   UNL     1      10.257  12.546  19.736  0.00  0.00    +0.000 A 
ATOM     10  C   UNL     1      10.133  11.288  20.320  0.00  0.00    +0.000 A 
ATOM     11  C   UNL     1       9.454  10.263  19.653  0.00  0.00    +0.000 A 
ATOM     12  C   UNL     1       8.837  10.483  18.415  0.00  0.00    +0.000 A 
ATOM     13  C   UNL     1       8.969  11.754  17.844  0.00  0.00    +0.000 A 
ATOM     14  C   UNL     1       9.663  12.782  18.499  0.00  0.00    +0.000 A 
BRANCH   9  16
ATOM     15  C   UNL     1      10.172  14.354  21.249  0.00  0.00    +0.000 C 
ATOM     16  O   UNL     1      10.960  13.465  20.465  0.00  0.00    +0.000 OA
ENDBRANCH   9  16
ENDBRANCH   7  12
ENDBRANCH   6   7
ENDBRANCH   5   6
ENDBRANCH   1   5
BRANCH   2  17
ATOM     17  C   UNL     1       4.733   4.867  18.409  0.00  0.00    +0.000 C 
BRANCH  17  18
ATOM     18  N   UNL     1       3.938   6.093  18.459  0.00  0.00    +0.000 N 
ATOM     19  C   UNL     1       2.953   6.275  19.408  0.00  0.00    +0.000 C 
ATOM     20  O   UNL     1       2.679   5.433  20.255  0.00  0.00    +0.000 OA
ATOM     21  H   UNL     1       4.120   6.793  17.750  0.00  0.00    +0.000 HD
BRANCH  19  22
ATOM     22  C   UNL     1       2.180   7.540  19.356  0.00  0.00    +0.000 A 
ATOM     23  C   UNL     1       2.054   8.185  18.120  0.00  0.00    +0.000 A 
ATOM     24  C   UNL     1       1.303   9.357  18.009  0.00  0.00    +0.000 A 
ATOM     25  C   UNL     1       0.659   9.889  19.132  0.00  0.00    +0.000 A 
ATOM     26  C   UNL     1      -0.174  11.132  19.022  0.00  0.00    +0.000 C 
ATOM     27  C   UNL     1       0.781   9.235  20.365  0.00  0.00    +0.000 A 
ATOM     28  C   UNL     1       1.539   8.066  20.481  0.00  0.00    +0.000 A 
ENDBRANCH  19  22
ENDBRANCH  17  18
BRANCH  17  29
ATOM     29  C   UNL     1       4.112   3.811  17.472  0.00  0.00    +0.000 C 
BRANCH  29  30
ATOM     30  C   UNL     1       3.687   2.475  18.119  0.00  0.00    +0.000 C 
ATOM     31  C   UNL     1       4.137   2.323  19.571  0.00  0.00    +0.000 C 
ATOM     32  C   UNL     1       2.160   2.355  18.060  0.00  0.00    +0.000 C 
ENDBRANCH  29  30
ENDBRANCH  17  29
ENDBRANCH   2  17
TORSDOF 10
ENDMDL
MODEL 5
REMARK VINA RESULT:      -8.1      4.390      6.605
REMARK  Name = 
REMARK  14 active torsions:
REMARK  status: ('A' for Active; 'I' for Inactive)
REMARK    1  A    between atoms: C_1  and  O_2
REMARK    2  A    between atoms: O_2  and  C_3
REMARK    3  A    between atoms: C_6  and  N_7
REMARK    4  A    between atoms: N_7  and  C_8
REMARK    5  A    between atoms: C_8  and  C_9
REMARK    6  A    between atoms: C_9  and  N_10
REMARK    7  A    between atoms: C_11  and  C_13
REMARK    8  A    between atoms: C_13  and  C_14
REMARK    9  A    between atoms: C_13  and  N_18
REMARK   10  A    between atoms: C_14  and  C_15
REMARK   11  A    between atoms: C_15  and  C_16
REMARK   12  A    between atoms: C_15  and  C_17
REMARK   13  A    between atoms: C_19  and  C_21
REMARK   14  A    between atoms: C_24  and  C_25
REMARK                            x       y       z     vdW  Elec       q    Type
REMARK                         _______ _______ _______ _____ _____    ______ ____
ROOT
ATOM      1  N   UNL     1       6.457   6.550  17.624  0.00  0.00    +0.000 N 
ATOM      2  C   UNL     1       6.256   5.245  18.034  0.00  0.00    +0.000 C 
ATOM      3  O   UNL     1       7.181   4.442  18.160  0.00  0.00    +0.000 OA
ATOM      4  H   UNL     1       5.717   7.221  17.778  0.00  0.00    +0.000 HD
ENDROOT
BRANCH   1   5
ATOM      5  C   UNL     1       7.797   7.068  17.401  0.00  0.00    +0.000 C 
BRANCH   5   6
ATOM      6  C   UNL     1       8.191   8.138  18.431  0.00  0.00    +0.000 C 
BRANCH   6   7
ATOM      7  N   UNL     1       8.250   9.458  17.807  0.00  0.00    +0.000 N 
ATOM      8  H   UNL     1       8.490   9.414  16.819  0.00  0.00    +0.000 HD
BRANCH   7  12
ATOM      9  C   UNL     1      10.174  12.662  19.787  0.00  0.00    +0.000 A 
ATOM     10  C   UNL     1       9.579  12.836  18.540  0.00  0.00    +0.000 A 
ATOM     11  C   UNL     1       8.955  11.762  17.898  0.00  0.00    +0.000 A 
ATOM     12  C   UNL     1       8.958  10.478  18.457  0.00  0.00    +0.000 A 
ATOM     13  C   UNL     1       9.562  10.319  19.709  0.00  0.00    +0.000 A 
ATOM     14  C   UNL     1      10.175  11.396  20.367  0.00  0.00    +0.000 A 
BRANCH   9  16
ATOM     15  C   UNL     1       9.912  14.488  21.257  0.00  0.00    +0.000 C 
ATOM     16  O   UNL     1      10.734  13.784  20.333  0.00  0.00    +0.000 OA
ENDBRANCH   9  16
ENDBRANCH   7  12
ENDBRANCH   6   7
ENDBRANCH   5   6
ENDBRANCH   1   5
BRANCH   2  17
ATOM     17  C   UNL     1       4.781   4.850  18.291  0.00  0.00    +0.000 C 
BRANCH  17  18
ATOM     18  N   UNL     1       3.946   6.052  18.316  0.00  0.00    +0.000 N 
ATOM     19  C   UNL     1       3.018   6.264  19.314  0.00  0.00    +0.000 C 
ATOM     20  O   UNL     1       2.830   5.471  20.229  0.00  0.00    +0.000 OA
ATOM     21  H   UNL     1       4.057   6.708  17.553  0.00  0.00    +0.000 HD
BRANCH  19  22
ATOM     22  C   UNL     1       2.198   7.497  19.233  0.00  0.00    +0.000 A 
ATOM     23  C   UNL     1       1.614   7.979  20.410  0.00  0.00    +0.000 A 
ATOM     24  C   UNL     1       0.865   9.158  20.394  0.00  0.00    +0.000 A 
ATOM     25  C   UNL     1       0.704   9.874  19.202  0.00  0.00    +0.000 A 
ATOM     26  C   UNL     1      -0.073  11.157  19.176  0.00  0.00    +0.000 C 
ATOM     27  C   UNL     1       1.298   9.391  18.028  0.00  0.00    +0.000 A 
ATOM     28  C   UNL     1       2.041   8.206  18.039  0.00  0.00    +0.000 A 
ENDBRANCH  19  22
ENDBRANCH  17  18
BRANCH  17  29
ATOM     29  C   UNL     1       4.226   3.779  17.331  0.00  0.00    +0.000 C 
BRANCH  29  30
ATOM     30  C   UNL     1       3.537   2.558  17.979  0.00  0.00    +0.000 C 
ATOM     31  C   UNL     1       4.002   2.274  19.407  0.00  0.00    +0.000 C 
ATOM     32  C   UNL     1       2.021   2.787  17.989  0.00  0.00    +0.000 C 
ENDBRANCH  29  30
ENDBRANCH  17  29
ENDBRANCH   2  17
TORSDOF 10
ENDMDL
MODEL 6
REMARK VINA RESULT:      -8.1      3.865      6.068
REMARK  Name = 
REMARK  14 active torsions:
REMARK  status: ('A' for Active; 'I' for Inactive)
REMARK    1  A    between atoms: C_1  and  O_2
REMARK    2  A    between atoms: O_2  and  C_3
REMARK    3  A    between atoms: C_6  and  N_7
REMARK    4  A    between atoms: N_7  and  C_8
REMARK    5  A    between atoms: C_8  and  C_9
REMARK    6  A    between atoms: C_9  and  N_10
REMARK    7  A    between atoms: C_11  and  C_13
REMARK    8  A    between atoms: C_13  and  C_14
REMARK    9  A    between atoms: C_13  and  N_18
REMARK   10  A    between atoms: C_14  and  C_15
REMARK   11  A    between atoms: C_15  and  C_16
REMARK   12  A    between atoms: C_15  and  C_17
REMARK   13  A    between atoms: C_19  and  C_21
REMARK   14  A    between atoms: C_24  and  C_25
REMARK                            x       y       z     vdW  Elec       q    Type
REMARK                         _______ _______ _______ _____ _____    ______ ____
ROOT
ATOM      1  N   UNL     1       6.059   5.819  17.344  0.00  0.00    +0.000 N 
ATOM      2  C   UNL     1       5.619   4.862  18.239  0.00  0.00    +0.000 C 
ATOM      3  O   UNL     1       6.394   4.186  18.918  0.00  0.00    +0.000 OA
ATOM      4  H   UNL     1       5.396   6.504  17.009  0.00  0.00    +0.000 HD
ENDROOT
BRANCH   1   5
ATOM      5  C   UNL     1       7.472   6.138  17.221  0.00  0.00    +0.000 C 
BRANCH   5   6
ATOM      6  C   UNL     1       7.899   7.281  18.155  0.00  0.00    +0.000 C 
BRANCH   6   7
ATOM      7  N   UNL     1       7.767   8.573  17.484  0.00  0.00    +0.000 N 
ATOM      8  H   UNL     1       7.919   8.510  16.480  0.00  0.00    +0.000 HD
BRANCH   7  12
ATOM      9  C   UNL     1       9.528  12.027  19.173  0.00  0.00    +0.000 A 
ATOM     10  C   UNL     1       8.768  12.100  18.008  0.00  0.00    +0.000 A 
ATOM     11  C   UNL     1       8.202  10.945  17.460  0.00  0.00    +0.000 A 
ATOM     12  C   UNL     1       8.424   9.684  18.029  0.00  0.00    +0.000 A 
ATOM     13  C   UNL     1       9.191   9.629  19.198  0.00  0.00    +0.000 A 
ATOM     14  C   UNL     1       9.749  10.786  19.763  0.00  0.00    +0.000 A 
BRANCH   9  16
ATOM     15  C   UNL     1       9.471  14.380  19.012  0.00  0.00    +0.000 C 
ATOM     16  O   UNL     1      10.014  13.220  19.632  0.00  0.00    +0.000 OA
ENDBRANCH   9  16
ENDBRANCH   7  12
ENDBRANCH   6   7
ENDBRANCH   5   6
ENDBRANCH   1   5
BRANCH   2  17
ATOM     17  C   UNL     1       4.084   4.671  18.306  0.00  0.00    +0.000 C 
BRANCH  17  18
ATOM     18  N   UNL     1       3.429   5.976  18.392  0.00  0.00    +0.000 N 
ATOM     19  C   UNL     1       2.682   6.336  19.495  0.00  0.00    +0.000 C 
ATOM     20  O   UNL     1       2.516   5.597  20.458  0.00  0.00    +0.000 OA
ATOM     21  H   UNL     1       3.521   6.595  17.596  0.00  0.00    +0.000 HD
BRANCH  19  22
ATOM     22  C   UNL     1       2.031   7.668  19.473  0.00  0.00    +0.000 A 
ATOM     23  C   UNL     1       1.974   8.354  18.254  0.00  0.00    +0.000 A 
ATOM     24  C   UNL     1       1.336   9.594  18.171  0.00  0.00    +0.000 A 
ATOM     25  C   UNL     1       0.737  10.154  19.305  0.00  0.00    +0.000 A 
ATOM     26  C   UNL     1       0.024  11.472  19.225  0.00  0.00    +0.000 C 
ATOM     27  C   UNL     1       0.790   9.460  20.521  0.00  0.00    +0.000 A 
ATOM     28  C   UNL     1       1.435   8.222  20.609  0.00  0.00    +0.000 A 
ENDBRANCH  19  22
ENDBRANCH  17  18
BRANCH  17  29
ATOM     29  C   UNL     1       3.495   3.800  17.178  0.00  0.00    +0.000 C 
BRANCH  29  30
ATOM     30  C   UNL     1       2.709   2.545  17.611  0.00  0.00    +0.000 C 
ATOM     31  C   UNL     1       3.511   1.589  18.492  0.00  0.00    +0.000 C 
ATOM     32  C   UNL     1       1.452   2.980  18.372  0.00  0.00    +0.000 C 
ENDBRANCH  29  30
ENDBRANCH  17  29
ENDBRANCH   2  17
TORSDOF 10
ENDMDL
MODEL 7
REMARK VINA RESULT:      -8.0      0.821      1.506
REMARK  Name = 
REMARK  14 active torsions:
REMARK  status: ('A' for Active; 'I' for Inactive)
REMARK    1  A    between atoms: C_1  and  O_2
REMARK    2  A    between atoms: O_2  and  C_3
REMARK    3  A    between atoms: C_6  and  N_7
REMARK    4  A    between atoms: N_7  and  C_8
REMARK    5  A    between atoms: C_8  and  C_9
REMARK    6  A    between atoms: C_9  and  N_10
REMARK    7  A    between atoms: C_11  and  C_13
REMARK    8  A    between atoms: C_13  and  C_14
REMARK    9  A    between atoms: C_13  and  N_18
REMARK   10  A    between atoms: C_14  and  C_15
REMARK   11  A    between atoms: C_15  and  C_16
REMARK   12  A    between atoms: C_15  and  C_17
REMARK   13  A    between atoms: C_19  and  C_21
REMARK   14  A    between atoms: C_24  and  C_25
REMARK                            x       y       z     vdW  Elec       q    Type
REMARK                         _______ _______ _______ _____ _____    ______ ____
ROOT
ATOM      1  N   UNL     1       5.815   5.838  18.942  0.00  0.00    +0.000 N 
ATOM      2  C   UNL     1       5.272   4.571  19.041  0.00  0.00    +0.000 C 
ATOM      3  O   UNL     1       5.716   3.610  18.411  0.00  0.00    +0.000 OA
ATOM      4  H   UNL     1       5.582   6.517  19.653  0.00  0.00    +0.000 HD
ENDROOT
BRANCH   1   5
ATOM      5  C   UNL     1       7.006   6.084  18.145  0.00  0.00    +0.000 C 
BRANCH   5   6
ATOM      6  C   UNL     1       6.671   6.496  16.702  0.00  0.00    +0.000 C 
BRANCH   6   7
ATOM      7  N   UNL     1       7.596   5.871  15.759  0.00  0.00    +0.000 N 
ATOM      8  H   UNL     1       8.290   6.524  15.401  0.00  0.00    +0.000 HD
BRANCH   7  12
ATOM      9  C   UNL     1       5.822   3.606  12.660  0.00  0.00    +0.000 A 
ATOM     10  C   UNL     1       5.228   3.701  13.915  0.00  0.00    +0.000 A 
ATOM     11  C   UNL     1       5.835   4.448  14.930  0.00  0.00    +0.000 A 
ATOM     12  C   UNL     1       7.074   5.071  14.734  0.00  0.00    +0.000 A 
ATOM     13  C   UNL     1       7.659   4.963  13.468  0.00  0.00    +0.000 A 
ATOM     14  C   UNL     1       7.048   4.229  12.440  0.00  0.00    +0.000 A 
BRANCH   9  16
ATOM     15  C   UNL     1       5.778   1.681  11.297  0.00  0.00    +0.000 C 
ATOM     16  O   UNL     1       5.131   2.870  11.737  0.00  0.00    +0.000 OA
ENDBRANCH   9  16
ENDBRANCH   7  12
ENDBRANCH   6   7
ENDBRANCH   5   6
ENDBRANCH   1   5
BRANCH   2  17
ATOM     17  C   UNL     1       4.041   4.447  19.972  0.00  0.00    +0.000 C 
BRANCH  17  18
ATOM     18  N   UNL     1       3.348   5.733  20.045  0.00  0.00    +0.000 N 
ATOM     19  C   UNL     1       2.797   6.319  18.924  0.00  0.00    +0.000 C 
ATOM     20  O   UNL     1       2.856   5.813  17.810  0.00  0.00    +0.000 OA
ATOM     21  H   UNL     1       3.313   6.191  20.948  0.00  0.00    +0.000 HD
BRANCH  19  22
ATOM     22  C   UNL     1       2.143   7.639  19.095  0.00  0.00    +0.000 A 
ATOM     23  C   UNL     1       2.039   8.474  17.976  0.00  0.00    +0.000 A 
ATOM     24  C   UNL     1       1.397   9.710  18.075  0.00  0.00    +0.000 A 
ATOM     25  C   UNL     1       0.840  10.118  19.292  0.00  0.00    +0.000 A 
ATOM     26  C   UNL     1       0.122  11.431  19.407  0.00  0.00    +0.000 C 
ATOM     27  C   UNL     1       0.939   9.275  20.408  0.00  0.00    +0.000 A 
ATOM     28  C   UNL     1       1.589   8.041  20.313  0.00  0.00    +0.000 A 
ENDBRANCH  19  22
ENDBRANCH  17  18
BRANCH  17  29
ATOM     29  C   UNL     1       3.083   3.291  19.622  0.00  0.00    +0.000 C 
BRANCH  29  30
ATOM     30  C   UNL     1       1.650   3.384  20.186  0.00  0.00    +0.000 C 
ATOM     31  C   UNL     1       0.600   2.687  19.322  0.00  0.00    +0.000 C 
ATOM     32  C   UNL     1       1.625   2.766  21.589  0.00  0.00    +0.000 C 
ENDBRANCH  29  30
ENDBRANCH  17  29
ENDBRANCH   2  17
TORSDOF 10
ENDMDL
MODEL 8
REMARK VINA RESULT:      -8.0      1.449      2.133
REMARK  Name = 
REMARK  14 active torsions:
REMARK  status: ('A' for Active; 'I' for Inactive)
REMARK    1  A    between atoms: C_1  and  O_2
REMARK    2  A    between atoms: O_2  and  C_3
REMARK    3  A    between atoms: C_6  and  N_7
REMARK    4  A    between atoms: N_7  and  C_8
REMARK    5  A    between atoms: C_8  and  C_9
REMARK    6  A    between atoms: C_9  and  N_10
REMARK    7  A    between atoms: C_11  and  C_13
REMARK    8  A    between atoms: C_13  and  C_14
REMARK    9  A    between atoms: C_13  and  N_18
REMARK   10  A    between atoms: C_14  and  C_15
REMARK   11  A    between atoms: C_15  and  C_16
REMARK   12  A    between atoms: C_15  and  C_17
REMARK   13  A    between atoms: C_19  and  C_21
REMARK   14  A    between atoms: C_24  and  C_25
REMARK                            x       y       z     vdW  Elec       q    Type
REMARK                         _______ _______ _______ _____ _____    ______ ____
ROOT
ATOM      1  N   UNL     1       5.638   5.426  19.085  0.00  0.00    +0.000 N 
ATOM      2  C   UNL     1       4.684   6.095  18.341  0.00  0.00    +0.000 C 
ATOM      3  O   UNL     1       4.980   6.857  17.419  0.00  0.00    +0.000 OA
ATOM      4  H   UNL     1       5.344   4.639  19.647  0.00  0.00    +0.000 HD
ENDROOT
BRANCH   1   5
ATOM      5  C   UNL     1       7.051   5.525  18.757  0.00  0.00    +0.000 C 
BRANCH   5   6
ATOM      6  C   UNL     1       7.440   4.633  17.567  0.00  0.00    +0.000 C 
BRANCH   6   7
ATOM      7  N   UNL     1       7.473   5.411  16.330  0.00  0.00    +0.000 N 
ATOM      8  H   UNL     1       7.198   6.381  16.469  0.00  0.00    +0.000 HD
BRANCH   7  12
ATOM      9  C   UNL     1       5.866   3.637  12.843  0.00  0.00    +0.000 A 
ATOM     10  C   UNL     1       7.060   4.353  12.805  0.00  0.00    +0.000 A 
ATOM     11  C   UNL     1       7.570   4.940  13.967  0.00  0.00    +0.000 A 
ATOM     12  C   UNL     1       6.876   4.873  15.181  0.00  0.00    +0.000 A 
ATOM     13  C   UNL     1       5.677   4.152  15.202  0.00  0.00    +0.000 A 
ATOM     14  C   UNL     1       5.167   3.547  14.044  0.00  0.00    +0.000 A 
BRANCH   9  16
ATOM     15  C   UNL     1       4.094   3.243  11.337  0.00  0.00    +0.000 C 
ATOM     16  O   UNL     1       5.472   3.087  11.654  0.00  0.00    +0.000 OA
ENDBRANCH   9  16
ENDBRANCH   7  12
ENDBRANCH   6   7
ENDBRANCH   5   6
ENDBRANCH   1   5
BRANCH   2  17
ATOM     17  C   UNL     1       3.217   5.849  18.768  0.00  0.00    +0.000 C 
BRANCH  17  18
ATOM     18  N   UNL     1       2.493   7.121  18.797  0.00  0.00    +0.000 N 
ATOM     19  C   UNL     1       1.861   7.563  19.941  0.00  0.00    +0.000 C 
ATOM     20  O   UNL     1       1.859   6.930  20.989  0.00  0.00    +0.000 OA
ATOM     21  H   UNL     1       2.450   7.649  17.935  0.00  0.00    +0.000 HD
BRANCH  19  22
ATOM     22  C   UNL     1       1.127   8.849  19.860  0.00  0.00    +0.000 A 
ATOM     23  C   UNL     1       1.290   9.631  18.710  0.00  0.00    +0.000 A 
ATOM     24  C   UNL     1       0.590  10.831  18.567  0.00  0.00    +0.000 A 
ATOM     25  C   UNL     1      -0.291  11.255  19.568  0.00  0.00    +0.000 A 
ATOM     26  C   UNL     1      -1.071  12.528  19.416  0.00  0.00    +0.000 C 
ATOM     27  C   UNL     1      -0.457  10.465  20.714  0.00  0.00    +0.000 A 
ATOM     28  C   UNL     1       0.249   9.268  20.863  0.00  0.00    +0.000 A 
ENDBRANCH  19  22
ENDBRANCH  17  18
BRANCH  17  29
ATOM     29  C   UNL     1       2.476   4.780  17.939  0.00  0.00    +0.000 C 
BRANCH  29  30
ATOM     30  C   UNL     1       2.457   3.348  18.515  0.00  0.00    +0.000 C 
ATOM     31  C   UNL     1       1.064   2.724  18.568  0.00  0.00    +0.000 C 
ATOM     32  C   UNL     1       3.367   2.455  17.664  0.00  0.00    +0.000 C 
ENDBRANCH  29  30
ENDBRANCH  17  29
ENDBRANCH   2  17
TORSDOF 10
ENDMDL
MODEL 9
REMARK VINA RESULT:      -7.9      1.225      1.679
REMARK  Name = 
REMARK  14 active torsions:
REMARK  status: ('A' for Active; 'I' for Inactive)
REMARK    1  A    between atoms: C_1  and  O_2
REMARK    2  A    between atoms: O_2  and  C_3
REMARK    3  A    between atoms: C_6  and  N_7
REMARK    4  A    between atoms: N_7  and  C_8
REMARK    5  A    between atoms: C_8  and  C_9
REMARK    6  A    between atoms: C_9  and  N_10
REMARK    7  A    between atoms: C_11  and  C_13
REMARK    8  A    between atoms: C_13  and  C_14
REMARK    9  A    between atoms: C_13  and  N_18
REMARK   10  A    between atoms: C_14  and  C_15
REMARK   11  A    between atoms: C_15  and  C_16
REMARK   12  A    between atoms: C_15  and  C_17
REMARK   13  A    between atoms: C_19  and  C_21
REMARK   14  A    between atoms: C_24  and  C_25
REMARK                            x       y       z     vdW  Elec       q    Type
REMARK                         _______ _______ _______ _____ _____    ______ ____
ROOT
ATOM      1  N   UNL     1       5.253   6.146  17.900  0.00  0.00    +0.000 N 
ATOM      2  C   UNL     1       4.658   5.261  18.778  0.00  0.00    +0.000 C 
ATOM      3  O   UNL     1       5.310   4.475  19.469  0.00  0.00    +0.000 OA
ATOM      4  H   UNL     1       4.706   6.922  17.556  0.00  0.00    +0.000 HD
ENDROOT
BRANCH   1   5
ATOM      5  C   UNL     1       6.701   6.255  17.809  0.00  0.00    +0.000 C 
BRANCH   5   6
ATOM      6  C   UNL     1       7.316   5.160  16.924  0.00  0.00    +0.000 C 
BRANCH   6   7
ATOM      7  N   UNL     1       7.499   5.644  15.557  0.00  0.00    +0.000 N 
ATOM      8  H   UNL     1       7.352   6.647  15.473  0.00  0.00    +0.000 HD
BRANCH   7  12
ATOM      9  C   UNL     1       5.814   3.398  12.394  0.00  0.00    +0.000 A 
ATOM     10  C   UNL     1       7.012   4.087  12.232  0.00  0.00    +0.000 A 
ATOM     11  C   UNL     1       7.549   4.832  13.287  0.00  0.00    +0.000 A 
ATOM     12  C   UNL     1       6.876   4.951  14.509  0.00  0.00    +0.000 A 
ATOM     13  C   UNL     1       5.672   4.254  14.656  0.00  0.00    +0.000 A 
ATOM     14  C   UNL     1       5.136   3.491  13.607  0.00  0.00    +0.000 A 
BRANCH   9  16
ATOM     15  C   UNL     1       5.845   1.335  11.249  0.00  0.00    +0.000 C 
ATOM     16  O   UNL     1       5.394   2.684  11.306  0.00  0.00    +0.000 OA
ENDBRANCH   9  16
ENDBRANCH   7  12
ENDBRANCH   6   7
ENDBRANCH   5   6
ENDBRANCH   1   5
BRANCH   2  17
ATOM     17  C   UNL     1       3.111   5.296  18.811  0.00  0.00    +0.000 C 
BRANCH  17  18
ATOM     18  N   UNL     1       2.649   6.682  18.729  0.00  0.00    +0.000 N 
ATOM     19  C   UNL     1       2.009   7.292  19.789  0.00  0.00    +0.000 C 
ATOM     20  O   UNL     1       1.785   6.722  20.850  0.00  0.00    +0.000 OA
ATOM     21  H   UNL     1       2.791   7.167  17.852  0.00  0.00    +0.000 HD
BRANCH  19  22
ATOM     22  C   UNL     1       1.550   8.689  19.596  0.00  0.00    +0.000 A 
ATOM     23  C   UNL     1       1.912   9.344  18.413  0.00  0.00    +0.000 A 
ATOM     24  C   UNL     1       1.471  10.646  18.166  0.00  0.00    +0.000 A 
ATOM     25  C   UNL     1       0.653  11.301  19.093  0.00  0.00    +0.000 A 
ATOM     26  C   UNL     1       0.149  12.689  18.827  0.00  0.00    +0.000 C 
ATOM     27  C   UNL     1       0.287  10.637  20.272  0.00  0.00    +0.000 A 
ATOM     28  C   UNL     1       0.733   9.337  20.526  0.00  0.00    +0.000 A 
ENDBRANCH  19  22
ENDBRANCH  17  18
BRANCH  17  29
ATOM     29  C   UNL     1       2.425   4.394  17.765  0.00  0.00    +0.000 C 
BRANCH  29  30
ATOM     30  C   UNL     1       1.487   3.295  18.308  0.00  0.00    +0.000 C 
ATOM     31  C   UNL     1       2.079   1.888  18.236  0.00  0.00    +0.000 C 
ATOM     32  C   UNL     1       1.139   3.611  19.767  0.00  0.00    +0.000 C 
ENDBRANCH  29  30
ENDBRANCH  17  29
ENDBRANCH   2  17
TORSDOF 10
ENDMDL
