MODEL 1
REMARK VINA RESULT:      -6.1      0.000      0.000
REMARK  Name = 
REMARK  6 active torsions:
REMARK  status: ('A' for Active; 'I' for Inactive)
REMARK    1  A    between atoms: C_1  and  C_2
REMARK    2  A    between atoms: C_2  and  C_3
REMARK    3  A    between atoms: C_11  and  N_12
REMARK    4  A    between atoms: C_13  and  C_14
REMARK    5  A    between atoms: C_16  and  C_17
REMARK    6  A    between atoms: C_22  and  N_23
REMARK                            x       y       z     vdW  Elec       q    Type
REMARK                         _______ _______ _______ _____ _____    ______ ____
ROOT
ATOM      1  C   UNL     1       2.431   4.763  18.557  0.00  0.00    +0.000 C 
ATOM      2  C   UNL     1       2.549   6.252  18.930  0.00  0.00    +0.000 C 
ATOM      3  C   UNL     1       4.045   6.625  18.957  0.00  0.00    +0.000 C 
ATOM      4  C   UNL     1       1.820   7.109  17.885  0.00  0.00    +0.000 C 
ATOM      5  C   UNL     1       1.805   8.569  18.295  0.00  0.00    +0.000 C 
ATOM      6  O   UNL     1       2.021   9.468  17.488  0.00  0.00    +0.000 OA
ATOM      7  C   UNL     1       1.430   8.883  19.702  0.00  0.00    +0.000 C 
ATOM      8  C   UNL     1       1.480   7.886  20.601  0.00  0.00    +0.000 C 
ATOM      9  C   UNL     1       1.902   6.471  20.313  0.00  0.00    +0.000 C 
ATOM     10  O   UNL     1       1.095   8.067  21.916  0.00  0.00    +0.000 OA
ATOM     11  C   UNL     1       0.540   9.265  22.333  0.00  0.00    +0.000 C 
ATOM     12  C   UNL     1       0.459  10.335  21.511  0.00  0.00    +0.000 C 
ATOM     13  C   UNL     1       0.946  10.280  20.061  0.00  0.00    +0.000 C 
ENDROOT
BRANCH  13  14
ATOM     14  C   UNL     1      -0.135  10.800  19.092  0.00  0.00    +0.000 A 
ATOM     15  C   UNL     1      -1.246   9.982  18.786  0.00  0.00    +0.000 A 
ATOM     16  C   UNL     1      -2.236  10.395  17.888  0.00  0.00    +0.000 A 
ATOM     17  C   UNL     1      -2.183  11.662  17.314  0.00  0.00    +0.000 A 
ATOM     18  C   UNL     1      -1.130  12.516  17.625  0.00  0.00    +0.000 A 
ATOM     19  C   UNL     1      -0.110  12.080  18.489  0.00  0.00    +0.000 A 
BRANCH  19  20
ATOM     20  N   UNL     1       0.975  13.026  18.716  0.00  0.00    +0.000 N 
ATOM     21  O   UNL     1       2.041  12.827  18.121  0.00  0.00    +0.000 OA
ATOM     22  O   UNL     1       0.743  13.980  19.470  0.00  0.00    +0.000 OA
ENDBRANCH  19  20
ENDBRANCH  13  14
BRANCH  11  23
ATOM     23  N   UNL     1       0.110   9.213  23.638  0.00  0.00    +0.000 N 
ATOM     24  H   UNL     1      -0.843   9.545  23.751  0.00  0.00    +0.000 HD
ATOM     25  H   UNL     1       0.304   8.355  24.148  0.00  0.00    +0.000 HD
ENDBRANCH  11  23
BRANCH  12  26
ATOM     26  C   UNL     1      -0.082  11.555  22.007  0.00  0.00    +0.000 C 
ATOM     27  N   UNL     1      -0.506  12.541  22.436  0.00  0.00    +0.000 NA
ENDBRANCH  12  26
TORSDOF 4
ENDMDL
MODEL 2
REMARK VINA RESULT:      -6.0      6.110      8.703
REMARK  Name = 
REMARK  6 active torsions:
REMARK  status: ('A' for Active; 'I' for Inactive)
REMARK    1  A    between atoms: C_1  and  C_2
REMARK    2  A    between atoms: C_2  and  C_3
REMARK    3  A    between atoms: C_11  and  N_12
REMARK    4  A    between atoms: C_13  and  C_14
REMARK    5  A    between atoms: C_16  and  C_17
REMARK    6  A    between atoms: C_22  and  N_23
REMARK                            x       y       z     vdW  Elec       q    Type
REMARK                         _______ _______ _______ _____ _____    ______ ____
ROOT
ATOM      1  C   UNL     1       1.594   3.513  19.685  0.00  0.00    +0.000 C 
ATOM      2  C   UNL     1       2.206   4.385  18.574  0.00  0.00    +0.000 C 
ATOM      3  C   UNL     1       1.054   5.031  17.778  0.00  0.00    +0.000 C 
ATOM      4  C   UNL     1       3.085   5.479  19.195  0.00  0.00    +0.000 C 
ATOM      5  C   UNL     1       3.808   6.271  18.122  0.00  0.00    +0.000 C 
ATOM      6  O   UNL     1       3.903   7.493  18.176  0.00  0.00    +0.000 OA
ATOM      7  C   UNL     1       4.478   5.502  17.036  0.00  0.00    +0.000 C 
ATOM      8  C   UNL     1       4.115   4.220  16.861  0.00  0.00    +0.000 C 
ATOM      9  C   UNL     1       3.071   3.491  17.661  0.00  0.00    +0.000 C 
ATOM     10  O   UNL     1       4.722   3.412  15.919  0.00  0.00    +0.000 OA
ATOM     11  C   UNL     1       5.805   3.866  15.187  0.00  0.00    +0.000 C 
ATOM     12  C   UNL     1       6.238   5.144  15.278  0.00  0.00    +0.000 C 
ATOM     13  C   UNL     1       5.579   6.157  16.216  0.00  0.00    +0.000 C 
ENDROOT
BRANCH  13  14
ATOM     14  C   UNL     1       6.630   6.866  17.093  0.00  0.00    +0.000 A 
ATOM     15  C   UNL     1       6.790   8.267  16.990  0.00  0.00    +0.000 A 
ATOM     16  C   UNL     1       7.753   8.952  17.740  0.00  0.00    +0.000 A 
ATOM     17  C   UNL     1       8.543   8.273  18.662  0.00  0.00    +0.000 A 
ATOM     18  C   UNL     1       8.384   6.901  18.828  0.00  0.00    +0.000 A 
ATOM     19  C   UNL     1       7.452   6.206  18.037  0.00  0.00    +0.000 A 
BRANCH  19  20
ATOM     20  N   UNL     1       7.392   4.765  18.248  0.00  0.00    +0.000 N 
ATOM     21  O   UNL     1       8.202   4.063  17.631  0.00  0.00    +0.000 OA
ATOM     22  O   UNL     1       6.549   4.348  19.053  0.00  0.00    +0.000 OA
ENDBRANCH  19  20
ENDBRANCH  13  14
BRANCH  11  23
ATOM     23  N   UNL     1       6.346   2.883  14.392  0.00  0.00    +0.000 N 
ATOM     24  H   UNL     1       6.327   1.968  14.832  0.00  0.00    +0.000 HD
ATOM     25  H   UNL     1       6.054   2.872  13.419  0.00  0.00    +0.000 HD
ENDBRANCH  11  23
BRANCH  12  26
ATOM     26  C   UNL     1       7.330   5.568  14.468  0.00  0.00    +0.000 C 
ATOM     27  N   UNL     1       8.200   5.909  13.786  0.00  0.00    +0.000 NA
ENDBRANCH  12  26
TORSDOF 4
ENDMDL
MODEL 3
REMARK VINA RESULT:      -6.0      4.090      7.577
REMARK  Name = 
REMARK  6 active torsions:
REMARK  status: ('A' for Active; 'I' for Inactive)
REMARK    1  A    between atoms: C_1  and  C_2
REMARK    2  A    between atoms: C_2  and  C_3
REMARK    3  A    between atoms: C_11  and  N_12
REMARK    4  A    between atoms: C_13  and  C_14
REMARK    5  A    between atoms: C_16  and  C_17
REMARK    6  A    between atoms: C_22  and  N_23
REMARK                            x       y       z     vdW  Elec       q    Type
REMARK                         _______ _______ _______ _____ _____    ______ ____
ROOT
ATOM      1  C   UNL     1       1.447  10.471  19.404  0.00  0.00    +0.000 C 
ATOM      2  C   UNL     1       1.628   9.056  18.827  0.00  0.00    +0.000 C 
ATOM      3  C   UNL     1       0.548   8.834  17.748  0.00  0.00    +0.000 C 
ATOM      4  C   UNL     1       3.023   8.924  18.199  0.00  0.00    +0.000 C 
ATOM      5  C   UNL     1       3.280   7.502  17.740  0.00  0.00    +0.000 C 
ATOM      6  O   UNL     1       3.816   7.258  16.664  0.00  0.00    +0.000 OA
ATOM      7  C   UNL     1       2.937   6.402  18.685  0.00  0.00    +0.000 C 
ATOM      8  C   UNL     1       2.110   6.689  19.705  0.00  0.00    +0.000 C 
ATOM      9  C   UNL     1       1.482   8.030  19.970  0.00  0.00    +0.000 C 
ATOM     10  O   UNL     1       1.781   5.750  20.664  0.00  0.00    +0.000 OA
ATOM     11  C   UNL     1       2.378   4.502  20.668  0.00  0.00    +0.000 C 
ATOM     12  C   UNL     1       3.212   4.110  19.679  0.00  0.00    +0.000 C 
ATOM     13  C   UNL     1       3.571   5.031  18.511  0.00  0.00    +0.000 C 
ENDROOT
BRANCH  13  14
ATOM     14  C   UNL     1       5.098   5.105  18.312  0.00  0.00    +0.000 A 
ATOM     15  C   UNL     1       5.912   5.595  19.358  0.00  0.00    +0.000 A 
ATOM     16  C   UNL     1       7.300   5.713  19.214  0.00  0.00    +0.000 A 
ATOM     17  C   UNL     1       7.926   5.288  18.046  0.00  0.00    +0.000 A 
ATOM     18  C   UNL     1       7.165   4.756  17.011  0.00  0.00    +0.000 A 
ATOM     19  C   UNL     1       5.767   4.685  17.137  0.00  0.00    +0.000 A 
BRANCH  19  20
ATOM     20  N   UNL     1       5.051   4.158  15.981  0.00  0.00    +0.000 N 
ATOM     21  O   UNL     1       5.368   4.592  14.867  0.00  0.00    +0.000 OA
ATOM     22  O   UNL     1       4.194   3.293  16.195  0.00  0.00    +0.000 OA
ENDBRANCH  19  20
ENDBRANCH  13  14
BRANCH  11  23
ATOM     23  N   UNL     1       2.016   3.755  21.765  0.00  0.00    +0.000 N 
ATOM     24  H   UNL     1       2.378   2.806  21.730  0.00  0.00    +0.000 HD
ATOM     25  H   UNL     1       2.123   4.197  22.673  0.00  0.00    +0.000 HD
ENDBRANCH  11  23
BRANCH  12  26
ATOM     26  C   UNL     1       3.763   2.797  19.712  0.00  0.00    +0.000 C 
ATOM     27  N   UNL     1       4.236   1.742  19.728  0.00  0.00    +0.000 NA
ENDBRANCH  12  26
TORSDOF 4
ENDMDL
MODEL 4
REMARK VINA RESULT:      -5.7      8.118      9.752
REMARK  Name = 
REMARK  6 active torsions:
REMARK  status: ('A' for Active; 'I' for Inactive)
REMARK    1  A    between atoms: C_1  and  C_2
REMARK    2  A    between atoms: C_2  and  C_3
REMARK    3  A    between atoms: C_11  and  N_12
REMARK    4  A    between atoms: C_13  and  C_14
REMARK    5  A    between atoms: C_16  and  C_17
REMARK    6  A    between atoms: C_22  and  N_23
REMARK                            x       y       z     vdW  Elec       q    Type
REMARK                         _______ _______ _______ _____ _____    ______ ____
ROOT
ATOM      1  C   UNL     1      11.982  11.529  18.746  0.00  0.00    +0.000 C 
ATOM      2  C   UNL     1      10.544  11.841  19.196  0.00  0.00    +0.000 C 
ATOM      3  C   UNL     1       9.616  10.739  18.647  0.00  0.00    +0.000 C 
ATOM      4  C   UNL     1      10.473  11.862  20.730  0.00  0.00    +0.000 C 
ATOM      5  C   UNL     1       9.100  12.298  21.204  0.00  0.00    +0.000 C 
ATOM      6  O   UNL     1       8.530  11.736  22.134  0.00  0.00    +0.000 OA
ATOM      7  C   UNL     1       8.498  13.496  20.555  0.00  0.00    +0.000 C 
ATOM      8  C   UNL     1       9.012  13.896  19.380  0.00  0.00    +0.000 C 
ATOM      9  C   UNL     1      10.141  13.225  18.647  0.00  0.00    +0.000 C 
ATOM     10  O   UNL     1       8.558  15.030  18.733  0.00  0.00    +0.000 OA
ATOM     11  C   UNL     1       7.623  15.859  19.327  0.00  0.00    +0.000 C 
ATOM     12  C   UNL     1       7.033  15.538  20.500  0.00  0.00    +0.000 C 
ATOM     13  C   UNL     1       7.385  14.257  21.260  0.00  0.00    +0.000 C 
ENDROOT
BRANCH  13  14
ATOM     14  C   UNL     1       7.715  14.559  22.735  0.00  0.00    +0.000 A 
ATOM     15  C   UNL     1       8.925  15.214  23.057  0.00  0.00    +0.000 A 
ATOM     16  C   UNL     1       9.285  15.480  24.383  0.00  0.00    +0.000 A 
ATOM     17  C   UNL     1       8.421  15.158  25.426  0.00  0.00    +0.000 A 
ATOM     18  C   UNL     1       7.199  14.556  25.148  0.00  0.00    +0.000 A 
ATOM     19  C   UNL     1       6.862  14.243  23.819  0.00  0.00    +0.000 A 
BRANCH  19  20
ATOM     20  N   UNL     1       5.583  13.568  23.633  0.00  0.00    +0.000 N 
ATOM     21  O   UNL     1       5.585  12.331  23.627  0.00  0.00    +0.000 OA
ATOM     22  O   UNL     1       4.580  14.283  23.519  0.00  0.00    +0.000 OA
ENDBRANCH  19  20
ENDBRANCH  13  14
BRANCH  11  23
ATOM     23  N   UNL     1       7.388  16.994  18.586  0.00  0.00    +0.000 N 
ATOM     24  H   UNL     1       8.211  17.309  18.080  0.00  0.00    +0.000 HD
ATOM     25  H   UNL     1       6.539  17.006  18.029  0.00  0.00    +0.000 HD
ENDBRANCH  11  23
BRANCH  12  26
ATOM     26  C   UNL     1       6.045  16.408  21.043  0.00  0.00    +0.000 C 
ATOM     27  N   UNL     1       5.264  17.131  21.495  0.00  0.00    +0.000 NA
ENDBRANCH  12  26
TORSDOF 4
ENDMDL
MODEL 5
REMARK VINA RESULT:      -5.7      3.762      7.155
REMARK  Name = 
REMARK  6 active torsions:
REMARK  status: ('A' for Active; 'I' for Inactive)
REMARK    1  A    between atoms: C_1  and  C_2
REMARK    2  A    between atoms: C_2  and  C_3
REMARK    3  A    between atoms: C_11  and  N_12
REMARK    4  A    between atoms: C_13  and  C_14
REMARK    5  A    between atoms: C_16  and  C_17
REMARK    6  A    between atoms: C_22  and  N_23
REMARK                            x       y       z     vdW  Elec       q    Type
REMARK                         _______ _______ _______ _____ _____    ______ ____
ROOT
ATOM      1  C   UNL     1      -0.469  10.430  18.241  0.00  0.00    +0.000 C 
ATOM      2  C   UNL     1       0.721   9.690  18.878  0.00  0.00    +0.000 C 
ATOM      3  C   UNL     1       1.477  10.682  19.784  0.00  0.00    +0.000 C 
ATOM      4  C   UNL     1       0.211   8.508  19.715  0.00  0.00    +0.000 C 
ATOM      5  C   UNL     1       1.364   7.680  20.246  0.00  0.00    +0.000 C 
ATOM      6  O   UNL     1       1.379   7.258  21.398  0.00  0.00    +0.000 OA
ATOM      7  C   UNL     1       2.448   7.319  19.290  0.00  0.00    +0.000 C 
ATOM      8  C   UNL     1       2.535   8.022  18.148  0.00  0.00    +0.000 C 
ATOM      9  C   UNL     1       1.637   9.162  17.754  0.00  0.00    +0.000 C 
ATOM     10  O   UNL     1       3.469   7.722  17.175  0.00  0.00    +0.000 OA
ATOM     11  C   UNL     1       4.287   6.612  17.297  0.00  0.00    +0.000 C 
ATOM     12  C   UNL     1       4.289   5.849  18.413  0.00  0.00    +0.000 C 
ATOM     13  C   UNL     1       3.365   6.145  19.596  0.00  0.00    +0.000 C 
ENDROOT
BRANCH  13  14
ATOM     14  C   UNL     1       2.590   4.883  20.025  0.00  0.00    +0.000 A 
ATOM     15  C   UNL     1       2.613   4.480  21.379  0.00  0.00    +0.000 A 
ATOM     16  C   UNL     1       1.954   3.324  21.812  0.00  0.00    +0.000 A 
ATOM     17  C   UNL     1       1.200   2.567  20.920  0.00  0.00    +0.000 A 
ATOM     18  C   UNL     1       1.114   2.955  19.588  0.00  0.00    +0.000 A 
ATOM     19  C   UNL     1       1.818   4.088  19.144  0.00  0.00    +0.000 A 
BRANCH  19  20
ATOM     20  N   UNL     1       1.706   4.387  17.722  0.00  0.00    +0.000 N 
ATOM     21  O   UNL     1       2.330   3.666  16.935  0.00  0.00    +0.000 OA
ATOM     22  O   UNL     1       0.970   5.329  17.400  0.00  0.00    +0.000 OA
ENDBRANCH  19  20
ENDBRANCH  13  14
BRANCH  11  23
ATOM     23  N   UNL     1       5.063   6.411  16.178  0.00  0.00    +0.000 N 
ATOM     24  H   UNL     1       4.518   6.399  15.320  0.00  0.00    +0.000 HD
ATOM     25  H   UNL     1       5.915   6.961  16.110  0.00  0.00    +0.000 HD
ENDBRANCH  11  23
BRANCH  12  26
ATOM     26  C   UNL     1       5.183   4.744  18.500  0.00  0.00    +0.000 C 
ATOM     27  N   UNL     1       5.902   3.844  18.599  0.00  0.00    +0.000 NA
ENDBRANCH  12  26
TORSDOF 4
ENDMDL
MODEL 6
REMARK VINA RESULT:      -5.7      2.855      6.447
REMARK  Name = 
REMARK  6 active torsions:
REMARK  status: ('A' for Active; 'I' for Inactive)
REMARK    1  A    between atoms: C_1  and  C_2
REMARK    2  A    between atoms: C_2  and  C_3
REMARK    3  A    between atoms: C_11  and  N_12
REMARK    4  A    between atoms: C_13  and  C_14
REMARK    5  A    between atoms: C_16  and  C_17
REMARK    6  A    between atoms: C_22  and  N_23
REMARK                            x       y       z     vdW  Elec       q    Type
REMARK                         _______ _______ _______ _____ _____    ______ ____
ROOT
ATOM      1  C   UNL     1      -3.134  14.620  24.271  0.00  0.00    +0.000 C 
ATOM      2  C   UNL     1      -2.415  14.295  22.949  0.00  0.00    +0.000 C 
ATOM      3  C   UNL     1      -1.802  15.599  22.401  0.00  0.00    +0.000 C 
ATOM      4  C   UNL     1      -1.304  13.266  23.201  0.00  0.00    +0.000 C 
ATOM      5  C   UNL     1      -0.666  12.825  21.898  0.00  0.00    +0.000 C 
ATOM      6  O   UNL     1       0.549  12.696  21.786  0.00  0.00    +0.000 OA
ATOM      7  C   UNL     1      -1.576  12.470  20.773  0.00  0.00    +0.000 C 
ATOM      8  C   UNL     1      -2.851  12.890  20.842  0.00  0.00    +0.000 C 
ATOM      9  C   UNL     1      -3.440  13.709  21.957  0.00  0.00    +0.000 C 
ATOM     10  O   UNL     1      -3.782  12.559  19.877  0.00  0.00    +0.000 OA
ATOM     11  C   UNL     1      -3.459  11.689  18.849  0.00  0.00    +0.000 C 
ATOM     12  C   UNL     1      -2.201  11.223  18.682  0.00  0.00    +0.000 C 
ATOM     13  C   UNL     1      -1.064  11.601  19.634  0.00  0.00    +0.000 C 
ENDROOT
BRANCH  13  14
ATOM     14  C   UNL     1      -0.317  10.348  20.132  0.00  0.00    +0.000 A 
ATOM     15  C   UNL     1      -0.886   9.564  21.161  0.00  0.00    +0.000 A 
ATOM     16  C   UNL     1      -0.231   8.436  21.670  0.00  0.00    +0.000 A 
ATOM     17  C   UNL     1       0.981   8.020  21.128  0.00  0.00    +0.000 A 
ATOM     18  C   UNL     1       1.551   8.738  20.082  0.00  0.00    +0.000 A 
ATOM     19  C   UNL     1       0.917   9.899  19.606  0.00  0.00    +0.000 A 
BRANCH  19  20
ATOM     20  N   UNL     1       1.615  10.611  18.543  0.00  0.00    +0.000 N 
ATOM     21  O   UNL     1       1.882   9.981  17.512  0.00  0.00    +0.000 OA
ATOM     22  O   UNL     1       1.869  11.806  18.737  0.00  0.00    +0.000 OA
ENDBRANCH  19  20
ENDBRANCH  13  14
BRANCH  11  23
ATOM     23  N   UNL     1      -4.545  11.388  18.061  0.00  0.00    +0.000 N 
ATOM     24  H   UNL     1      -5.188  10.743  18.509  0.00  0.00    +0.000 HD
ATOM     25  H   UNL     1      -5.007  12.170  17.604  0.00  0.00    +0.000 HD
ENDBRANCH  11  23
BRANCH  12  26
ATOM     26  C   UNL     1      -1.917  10.366  17.580  0.00  0.00    +0.000 C 
ATOM     27  N   UNL     1      -1.658   9.667  16.697  0.00  0.00    +0.000 NA
ENDBRANCH  12  26
TORSDOF 4
ENDMDL
MODEL 7
REMARK VINA RESULT:      -5.6      2.900      5.879
REMARK  Name = 
REMARK  6 active torsions:
REMARK  status: ('A' for Active; 'I' for Inactive)
REMARK    1  A    between atoms: C_1  and  C_2
REMARK    2  A    between atoms: C_2  and  C_3
REMARK    3  A    between atoms: C_11  and  N_12
REMARK    4  A    between atoms: C_13  and  C_14
REMARK    5  A    between atoms: C_16  and  C_17
REMARK    6  A    between atoms: C_22  and  N_23
REMARK                            x       y       z     vdW  Elec       q    Type
REMARK                         _______ _______ _______ _____ _____    ______ ____
ROOT
ATOM      1  C   UNL     1      -4.136  14.923  22.863  0.00  0.00    +0.000 C 
ATOM      2  C   UNL     1      -3.650  13.674  22.107  0.00  0.00    +0.000 C 
ATOM      3  C   UNL     1      -4.882  12.956  21.520  0.00  0.00    +0.000 C 
ATOM      4  C   UNL     1      -2.702  14.088  20.973  0.00  0.00    +0.000 C 
ATOM      5  C   UNL     1      -2.101  12.872  20.294  0.00  0.00    +0.000 C 
ATOM      6  O   UNL     1      -1.995  12.801  19.074  0.00  0.00    +0.000 OA
ATOM      7  C   UNL     1      -1.562  11.794  21.170  0.00  0.00    +0.000 C 
ATOM      8  C   UNL     1      -1.947  11.781  22.457  0.00  0.00    +0.000 C 
ATOM      9  C   UNL     1      -2.897  12.758  23.094  0.00  0.00    +0.000 C 
ATOM     10  O   UNL     1      -1.454  10.856  23.357  0.00  0.00    +0.000 OA
ATOM     11  C   UNL     1      -0.459   9.968  22.988  0.00  0.00    +0.000 C 
ATOM     12  C   UNL     1      -0.013   9.890  21.714  0.00  0.00    +0.000 C 
ATOM     13  C   UNL     1      -0.558  10.799  20.609  0.00  0.00    +0.000 C 
ENDROOT
BRANCH  13  14
ATOM     14  C   UNL     1       0.589  11.483  19.838  0.00  0.00    +0.000 A 
ATOM     15  C   UNL     1       1.195  12.640  20.377  0.00  0.00    +0.000 A 
ATOM     16  C   UNL     1       2.216  13.316  19.699  0.00  0.00    +0.000 A 
ATOM     17  C   UNL     1       2.707  12.825  18.493  0.00  0.00    +0.000 A 
ATOM     18  C   UNL     1       2.169  11.662  17.952  0.00  0.00    +0.000 A 
ATOM     19  C   UNL     1       1.109  11.013  18.609  0.00  0.00    +0.000 A 
BRANCH  19  20
ATOM     20  N   UNL     1       0.578   9.831  17.940  0.00  0.00    +0.000 N 
ATOM     21  O   UNL     1      -0.606   9.859  17.584  0.00  0.00    +0.000 OA
ATOM     22  O   UNL     1       1.361   8.891  17.752  0.00  0.00    +0.000 OA
ENDBRANCH  19  20
ENDBRANCH  13  14
BRANCH  11  23
ATOM     23  N   UNL     1      -0.015   9.212  24.048  0.00  0.00    +0.000 N 
ATOM     24  H   UNL     1      -0.631   8.432  24.258  0.00  0.00    +0.000 HD
ATOM     25  H   UNL     1       0.970   8.965  24.050  0.00  0.00    +0.000 HD
ENDBRANCH  11  23
BRANCH  12  26
ATOM     26  C   UNL     1       0.982   8.927  21.382  0.00  0.00    +0.000 C 
ATOM     27  N   UNL     1       1.776   8.126  21.130  0.00  0.00    +0.000 NA
ENDBRANCH  12  26
TORSDOF 4
ENDMDL
MODEL 8
REMARK VINA RESULT:      -5.6      2.754      5.842
REMARK  Name = 
REMARK  6 active torsions:
REMARK  status: ('A' for Active; 'I' for Inactive)
REMARK    1  A    between atoms: C_1  and  C_2
REMARK    2  A    between atoms: C_2  and  C_3
REMARK    3  A    between atoms: C_11  and  N_12
REMARK    4  A    between atoms: C_13  and  C_14
REMARK    5  A    between atoms: C_16  and  C_17
REMARK    6  A    between atoms: C_22  and  N_23
REMARK                            x       y       z     vdW  Elec       q    Type
REMARK                         _______ _______ _______ _____ _____    ______ ____
ROOT
ATOM      1  C   UNL     1       2.679  16.060  21.123  0.00  0.00    +0.000 C 
ATOM      2  C   UNL     1       2.088  15.194  19.996  0.00  0.00    +0.000 C 
ATOM      3  C   UNL     1       2.235  15.964  18.669  0.00  0.00    +0.000 C 
ATOM      4  C   UNL     1       2.849  13.863  19.910  0.00  0.00    +0.000 C 
ATOM      5  C   UNL     1       2.206  12.934  18.899  0.00  0.00    +0.000 C 
ATOM      6  O   UNL     1       2.877  12.275  18.111  0.00  0.00    +0.000 OA
ATOM      7  C   UNL     1       0.725  12.781  18.952  0.00  0.00    +0.000 C 
ATOM      8  C   UNL     1       0.022  13.712  19.619  0.00  0.00    +0.000 C 
ATOM      9  C   UNL     1       0.604  14.915  20.310  0.00  0.00    +0.000 C 
ATOM     10  O   UNL     1      -1.348  13.622  19.772  0.00  0.00    +0.000 OA
ATOM     11  C   UNL     1      -2.039  12.508  19.329  0.00  0.00    +0.000 C 
ATOM     12  C   UNL     1      -1.428  11.523  18.633  0.00  0.00    +0.000 C 
ATOM     13  C   UNL     1       0.069  11.563  18.319  0.00  0.00    +0.000 C 
ENDROOT
BRANCH  13  14
ATOM     14  C   UNL     1       0.756  10.243  18.720  0.00  0.00    +0.000 A 
ATOM     15  C   UNL     1       1.346   9.435  17.722  0.00  0.00    +0.000 A 
ATOM     16  C   UNL     1       1.952   8.212  18.031  0.00  0.00    +0.000 A 
ATOM     17  C   UNL     1       2.043   7.785  19.353  0.00  0.00    +0.000 A 
ATOM     18  C   UNL     1       1.517   8.574  20.370  0.00  0.00    +0.000 A 
ATOM     19  C   UNL     1       0.864   9.777  20.052  0.00  0.00    +0.000 A 
BRANCH  19  20
ATOM     20  N   UNL     1       0.301  10.510  21.180  0.00  0.00    +0.000 N 
ATOM     21  O   UNL     1      -0.868  10.260  21.498  0.00  0.00    +0.000 OA
ATOM     22  O   UNL     1       1.045  11.312  21.758  0.00  0.00    +0.000 OA
ENDBRANCH  19  20
ENDBRANCH  13  14
BRANCH  11  23
ATOM     23  N   UNL     1      -3.369  12.548  19.677  0.00  0.00    +0.000 N 
ATOM     24  H   UNL     1      -3.519  12.907  20.616  0.00  0.00    +0.000 HD
ATOM     25  H   UNL     1      -4.009  12.934  18.988  0.00  0.00    +0.000 HD
ENDBRANCH  11  23
BRANCH  12  26
ATOM     26  C   UNL     1      -2.199  10.421  18.164  0.00  0.00    +0.000 C 
ATOM     27  N   UNL     1      -2.818   9.535  17.756  0.00  0.00    +0.000 NA
ENDBRANCH  12  26
TORSDOF 4
ENDMDL
MODEL 9
REMARK VINA RESULT:      -5.4      5.418      7.634
REMARK  Name = 
REMARK  6 active torsions:
REMARK  status: ('A' for Active; 'I' for Inactive)
REMARK    1  A    between atoms: C_1  and  C_2
REMARK    2  A    between atoms: C_2  and  C_3
REMARK    3  A    between atoms: C_11  and  N_12
REMARK    4  A    between atoms: C_13  and  C_14
REMARK    5  A    between atoms: C_16  and  C_17
REMARK    6  A    between atoms: C_22  and  N_23
REMARK                            x       y       z     vdW  Elec       q    Type
REMARK                         _______ _______ _______ _____ _____    ______ ____
ROOT
ATOM      1  C   UNL     1       1.226  12.685  20.825  0.00  0.00    +0.000 C 
ATOM      2  C   UNL     1      -0.192  12.211  21.188  0.00  0.00    +0.000 C 
ATOM      3  C   UNL     1      -0.094  10.777  21.744  0.00  0.00    +0.000 C 
ATOM      4  C   UNL     1      -0.795  13.139  22.251  0.00  0.00    +0.000 C 
ATOM      5  C   UNL     1      -2.241  12.778  22.532  0.00  0.00    +0.000 C 
ATOM      6  O   UNL     1      -2.688  12.746  23.674  0.00  0.00    +0.000 OA
ATOM      7  C   UNL     1      -3.130  12.544  21.360  0.00  0.00    +0.000 C 
ATOM      8  C   UNL     1      -2.550  12.312  20.170  0.00  0.00    +0.000 C 
ATOM      9  C   UNL     1      -1.069  12.250  19.919  0.00  0.00    +0.000 C 
ATOM     10  O   UNL     1      -3.292  12.143  19.017  0.00  0.00    +0.000 OA
ATOM     11  C   UNL     1      -4.666  12.311  19.026  0.00  0.00    +0.000 C 
ATOM     12  C   UNL     1      -5.346  12.531  20.173  0.00  0.00    +0.000 C 
ATOM     13  C   UNL     1      -4.639  12.640  21.526  0.00  0.00    +0.000 C 
ENDROOT
BRANCH  13  14
ATOM     14  C   UNL     1      -5.074  13.912  22.279  0.00  0.00    +0.000 A 
ATOM     15  C   UNL     1      -4.641  15.176  21.817  0.00  0.00    +0.000 A 
ATOM     16  C   UNL     1      -4.981  16.358  22.485  0.00  0.00    +0.000 A 
ATOM     17  C   UNL     1      -5.814  16.323  23.599  0.00  0.00    +0.000 A 
ATOM     18  C   UNL     1      -6.299  15.103  24.059  0.00  0.00    +0.000 A 
ATOM     19  C   UNL     1      -5.916  13.913  23.417  0.00  0.00    +0.000 A 
BRANCH  19  20
ATOM     20  N   UNL     1      -6.436  12.682  24.001  0.00  0.00    +0.000 N 
ATOM     21  O   UNL     1      -5.674  12.025  24.721  0.00  0.00    +0.000 OA
ATOM     22  O   UNL     1      -7.614  12.396  23.755  0.00  0.00    +0.000 OA
ENDBRANCH  19  20
ENDBRANCH  13  14
BRANCH  11  23
ATOM     23  N   UNL     1      -5.210  12.221  17.766  0.00  0.00    +0.000 N 
ATOM     24  H   UNL     1      -4.668  11.627  17.146  0.00  0.00    +0.000 HD
ATOM     25  H   UNL     1      -6.212  12.056  17.714  0.00  0.00    +0.000 HD
ENDBRANCH  11  23
BRANCH  12  26
ATOM     26  C   UNL     1      -6.765  12.653  20.129  0.00  0.00    +0.000 C 
ATOM     27  N   UNL     1      -7.915  12.771  20.116  0.00  0.00    +0.000 NA
ENDBRANCH  12  26
TORSDOF 4
ENDMDL
