MODEL 1
REMARK VINA RESULT:      -8.2      0.000      0.000
REMARK  Name = 
REMARK  10 active torsions:
REMARK  status: ('A' for Active; 'I' for Inactive)
REMARK    1  A    between atoms: C_1  and  O_2
REMARK    2  A    between atoms: O_2  and  C_3
REMARK    3  A    between atoms: C_7  and  C_8
REMARK    4  A    between atoms: C_8  and  N_9
REMARK    5  A    between atoms: C_10  and  C_12
REMARK    6  A    between atoms: C_16  and  C_17
REMARK    7  A    between atoms: N_19  and  C_20
REMARK    8  A    between atoms: C_20  and  C_21
REMARK    9  A    between atoms: C_24  and  C_25
REMARK   10  A    between atoms: C_25  and  O_27
REMARK                            x       y       z     vdW  Elec       q    Type
REMARK                         _______ _______ _______ _____ _____    ______ ____
ROOT
ATOM      1  C   UNL     1       0.396  10.108  21.258  0.00  0.00    +0.000 A 
ATOM      2  C   UNL     1       0.415  10.812  20.047  0.00  0.00    +0.000 A 
ATOM      3  C   UNL     1       0.945  10.221  18.908  0.00  0.00    +0.000 A 
ATOM      4  C   UNL     1       1.472   8.931  18.980  0.00  0.00    +0.000 A 
ATOM      5  C   UNL     1       1.491   8.220  20.193  0.00  0.00    +0.000 A 
ATOM      6  C   UNL     1       0.960   8.822  21.340  0.00  0.00    +0.000 A 
ENDROOT
BRANCH   1   8
ATOM      7  N   UNL     1      -0.883  11.908  22.264  0.00  0.00    +0.000 N 
ATOM      8  C   UNL     1      -0.217  10.718  22.471  0.00  0.00    +0.000 C 
ATOM      9  O   UNL     1      -0.144  10.148  23.553  0.00  0.00    +0.000 OA
ATOM     10  H   UNL     1      -1.133  12.169  21.319  0.00  0.00    +0.000 HD
BRANCH   7  11
ATOM     11  C   UNL     1      -1.575  12.594  23.331  0.00  0.00    +0.000 C 
BRANCH  11  16
ATOM     12  C   UNL     1      -4.919  12.765  21.482  0.00  0.00    +0.000 A 
ATOM     13  C   UNL     1      -5.809  12.864  22.550  0.00  0.00    +0.000 A 
ATOM     14  C   UNL     1      -5.335  12.877  23.861  0.00  0.00    +0.000 A 
ATOM     15  C   UNL     1      -3.967  12.798  24.109  0.00  0.00    +0.000 A 
ATOM     16  C   UNL     1      -3.055  12.698  23.050  0.00  0.00    +0.000 A 
ATOM     17  C   UNL     1      -3.539  12.705  21.732  0.00  0.00    +0.000 A 
BRANCH  12  19
ATOM     18  C   UNL     1      -6.856  12.405  20.176  0.00  0.00    +0.000 C 
ATOM     19  O   UNL     1      -5.485  12.782  20.236  0.00  0.00    +0.000 OA
ENDBRANCH  12  19
ENDBRANCH  11  16
ENDBRANCH   7  11
ENDBRANCH   1   8
BRANCH   5  20
ATOM     20  C   UNL     1       2.081   6.843  20.155  0.00  0.00    +0.000 C 
ATOM     21  O   UNL     1       1.476   5.916  20.685  0.00  0.00    +0.000 OA
ATOM     22  N   UNL     1       3.293   6.663  19.527  0.00  0.00    +0.000 N 
ATOM     23  H   UNL     1       3.792   7.428  19.100  0.00  0.00    +0.000 HD
BRANCH  22  24
ATOM     24  C   UNL     1       3.922   5.359  19.464  0.00  0.00    +0.000 C 
BRANCH  24  25
ATOM     25  C   UNL     1       4.693   5.180  18.177  0.00  0.00    +0.000 A 
ATOM     26  C   UNL     1       4.752   3.928  17.553  0.00  0.00    +0.000 A 
ATOM     27  C   UNL     1       5.446   3.769  16.350  0.00  0.00    +0.000 A 
ATOM     28  C   UNL     1       6.092   4.858  15.752  0.00  0.00    +0.000 A 
ATOM     29  C   UNL     1       6.017   6.118  16.357  0.00  0.00    +0.000 A 
ATOM     30  C   UNL     1       5.324   6.274  17.563  0.00  0.00    +0.000 A 
BRANCH  28  31
ATOM     31  C   UNL     1       6.784   4.619  14.456  0.00  0.00    +0.000 C 
ATOM     32  O   UNL     1       7.692   5.329  14.057  0.00  0.00    +0.000 OA
BRANCH  31  33
ATOM     33  O   UNL     1       6.298   3.585  13.739  0.00  0.00    +0.000 OA
ATOM     34  H   UNL     1       5.343   3.614  13.551  0.00  0.00    +0.000 HD
ENDBRANCH  31  33
ENDBRANCH  28  31
ENDBRANCH  24  25
ENDBRANCH  22  24
ENDBRANCH   5  20
TORSDOF 9
ENDMDL
MODEL 2
REMARK VINA RESULT:      -8.0      0.979      1.162
REMARK  Name = 
REMARK  10 active torsions:
REMARK  status: ('A' for Active; 'I' for Inactive)
REMARK    1  A    between atoms: C_1  and  O_2
REMARK    2  A    between atoms: O_2  and  C_3
REMARK    3  A    between atoms: C_7  and  C_8
REMARK    4  A    between atoms: C_8  and  N_9
REMARK    5  A    between atoms: C_10  and  C_12
REMARK    6  A    between atoms: C_16  and  C_17
REMARK    7  A    between atoms: N_19  and  C_20
REMARK    8  A    between atoms: C_20  and  C_21
REMARK    9  A    between atoms: C_24  and  C_25
REMARK   10  A    between atoms: C_25  and  O_27
REMARK                            x       y       z     vdW  Elec       q    Type
REMARK                         _______ _______ _______ _____ _____    ______ ____
ROOT
ATOM      1  C   UNL     1       0.885   9.701  20.525  0.00  0.00    +0.000 A 
ATOM      2  C   UNL     1       0.721  10.513  19.395  0.00  0.00    +0.000 A 
ATOM      3  C   UNL     1       1.131  10.061  18.148  0.00  0.00    +0.000 A 
ATOM      4  C   UNL     1       1.721   8.802  18.029  0.00  0.00    +0.000 A 
ATOM      5  C   UNL     1       1.924   7.984  19.156  0.00  0.00    +0.000 A 
ATOM      6  C   UNL     1       1.514   8.447  20.412  0.00  0.00    +0.000 A 
ENDROOT
BRANCH   1   8
ATOM      7  N   UNL     1      -0.545  11.164  21.829  0.00  0.00    +0.000 N 
ATOM      8  C   UNL     1       0.401  10.160  21.857  0.00  0.00    +0.000 C 
ATOM      9  O   UNL     1       0.813   9.630  22.880  0.00  0.00    +0.000 OA
ATOM     10  H   UNL     1      -1.029  11.354  20.961  0.00  0.00    +0.000 HD
BRANCH   7  11
ATOM     11  C   UNL     1      -1.150  11.678  23.036  0.00  0.00    +0.000 C 
BRANCH  11  16
ATOM     12  C   UNL     1      -4.304  12.897  21.247  0.00  0.00    +0.000 A 
ATOM     13  C   UNL     1      -5.175  13.060  22.323  0.00  0.00    +0.000 A 
ATOM     14  C   UNL     1      -4.749  12.780  23.621  0.00  0.00    +0.000 A 
ATOM     15  C   UNL     1      -3.446  12.341  23.848  0.00  0.00    +0.000 A 
ATOM     16  C   UNL     1      -2.554  12.172  22.780  0.00  0.00    +0.000 A 
ATOM     17  C   UNL     1      -2.985  12.475  21.479  0.00  0.00    +0.000 A 
BRANCH  12  19
ATOM     18  C   UNL     1      -5.591  14.413  19.968  0.00  0.00    +0.000 C 
ATOM     19  O   UNL     1      -4.814  13.221  20.019  0.00  0.00    +0.000 OA
ENDBRANCH  12  19
ENDBRANCH  11  16
ENDBRANCH   7  11
ENDBRANCH   1   8
BRANCH   5  20
ATOM     20  C   UNL     1       2.567   6.653  18.913  0.00  0.00    +0.000 C 
ATOM     21  O   UNL     1       2.081   5.895  18.078  0.00  0.00    +0.000 OA
ATOM     22  N   UNL     1       3.686   6.320  19.642  0.00  0.00    +0.000 N 
ATOM     23  H   UNL     1       4.078   6.940  20.332  0.00  0.00    +0.000 HD
BRANCH  22  24
ATOM     24  C   UNL     1       4.350   5.043  19.462  0.00  0.00    +0.000 C 
BRANCH  24  25
ATOM     25  C   UNL     1       5.068   4.976  18.135  0.00  0.00    +0.000 A 
ATOM     26  C   UNL     1       4.746   3.984  17.201  0.00  0.00    +0.000 A 
ATOM     27  C   UNL     1       5.395   3.939  15.964  0.00  0.00    +0.000 A 
ATOM     28  C   UNL     1       6.377   4.884  15.641  0.00  0.00    +0.000 A 
ATOM     29  C   UNL     1       6.688   5.893  16.559  0.00  0.00    +0.000 A 
ATOM     30  C   UNL     1       6.038   5.935  17.798  0.00  0.00    +0.000 A 
BRANCH  28  31
ATOM     31  C   UNL     1       7.001   4.790  14.293  0.00  0.00    +0.000 C 
ATOM     32  O   UNL     1       6.622   3.996  13.449  0.00  0.00    +0.000 OA
BRANCH  31  33
ATOM     33  O   UNL     1       8.046   5.620  14.096  0.00  0.00    +0.000 OA
ATOM     34  H   UNL     1       7.992   6.481  14.547  0.00  0.00    +0.000 HD
ENDBRANCH  31  33
ENDBRANCH  28  31
ENDBRANCH  24  25
ENDBRANCH  22  24
ENDBRANCH   5  20
TORSDOF 9
ENDMDL
MODEL 3
REMARK VINA RESULT:      -8.0      1.266     11.854
REMARK  Name = 
REMARK  10 active torsions:
REMARK  status: ('A' for Active; 'I' for Inactive)
REMARK    1  A    between atoms: C_1  and  O_2
REMARK    2  A    between atoms: O_2  and  C_3
REMARK    3  A    between atoms: C_7  and  C_8
REMARK    4  A    between atoms: C_8  and  N_9
REMARK    5  A    between atoms: C_10  and  C_12
REMARK    6  A    between atoms: C_16  and  C_17
REMARK    7  A    between atoms: N_19  and  C_20
REMARK    8  A    between atoms: C_20  and  C_21
REMARK    9  A    between atoms: C_24  and  C_25
REMARK   10  A    between atoms: C_25  and  O_27
REMARK                            x       y       z     vdW  Elec       q    Type
REMARK                         _______ _______ _______ _____ _____    ______ ____
ROOT
ATOM      1  C   UNL     1       1.590   8.299  19.562  0.00  0.00    +0.000 A 
ATOM      2  C   UNL     1       1.634   9.152  18.451  0.00  0.00    +0.000 A 
ATOM      3  C   UNL     1       1.175  10.458  18.558  0.00  0.00    +0.000 A 
ATOM      4  C   UNL     1       0.657  10.911  19.772  0.00  0.00    +0.000 A 
ATOM      5  C   UNL     1       0.575  10.062  20.890  0.00  0.00    +0.000 A 
ATOM      6  C   UNL     1       1.034   8.744  20.775  0.00  0.00    +0.000 A 
ENDROOT
BRANCH   1   8
ATOM      7  N   UNL     1       2.579   6.538  18.218  0.00  0.00    +0.000 N 
ATOM      8  C   UNL     1       2.126   6.913  19.467  0.00  0.00    +0.000 C 
ATOM      9  O   UNL     1       2.180   6.202  20.461  0.00  0.00    +0.000 OA
ATOM     10  H   UNL     1       2.754   7.255  17.527  0.00  0.00    +0.000 HD
BRANCH   7  11
ATOM     11  C   UNL     1       3.176   5.244  17.978  0.00  0.00    +0.000 C 
BRANCH  11  16
ATOM     12  C   UNL     1       6.744   5.568  16.639  0.00  0.00    +0.000 A 
ATOM     13  C   UNL     1       7.477   5.537  17.824  0.00  0.00    +0.000 A 
ATOM     14  C   UNL     1       6.826   5.411  19.051  0.00  0.00    +0.000 A 
ATOM     15  C   UNL     1       5.437   5.309  19.096  0.00  0.00    +0.000 A 
ATOM     16  C   UNL     1       4.682   5.337  17.915  0.00  0.00    +0.000 A 
ATOM     17  C   UNL     1       5.347   5.444  16.684  0.00  0.00    +0.000 A 
BRANCH  12  19
ATOM     18  C   UNL     1       7.095   4.805  14.429  0.00  0.00    +0.000 C 
ATOM     19  O   UNL     1       7.481   5.671  15.490  0.00  0.00    +0.000 OA
ENDBRANCH  12  19
ENDBRANCH  11  16
ENDBRANCH   7  11
ENDBRANCH   1   8
BRANCH   5  20
ATOM     20  C   UNL     1       0.001  10.653  22.141  0.00  0.00    +0.000 C 
ATOM     21  O   UNL     1       0.212  10.101  23.217  0.00  0.00    +0.000 OA
ATOM     22  N   UNL     1      -0.752  11.801  22.042  0.00  0.00    +0.000 N 
ATOM     23  H   UNL     1      -0.930  12.247  21.156  0.00  0.00    +0.000 HD
BRANCH  22  24
ATOM     24  C   UNL     1      -1.343  12.418  23.213  0.00  0.00    +0.000 C 
BRANCH  24  25
ATOM     25  C   UNL     1      -2.836  12.579  23.057  0.00  0.00    +0.000 A 
ATOM     26  C   UNL     1      -3.667  12.633  24.183  0.00  0.00    +0.000 A 
ATOM     27  C   UNL     1      -5.046  12.807  24.037  0.00  0.00    +0.000 A 
ATOM     28  C   UNL     1      -5.618  12.928  22.765  0.00  0.00    +0.000 A 
ATOM     29  C   UNL     1      -4.792  12.899  21.635  0.00  0.00    +0.000 A 
ATOM     30  C   UNL     1      -3.411  12.723  21.784  0.00  0.00    +0.000 A 
BRANCH  28  31
ATOM     31  C   UNL     1      -7.089  13.141  22.691  0.00  0.00    +0.000 C 
ATOM     32  O   UNL     1      -7.892  12.269  22.974  0.00  0.00    +0.000 OA
BRANCH  31  33
ATOM     33  O   UNL     1      -7.461  14.358  22.244  0.00  0.00    +0.000 OA
ATOM     34  H   UNL     1      -6.769  15.043  22.260  0.00  0.00    +0.000 HD
ENDBRANCH  31  33
ENDBRANCH  28  31
ENDBRANCH  24  25
ENDBRANCH  22  24
ENDBRANCH   5  20
TORSDOF 9
ENDMDL
MODEL 4
REMARK VINA RESULT:      -8.0      3.215     11.357
REMARK  Name = 
REMARK  10 active torsions:
REMARK  status: ('A' for Active; 'I' for Inactive)
REMARK    1  A    between atoms: C_1  and  O_2
REMARK    2  A    between atoms: O_2  and  C_3
REMARK    3  A    between atoms: C_7  and  C_8
REMARK    4  A    between atoms: C_8  and  N_9
REMARK    5  A    between atoms: C_10  and  C_12
REMARK    6  A    between atoms: C_16  and  C_17
REMARK    7  A    between atoms: N_19  and  C_20
REMARK    8  A    between atoms: C_20  and  C_21
REMARK    9  A    between atoms: C_24  and  C_25
REMARK   10  A    between atoms: C_25  and  O_27
REMARK                            x       y       z     vdW  Elec       q    Type
REMARK                         _______ _______ _______ _____ _____    ______ ____
ROOT
ATOM      1  C   UNL     1       4.236   4.237  18.310  0.00  0.00    +0.000 A 
ATOM      2  C   UNL     1       3.532   3.072  17.974  0.00  0.00    +0.000 A 
ATOM      3  C   UNL     1       2.225   2.900  18.410  0.00  0.00    +0.000 A 
ATOM      4  C   UNL     1       1.623   3.883  19.194  0.00  0.00    +0.000 A 
ATOM      5  C   UNL     1       2.322   5.045  19.569  0.00  0.00    +0.000 A 
ATOM      6  C   UNL     1       3.642   5.212  19.132  0.00  0.00    +0.000 A 
ENDROOT
BRANCH   1   8
ATOM      7  N   UNL     1       5.718   4.785  16.469  0.00  0.00    +0.000 N 
ATOM      8  C   UNL     1       5.620   4.450  17.804  0.00  0.00    +0.000 C 
ATOM      9  O   UNL     1       6.576   4.362  18.564  0.00  0.00    +0.000 OA
ATOM     10  H   UNL     1       4.889   5.103  15.983  0.00  0.00    +0.000 HD
BRANCH   7  11
ATOM     11  C   UNL     1       6.988   5.075  15.843  0.00  0.00    +0.000 C 
BRANCH  11  16
ATOM     12  C   UNL     1       6.050   3.517  12.479  0.00  0.00    +0.000 A 
ATOM     13  C   UNL     1       6.900   4.209  11.618  0.00  0.00    +0.000 A 
ATOM     14  C   UNL     1       7.775   5.173  12.119  0.00  0.00    +0.000 A 
ATOM     15  C   UNL     1       7.806   5.444  13.484  0.00  0.00    +0.000 A 
ATOM     16  C   UNL     1       6.959   4.759  14.367  0.00  0.00    +0.000 A 
ATOM     17  C   UNL     1       6.096   3.776  13.858  0.00  0.00    +0.000 A 
BRANCH  12  19
ATOM     18  C   UNL     1       4.112   3.082  11.196  0.00  0.00    +0.000 C 
ATOM     19  O   UNL     1       5.248   2.577  11.889  0.00  0.00    +0.000 OA
ENDBRANCH  12  19
ENDBRANCH  11  16
ENDBRANCH   7  11
ENDBRANCH   1   8
BRANCH   5  20
ATOM     20  C   UNL     1       1.578   6.034  20.413  0.00  0.00    +0.000 C 
ATOM     21  O   UNL     1       0.501   5.713  20.906  0.00  0.00    +0.000 OA
ATOM     22  N   UNL     1       2.130   7.281  20.606  0.00  0.00    +0.000 N 
ATOM     23  H   UNL     1       3.010   7.544  20.194  0.00  0.00    +0.000 HD
BRANCH  22  24
ATOM     24  C   UNL     1       1.457   8.287  21.404  0.00  0.00    +0.000 C 
BRANCH  24  25
ATOM     25  C   UNL     1       0.795   9.329  20.534  0.00  0.00    +0.000 A 
ATOM     26  C   UNL     1      -0.239  10.125  21.041  0.00  0.00    +0.000 A 
ATOM     27  C   UNL     1      -0.834  11.105  20.241  0.00  0.00    +0.000 A 
ATOM     28  C   UNL     1      -0.405  11.305  18.923  0.00  0.00    +0.000 A 
ATOM     29  C   UNL     1       0.644  10.530  18.417  0.00  0.00    +0.000 A 
ATOM     30  C   UNL     1       1.237   9.547  19.219  0.00  0.00    +0.000 A 
BRANCH  28  31
ATOM     31  C   UNL     1      -1.065  12.388  18.144  0.00  0.00    +0.000 C 
ATOM     32  O   UNL     1      -0.518  13.453  17.910  0.00  0.00    +0.000 OA
BRANCH  31  33
ATOM     33  O   UNL     1      -2.328  12.117  17.757  0.00  0.00    +0.000 OA
ATOM     34  H   UNL     1      -2.555  11.172  17.692  0.00  0.00    +0.000 HD
ENDBRANCH  31  33
ENDBRANCH  28  31
ENDBRANCH  24  25
ENDBRANCH  22  24
ENDBRANCH   5  20
TORSDOF 9
ENDMDL
MODEL 5
REMARK VINA RESULT:      -7.8      1.935     11.981
REMARK  Name = 
REMARK  10 active torsions:
REMARK  status: ('A' for Active; 'I' for Inactive)
REMARK    1  A    between atoms: C_1  and  O_2
REMARK    2  A    between atoms: O_2  and  C_3
REMARK    3  A    between atoms: C_7  and  C_8
REMARK    4  A    between atoms: C_8  and  N_9
REMARK    5  A    between atoms: C_10  and  C_12
REMARK    6  A    between atoms: C_16  and  C_17
REMARK    7  A    between atoms: N_19  and  C_20
REMARK    8  A    between atoms: C_20  and  C_21
REMARK    9  A    between atoms: C_24  and  C_25
REMARK   10  A    between atoms: C_25  and  O_27
REMARK                            x       y       z     vdW  Elec       q    Type
REMARK                         _______ _______ _______ _____ _____    ______ ____
ROOT
ATOM      1  C   UNL     1       1.497   8.506  19.640  0.00  0.00    +0.000 A 
ATOM      2  C   UNL     1       1.663   8.110  20.974  0.00  0.00    +0.000 A 
ATOM      3  C   UNL     1       0.978   8.772  21.986  0.00  0.00    +0.000 A 
ATOM      4  C   UNL     1       0.139   9.840  21.668  0.00  0.00    +0.000 A 
ATOM      5  C   UNL     1      -0.016  10.273  20.339  0.00  0.00    +0.000 A 
ATOM      6  C   UNL     1       0.681   9.607  19.323  0.00  0.00    +0.000 A 
ENDROOT
BRANCH   1   8
ATOM      7  N   UNL     1       2.278   6.402  18.718  0.00  0.00    +0.000 N 
ATOM      8  C   UNL     1       2.190   7.769  18.547  0.00  0.00    +0.000 C 
ATOM      9  O   UNL     1       2.603   8.368  17.563  0.00  0.00    +0.000 OA
ATOM     10  H   UNL     1       1.684   5.957  19.405  0.00  0.00    +0.000 HD
BRANCH   7  11
ATOM     11  C   UNL     1       2.874   5.543  17.720  0.00  0.00    +0.000 C 
BRANCH  11  16
ATOM     12  C   UNL     1       6.591   5.574  16.822  0.00  0.00    +0.000 A 
ATOM     13  C   UNL     1       7.172   5.513  18.087  0.00  0.00    +0.000 A 
ATOM     14  C   UNL     1       6.370   5.460  19.227  0.00  0.00    +0.000 A 
ATOM     15  C   UNL     1       4.983   5.462  19.104  0.00  0.00    +0.000 A 
ATOM     16  C   UNL     1       4.379   5.523  17.840  0.00  0.00    +0.000 A 
ATOM     17  C   UNL     1       5.193   5.556  16.698  0.00  0.00    +0.000 A 
BRANCH  12  19
ATOM     18  C   UNL     1       7.051   4.897  14.604  0.00  0.00    +0.000 C 
ATOM     19  O   UNL     1       7.467   5.600  15.770  0.00  0.00    +0.000 OA
ENDBRANCH  12  19
ENDBRANCH  11  16
ENDBRANCH   7  11
ENDBRANCH   1   8
BRANCH   5  20
ATOM     20  C   UNL     1      -0.941  11.430  20.113  0.00  0.00    +0.000 C 
ATOM     21  O   UNL     1      -1.395  11.624  18.989  0.00  0.00    +0.000 OA
ATOM     22  N   UNL     1      -1.250  12.244  21.179  0.00  0.00    +0.000 N 
ATOM     23  H   UNL     1      -0.868  12.087  22.099  0.00  0.00    +0.000 HD
BRANCH  22  24
ATOM     24  C   UNL     1      -2.131  13.385  21.025  0.00  0.00    +0.000 C 
BRANCH  24  25
ATOM     25  C   UNL     1      -3.436  13.176  21.754  0.00  0.00    +0.000 A 
ATOM     26  C   UNL     1      -4.617  12.930  21.042  0.00  0.00    +0.000 A 
ATOM     27  C   UNL     1      -5.820  12.713  21.720  0.00  0.00    +0.000 A 
ATOM     28  C   UNL     1      -5.864  12.740  23.119  0.00  0.00    +0.000 A 
ATOM     29  C   UNL     1      -4.684  12.962  23.839  0.00  0.00    +0.000 A 
ATOM     30  C   UNL     1      -3.481  13.181  23.158  0.00  0.00    +0.000 A 
BRANCH  28  31
ATOM     31  C   UNL     1      -7.174  12.469  23.770  0.00  0.00    +0.000 C 
ATOM     32  O   UNL     1      -7.592  11.339  23.957  0.00  0.00    +0.000 OA
BRANCH  31  33
ATOM     33  O   UNL     1      -7.882  13.570  24.095  0.00  0.00    +0.000 OA
ATOM     34  H   UNL     1      -8.282  14.050  23.348  0.00  0.00    +0.000 HD
ENDBRANCH  31  33
ENDBRANCH  28  31
ENDBRANCH  24  25
ENDBRANCH  22  24
ENDBRANCH   5  20
TORSDOF 9
ENDMDL
MODEL 6
REMARK VINA RESULT:      -7.8      2.715      4.237
REMARK  Name = 
REMARK  10 active torsions:
REMARK  status: ('A' for Active; 'I' for Inactive)
REMARK    1  A    between atoms: C_1  and  O_2
REMARK    2  A    between atoms: O_2  and  C_3
REMARK    3  A    between atoms: C_7  and  C_8
REMARK    4  A    between atoms: C_8  and  N_9
REMARK    5  A    between atoms: C_10  and  C_12
REMARK    6  A    between atoms: C_16  and  C_17
REMARK    7  A    between atoms: N_19  and  C_20
REMARK    8  A    between atoms: C_20  and  C_21
REMARK    9  A    between atoms: C_24  and  C_25
REMARK   10  A    between atoms: C_25  and  O_27
REMARK                            x       y       z     vdW  Elec       q    Type
REMARK                         _______ _______ _______ _____ _____    ______ ____
ROOT
ATOM      1  C   UNL     1       1.965   7.234  20.063  0.00  0.00    +0.000 A 
ATOM      2  C   UNL     1       1.274   6.206  20.718  0.00  0.00    +0.000 A 
ATOM      3  C   UNL     1       1.799   4.920  20.738  0.00  0.00    +0.000 A 
ATOM      4  C   UNL     1       3.006   4.655  20.091  0.00  0.00    +0.000 A 
ATOM      5  C   UNL     1       3.698   5.666  19.401  0.00  0.00    +0.000 A 
ATOM      6  C   UNL     1       3.163   6.960  19.379  0.00  0.00    +0.000 A 
ENDROOT
BRANCH   1   8
ATOM      7  N   UNL     1       1.606   9.339  18.912  0.00  0.00    +0.000 N 
ATOM      8  C   UNL     1       1.433   8.625  20.080  0.00  0.00    +0.000 C 
ATOM      9  O   UNL     1       0.855   9.053  21.070  0.00  0.00    +0.000 OA
ATOM     10  H   UNL     1       1.839   8.839  18.064  0.00  0.00    +0.000 HD
BRANCH   7  11
ATOM     11  C   UNL     1       1.097  10.683  18.755  0.00  0.00    +0.000 C 
BRANCH  11  16
ATOM     12  C   UNL     1      -2.630  11.525  18.933  0.00  0.00    +0.000 A 
ATOM     13  C   UNL     1      -3.142  10.679  17.950  0.00  0.00    +0.000 A 
ATOM     14  C   UNL     1      -2.290   9.839  17.233  0.00  0.00    +0.000 A 
ATOM     15  C   UNL     1      -0.923   9.838  17.500  0.00  0.00    +0.000 A 
ATOM     16  C   UNL     1      -0.389  10.680  18.485  0.00  0.00    +0.000 A 
ATOM     17  C   UNL     1      -1.255  11.508  19.217  0.00  0.00    +0.000 A 
BRANCH  12  19
ATOM     18  C   UNL     1      -4.902  12.132  19.169  0.00  0.00    +0.000 C 
ATOM     19  O   UNL     1      -3.552  12.291  19.593  0.00  0.00    +0.000 OA
ENDBRANCH  12  19
ENDBRANCH  11  16
ENDBRANCH   7  11
ENDBRANCH   1   8
BRANCH   5  20
ATOM     20  C   UNL     1       4.984   5.270  18.742  0.00  0.00    +0.000 C 
ATOM     21  O   UNL     1       5.534   4.225  19.078  0.00  0.00    +0.000 OA
ATOM     22  N   UNL     1       5.512   6.099  17.778  0.00  0.00    +0.000 N 
ATOM     23  H   UNL     1       5.063   6.960  17.511  0.00  0.00    +0.000 HD
BRANCH  22  24
ATOM     24  C   UNL     1       6.758   5.779  17.109  0.00  0.00    +0.000 C 
BRANCH  24  25
ATOM     25  C   UNL     1       6.515   5.062  15.803  0.00  0.00    +0.000 A 
ATOM     26  C   UNL     1       5.373   4.272  15.627  0.00  0.00    +0.000 A 
ATOM     27  C   UNL     1       5.137   3.629  14.409  0.00  0.00    +0.000 A 
ATOM     28  C   UNL     1       6.039   3.764  13.346  0.00  0.00    +0.000 A 
ATOM     29  C   UNL     1       7.171   4.572  13.505  0.00  0.00    +0.000 A 
ATOM     30  C   UNL     1       7.406   5.213  14.727  0.00  0.00    +0.000 A 
BRANCH  28  31
ATOM     31  C   UNL     1       5.705   3.075  12.071  0.00  0.00    +0.000 C 
ATOM     32  O   UNL     1       4.679   3.303  11.452  0.00  0.00    +0.000 OA
BRANCH  31  33
ATOM     33  O   UNL     1       6.603   2.149  11.677  0.00  0.00    +0.000 OA
ATOM     34  H   UNL     1       7.486   2.489  11.446  0.00  0.00    +0.000 HD
ENDBRANCH  31  33
ENDBRANCH  28  31
ENDBRANCH  24  25
ENDBRANCH  22  24
ENDBRANCH   5  20
TORSDOF 9
ENDMDL
MODEL 7
REMARK VINA RESULT:      -7.6      1.459      2.108
REMARK  Name = 
REMARK  10 active torsions:
REMARK  status: ('A' for Active; 'I' for Inactive)
REMARK    1  A    between atoms: C_1  and  O_2
REMARK    2  A    between atoms: O_2  and  C_3
REMARK    3  A    between atoms: C_7  and  C_8
REMARK    4  A    between atoms: C_8  and  N_9
REMARK    5  A    between atoms: C_10  and  C_12
REMARK    6  A    between atoms: C_16  and  C_17
REMARK    7  A    between atoms: N_19  and  C_20
REMARK    8  A    between atoms: C_20  and  C_21
REMARK    9  A    between atoms: C_24  and  C_25
REMARK   10  A    between atoms: C_25  and  O_27
REMARK                            x       y       z     vdW  Elec       q    Type
REMARK                         _______ _______ _______ _____ _____    ______ ____
ROOT
ATOM      1  C   UNL     1       0.661   9.445  20.917  0.00  0.00    +0.000 A 
ATOM      2  C   UNL     1       0.630  10.281  19.793  0.00  0.00    +0.000 A 
ATOM      3  C   UNL     1       1.206   9.864  18.600  0.00  0.00    +0.000 A 
ATOM      4  C   UNL     1       1.828   8.617  18.532  0.00  0.00    +0.000 A 
ATOM      5  C   UNL     1       1.898   7.776  19.657  0.00  0.00    +0.000 A 
ATOM      6  C   UNL     1       1.321   8.204  20.860  0.00  0.00    +0.000 A 
ENDROOT
BRANCH   1   8
ATOM      7  N   UNL     1      -0.812  10.976  22.089  0.00  0.00    +0.000 N 
ATOM      8  C   UNL     1       0.002   9.866  22.185  0.00  0.00    +0.000 C 
ATOM      9  O   UNL     1       0.167   9.220  23.211  0.00  0.00    +0.000 OA
ATOM     10  H   UNL     1      -1.111  11.284  21.173  0.00  0.00    +0.000 HD
BRANCH   7  11
ATOM     11  C   UNL     1      -1.562  11.475  23.219  0.00  0.00    +0.000 C 
BRANCH  11  16
ATOM     12  C   UNL     1      -4.100  14.335  23.310  0.00  0.00    +0.000 A 
ATOM     13  C   UNL     1      -4.465  14.410  21.967  0.00  0.00    +0.000 A 
ATOM     14  C   UNL     1      -3.898  13.542  21.034  0.00  0.00    +0.000 A 
ATOM     15  C   UNL     1      -2.966  12.591  21.443  0.00  0.00    +0.000 A 
ATOM     16  C   UNL     1      -2.586  12.498  22.790  0.00  0.00    +0.000 A 
ATOM     17  C   UNL     1      -3.177  13.362  23.725  0.00  0.00    +0.000 A 
BRANCH  12  19
ATOM     18  C   UNL     1      -3.883  16.115  24.850  0.00  0.00    +0.000 C 
ATOM     19  O   UNL     1      -4.732  15.216  24.145  0.00  0.00    +0.000 OA
ENDBRANCH  12  19
ENDBRANCH  11  16
ENDBRANCH   7  11
ENDBRANCH   1   8
BRANCH   5  20
ATOM     20  C   UNL     1       2.589   6.461  19.471  0.00  0.00    +0.000 C 
ATOM     21  O   UNL     1       1.918   5.453  19.270  0.00  0.00    +0.000 OA
ATOM     22  N   UNL     1       3.964   6.424  19.536  0.00  0.00    +0.000 N 
ATOM     23  H   UNL     1       4.512   7.252  19.709  0.00  0.00    +0.000 HD
BRANCH  22  24
ATOM     24  C   UNL     1       4.694   5.182  19.373  0.00  0.00    +0.000 C 
BRANCH  24  25
ATOM     25  C   UNL     1       5.284   5.065  17.989  0.00  0.00    +0.000 A 
ATOM     26  C   UNL     1       6.654   4.832  17.817  0.00  0.00    +0.000 A 
ATOM     27  C   UNL     1       7.195   4.701  16.535  0.00  0.00    +0.000 A 
ATOM     28  C   UNL     1       6.376   4.802  15.403  0.00  0.00    +0.000 A 
ATOM     29  C   UNL     1       5.002   5.011  15.567  0.00  0.00    +0.000 A 
ATOM     30  C   UNL     1       4.463   5.144  16.852  0.00  0.00    +0.000 A 
BRANCH  28  31
ATOM     31  C   UNL     1       7.018   4.620  14.073  0.00  0.00    +0.000 C 
ATOM     32  O   UNL     1       6.652   3.769  13.280  0.00  0.00    +0.000 OA
BRANCH  31  33
ATOM     33  O   UNL     1       8.062   5.438  13.834  0.00  0.00    +0.000 OA
ATOM     34  H   UNL     1       8.885   5.221  14.307  0.00  0.00    +0.000 HD
ENDBRANCH  31  33
ENDBRANCH  28  31
ENDBRANCH  24  25
ENDBRANCH  22  24
ENDBRANCH   5  20
TORSDOF 9
ENDMDL
MODEL 8
REMARK VINA RESULT:      -7.6      1.256      1.637
REMARK  Name = 
REMARK  10 active torsions:
REMARK  status: ('A' for Active; 'I' for Inactive)
REMARK    1  A    between atoms: C_1  and  O_2
REMARK    2  A    between atoms: O_2  and  C_3
REMARK    3  A    between atoms: C_7  and  C_8
REMARK    4  A    between atoms: C_8  and  N_9
REMARK    5  A    between atoms: C_10  and  C_12
REMARK    6  A    between atoms: C_16  and  C_17
REMARK    7  A    between atoms: N_19  and  C_20
REMARK    8  A    between atoms: C_20  and  C_21
REMARK    9  A    between atoms: C_24  and  C_25
REMARK   10  A    between atoms: C_25  and  O_27
REMARK                            x       y       z     vdW  Elec       q    Type
REMARK                         _______ _______ _______ _____ _____    ______ ____
ROOT
ATOM      1  C   UNL     1       0.828   9.312  20.404  0.00  0.00    +0.000 A 
ATOM      2  C   UNL     1       0.699  10.006  19.193  0.00  0.00    +0.000 A 
ATOM      3  C   UNL     1       1.271   9.497  18.035  0.00  0.00    +0.000 A 
ATOM      4  C   UNL     1       1.988   8.301  18.087  0.00  0.00    +0.000 A 
ATOM      5  C   UNL     1       2.156   7.605  19.298  0.00  0.00    +0.000 A 
ATOM      6  C   UNL     1       1.582   8.126  20.464  0.00  0.00    +0.000 A 
ENDROOT
BRANCH   1   8
ATOM      7  N   UNL     1      -0.147  11.170  21.622  0.00  0.00    +0.000 N 
ATOM      8  C   UNL     1       0.174   9.828  21.638  0.00  0.00    +0.000 C 
ATOM      9  O   UNL     1      -0.079   9.071  22.566  0.00  0.00    +0.000 OA
ATOM     10  H   UNL     1      -0.159  11.658  20.736  0.00  0.00    +0.000 HD
BRANCH   7  11
ATOM     11  C   UNL     1      -0.833  11.806  22.724  0.00  0.00    +0.000 C 
BRANCH  11  16
ATOM     12  C   UNL     1      -3.947  12.590  20.645  0.00  0.00    +0.000 A 
ATOM     13  C   UNL     1      -4.856  12.931  21.645  0.00  0.00    +0.000 A 
ATOM     14  C   UNL     1      -4.468  12.910  22.985  0.00  0.00    +0.000 A 
ATOM     15  C   UNL     1      -3.167  12.554  23.329  0.00  0.00    +0.000 A 
ATOM     16  C   UNL     1      -2.236  12.208  22.338  0.00  0.00    +0.000 A 
ATOM     17  C   UNL     1      -2.629  12.251  20.991  0.00  0.00    +0.000 A 
BRANCH  12  19
ATOM     18  C   UNL     1      -3.932  11.675  18.466  0.00  0.00    +0.000 C 
ATOM     19  O   UNL     1      -4.422  12.665  19.364  0.00  0.00    +0.000 OA
ENDBRANCH  12  19
ENDBRANCH  11  16
ENDBRANCH   7  11
ENDBRANCH   1   8
BRANCH   5  20
ATOM     20  C   UNL     1       2.944   6.333  19.238  0.00  0.00    +0.000 C 
ATOM     21  O   UNL     1       2.458   5.304  19.698  0.00  0.00    +0.000 OA
ATOM     22  N   UNL     1       4.197   6.360  18.668  0.00  0.00    +0.000 N 
ATOM     23  H   UNL     1       4.597   7.208  18.299  0.00  0.00    +0.000 HD
BRANCH  22  24
ATOM     24  C   UNL     1       5.015   5.166  18.587  0.00  0.00    +0.000 C 
BRANCH  24  25
ATOM     25  C   UNL     1       5.461   4.897  17.170  0.00  0.00    +0.000 A 
ATOM     26  C   UNL     1       6.676   5.410  16.699  0.00  0.00    +0.000 A 
ATOM     27  C   UNL     1       7.099   5.140  15.394  0.00  0.00    +0.000 A 
ATOM     28  C   UNL     1       6.315   4.355  14.539  0.00  0.00    +0.000 A 
ATOM     29  C   UNL     1       5.111   3.819  15.011  0.00  0.00    +0.000 A 
ATOM     30  C   UNL     1       4.688   4.092  16.317  0.00  0.00    +0.000 A 
BRANCH  28  31
ATOM     31  C   UNL     1       6.845   4.086  13.175  0.00  0.00    +0.000 C 
ATOM     32  O   UNL     1       7.605   4.850  12.605  0.00  0.00    +0.000 OA
BRANCH  31  33
ATOM     33  O   UNL     1       6.386   2.954  12.604  0.00  0.00    +0.000 OA
ATOM     34  H   UNL     1       5.698   2.478  13.103  0.00  0.00    +0.000 HD
ENDBRANCH  31  33
ENDBRANCH  28  31
ENDBRANCH  24  25
ENDBRANCH  22  24
ENDBRANCH   5  20
TORSDOF 9
ENDMDL
MODEL 9
REMARK VINA RESULT:      -7.6      2.487     11.513
REMARK  Name = 
REMARK  10 active torsions:
REMARK  status: ('A' for Active; 'I' for Inactive)
REMARK    1  A    between atoms: C_1  and  O_2
REMARK    2  A    between atoms: O_2  and  C_3
REMARK    3  A    between atoms: C_7  and  C_8
REMARK    4  A    between atoms: C_8  and  N_9
REMARK    5  A    between atoms: C_10  and  C_12
REMARK    6  A    between atoms: C_16  and  C_17
REMARK    7  A    between atoms: N_19  and  C_20
REMARK    8  A    between atoms: C_20  and  C_21
REMARK    9  A    between atoms: C_24  and  C_25
REMARK   10  A    between atoms: C_25  and  O_27
REMARK                            x       y       z     vdW  Elec       q    Type
REMARK                         _______ _______ _______ _____ _____    ______ ____
ROOT
ATOM      1  C   UNL     1       1.221   8.994  18.518  0.00  0.00    +0.000 A 
ATOM      2  C   UNL     1       0.254   9.294  17.549  0.00  0.00    +0.000 A 
ATOM      3  C   UNL     1      -0.850  10.068  17.884  0.00  0.00    +0.000 A 
ATOM      4  C   UNL     1      -0.998  10.530  19.192  0.00  0.00    +0.000 A 
ATOM      5  C   UNL     1      -0.056  10.213  20.187  0.00  0.00    +0.000 A 
ATOM      6  C   UNL     1       1.052   9.429  19.845  0.00  0.00    +0.000 A 
ENDROOT
BRANCH   1   8
ATOM      7  N   UNL     1       2.746   7.172  19.009  0.00  0.00    +0.000 N 
ATOM      8  C   UNL     1       2.431   8.208  18.153  0.00  0.00    +0.000 C 
ATOM      9  O   UNL     1       3.054   8.471  17.132  0.00  0.00    +0.000 OA
ATOM     10  H   UNL     1       2.044   6.849  19.662  0.00  0.00    +0.000 HD
BRANCH   7  11
ATOM     11  C   UNL     1       3.859   6.285  18.761  0.00  0.00    +0.000 C 
BRANCH  11  16
ATOM     12  C   UNL     1       2.320   2.842  19.395  0.00  0.00    +0.000 A 
ATOM     13  C   UNL     1       2.514   2.231  18.158  0.00  0.00    +0.000 A 
ATOM     14  C   UNL     1       3.141   2.924  17.122  0.00  0.00    +0.000 A 
ATOM     15  C   UNL     1       3.580   4.230  17.323  0.00  0.00    +0.000 A 
ATOM     16  C   UNL     1       3.395   4.863  18.560  0.00  0.00    +0.000 A 
ATOM     17  C   UNL     1       2.782   4.151  19.603  0.00  0.00    +0.000 A 
BRANCH  12  19
ATOM     18  C   UNL     1       1.422   2.721  21.579  0.00  0.00    +0.000 C 
ATOM     19  O   UNL     1       1.716   2.068  20.349  0.00  0.00    +0.000 OA
ENDBRANCH  12  19
ENDBRANCH  11  16
ENDBRANCH   7  11
ENDBRANCH   1   8
BRANCH   5  20
ATOM     20  C   UNL     1      -0.315  10.762  21.556  0.00  0.00    +0.000 C 
ATOM     21  O   UNL     1       0.186  10.209  22.530  0.00  0.00    +0.000 OA
ATOM     22  N   UNL     1      -1.117  11.875  21.678  0.00  0.00    +0.000 N 
ATOM     23  H   UNL     1      -1.535  12.323  20.878  0.00  0.00    +0.000 HD
BRANCH  22  24
ATOM     24  C   UNL     1      -1.415  12.450  22.976  0.00  0.00    +0.000 C 
BRANCH  24  25
ATOM     25  C   UNL     1      -2.902  12.617  23.177  0.00  0.00    +0.000 A 
ATOM     26  C   UNL     1      -3.750  12.817  22.080  0.00  0.00    +0.000 A 
ATOM     27  C   UNL     1      -5.129  12.948  22.266  0.00  0.00    +0.000 A 
ATOM     28  C   UNL     1      -5.684  12.881  23.550  0.00  0.00    +0.000 A 
ATOM     29  C   UNL     1      -4.846  12.658  24.649  0.00  0.00    +0.000 A 
ATOM     30  C   UNL     1      -3.465  12.529  24.461  0.00  0.00    +0.000 A 
BRANCH  28  31
ATOM     31  C   UNL     1      -7.162  12.998  23.666  0.00  0.00    +0.000 C 
ATOM     32  O   UNL     1      -7.916  12.692  22.758  0.00  0.00    +0.000 OA
BRANCH  31  33
ATOM     33  O   UNL     1      -7.599  13.509  24.835  0.00  0.00    +0.000 OA
ATOM     34  H   UNL     1      -6.907  13.735  25.481  0.00  0.00    +0.000 HD
ENDBRANCH  31  33
ENDBRANCH  28  31
ENDBRANCH  24  25
ENDBRANCH  22  24
ENDBRANCH   5  20
TORSDOF 9
ENDMDL
