MODEL 1
REMARK VINA RESULT:      -7.5      0.000      0.000
REMARK  Name = 
REMARK  2 active torsions:
REMARK  status: ('A' for Active; 'I' for Inactive)
REMARK    1  A    between atoms: S_2  and  C_5
REMARK    2  A    between atoms: C_6  and  C_7
REMARK                            x       y       z     vdW  Elec       q    Type
REMARK                         _______ _______ _______ _____ _____    ______ ____
ROOT
ATOM      1  C   UNL     1       3.147   3.680  17.702  0.00  0.00    +0.000 A 
ATOM      2  C   UNL     1       2.750   2.336  17.717  0.00  0.00    +0.000 A 
ATOM      3  C   UNL     1       1.840   1.879  18.665  0.00  0.00    +0.000 A 
ATOM      4  C   UNL     1       1.326   2.759  19.617  0.00  0.00    +0.000 A 
ATOM      5  C   UNL     1       1.714   4.106  19.633  0.00  0.00    +0.000 A 
ATOM      6  C   UNL     1       1.200   4.977  20.610  0.00  0.00    +0.000 A 
ATOM      7  C   UNL     1       1.574   6.319  20.641  0.00  0.00    +0.000 A 
ATOM      8  C   UNL     1       2.451   6.814  19.684  0.00  0.00    +0.000 A 
ATOM      9  C   UNL     1       2.965   5.964  18.705  0.00  0.00    +0.000 A 
ATOM     10  C   UNL     1       2.626   4.590  18.661  0.00  0.00    +0.000 A 
ENDROOT
BRANCH   1  12
ATOM     11  C   UNL     1       5.439   4.104  16.933  0.00  0.00    +0.000 C 
ATOM     12  C   UNL     1       4.122   4.092  16.680  0.00  0.00    +0.000 C 
BRANCH  11  14
ATOM     13  O   UNL     1       7.893   4.518  16.167  0.00  0.00    +0.000 OA
ATOM     14  S   UNL     1       6.527   4.637  15.699  0.00  0.00    +0.000 S 
ATOM     15  O   UNL     1       6.030   5.867  15.115  0.00  0.00    +0.000 OA
ATOM     16  F   UNL     1       6.395   3.555  14.543  0.00  0.00    +0.000 F 
ENDBRANCH  11  14
ENDBRANCH   1  12
TORSDOF 2
ENDMDL
MODEL 2
REMARK VINA RESULT:      -7.4      0.809      2.700
REMARK  Name = 
REMARK  2 active torsions:
REMARK  status: ('A' for Active; 'I' for Inactive)
REMARK    1  A    between atoms: S_2  and  C_5
REMARK    2  A    between atoms: C_6  and  C_7
REMARK                            x       y       z     vdW  Elec       q    Type
REMARK                         _______ _______ _______ _____ _____    ______ ____
ROOT
ATOM      1  C   UNL     1       3.374   5.474  18.195  0.00  0.00    +0.000 A 
ATOM      2  C   UNL     1       3.207   6.831  18.507  0.00  0.00    +0.000 A 
ATOM      3  C   UNL     1       2.374   7.218  19.551  0.00  0.00    +0.000 A 
ATOM      4  C   UNL     1       1.687   6.253  20.288  0.00  0.00    +0.000 A 
ATOM      5  C   UNL     1       1.825   4.889  19.992  0.00  0.00    +0.000 A 
ATOM      6  C   UNL     1       1.113   3.930  20.732  0.00  0.00    +0.000 A 
ATOM      7  C   UNL     1       1.239   2.571  20.452  0.00  0.00    +0.000 A 
ATOM      8  C   UNL     1       2.094   2.150  19.441  0.00  0.00    +0.000 A 
ATOM      9  C   UNL     1       2.812   3.090  18.700  0.00  0.00    +0.000 A 
ATOM     10  C   UNL     1       2.687   4.480  18.943  0.00  0.00    +0.000 A 
ENDROOT
BRANCH   1  12
ATOM     11  C   UNL     1       5.593   5.093  17.219  0.00  0.00    +0.000 C 
ATOM     12  C   UNL     1       4.261   5.137  17.071  0.00  0.00    +0.000 C 
BRANCH  11  14
ATOM     13  O   UNL     1       7.936   4.461  16.276  0.00  0.00    +0.000 OA
ATOM     14  S   UNL     1       6.579   4.729  15.846  0.00  0.00    +0.000 S 
ATOM     15  O   UNL     1       6.294   5.671  14.782  0.00  0.00    +0.000 OA
ATOM     16  F   UNL     1       6.036   3.335  15.311  0.00  0.00    +0.000 F 
ENDBRANCH  11  14
ENDBRANCH   1  12
TORSDOF 2
ENDMDL
MODEL 3
REMARK VINA RESULT:      -7.4      0.888      1.062
REMARK  Name = 
REMARK  2 active torsions:
REMARK  status: ('A' for Active; 'I' for Inactive)
REMARK    1  A    between atoms: S_2  and  C_5
REMARK    2  A    between atoms: C_6  and  C_7
REMARK                            x       y       z     vdW  Elec       q    Type
REMARK                         _______ _______ _______ _____ _____    ______ ____
ROOT
ATOM      1  C   UNL     1       3.151   3.667  17.644  0.00  0.00    +0.000 A 
ATOM      2  C   UNL     1       2.810   2.309  17.723  0.00  0.00    +0.000 A 
ATOM      3  C   UNL     1       1.980   1.848  18.739  0.00  0.00    +0.000 A 
ATOM      4  C   UNL     1       1.489   2.737  19.695  0.00  0.00    +0.000 A 
ATOM      5  C   UNL     1       1.822   4.099  19.647  0.00  0.00    +0.000 A 
ATOM      6  C   UNL     1       1.335   4.979  20.628  0.00  0.00    +0.000 A 
ATOM      7  C   UNL     1       1.656   6.335  20.596  0.00  0.00    +0.000 A 
ATOM      8  C   UNL     1       2.451   6.833  19.573  0.00  0.00    +0.000 A 
ATOM      9  C   UNL     1       2.939   5.972  18.588  0.00  0.00    +0.000 A 
ATOM     10  C   UNL     1       2.653   4.585  18.606  0.00  0.00    +0.000 A 
ENDROOT
BRANCH   1  12
ATOM     11  C   UNL     1       5.374   3.939  16.641  0.00  0.00    +0.000 C 
ATOM     12  C   UNL     1       4.044   4.083  16.551  0.00  0.00    +0.000 C 
BRANCH  11  14
ATOM     13  O   UNL     1       6.223   3.594  14.203  0.00  0.00    +0.000 OA
ATOM     14  S   UNL     1       6.369   4.486  15.336  0.00  0.00    +0.000 S 
ATOM     15  O   UNL     1       7.674   4.856  15.845  0.00  0.00    +0.000 OA
ATOM     16  F   UNL     1       5.711   5.853  14.867  0.00  0.00    +0.000 F 
ENDBRANCH  11  14
ENDBRANCH   1  12
TORSDOF 2
ENDMDL
MODEL 4
REMARK VINA RESULT:      -7.3      1.165      2.913
REMARK  Name = 
REMARK  2 active torsions:
REMARK  status: ('A' for Active; 'I' for Inactive)
REMARK    1  A    between atoms: S_2  and  C_5
REMARK    2  A    between atoms: C_6  and  C_7
REMARK                            x       y       z     vdW  Elec       q    Type
REMARK                         _______ _______ _______ _____ _____    ______ ____
ROOT
ATOM      1  C   UNL     1       3.460   5.592  18.446  0.00  0.00    +0.000 A 
ATOM      2  C   UNL     1       3.185   6.721  19.230  0.00  0.00    +0.000 A 
ATOM      3  C   UNL     1       2.179   6.685  20.191  0.00  0.00    +0.000 A 
ATOM      4  C   UNL     1       1.429   5.524  20.371  0.00  0.00    +0.000 A 
ATOM      5  C   UNL     1       1.675   4.382  19.594  0.00  0.00    +0.000 A 
ATOM      6  C   UNL     1       0.899   3.225  19.774  0.00  0.00    +0.000 A 
ATOM      7  C   UNL     1       1.129   2.081  19.012  0.00  0.00    +0.000 A 
ATOM      8  C   UNL     1       2.152   2.073  18.071  0.00  0.00    +0.000 A 
ATOM      9  C   UNL     1       2.934   3.213  17.883  0.00  0.00    +0.000 A 
ATOM     10  C   UNL     1       2.709   4.399  18.624  0.00  0.00    +0.000 A 
ENDROOT
BRANCH   1  12
ATOM     11  C   UNL     1       5.800   5.398  17.733  0.00  0.00    +0.000 C 
ATOM     12  C   UNL     1       4.528   5.704  17.441  0.00  0.00    +0.000 C 
BRANCH  11  14
ATOM     13  O   UNL     1       7.866   4.420  16.486  0.00  0.00    +0.000 OA
ATOM     14  S   UNL     1       7.013   5.591  16.516  0.00  0.00    +0.000 S 
ATOM     15  O   UNL     1       7.565   6.929  16.590  0.00  0.00    +0.000 OA
ATOM     16  F   UNL     1       6.219   5.553  15.140  0.00  0.00    +0.000 F 
ENDBRANCH  11  14
ENDBRANCH   1  12
TORSDOF 2
ENDMDL
MODEL 5
REMARK VINA RESULT:      -7.2      1.745      3.353
REMARK  Name = 
REMARK  2 active torsions:
REMARK  status: ('A' for Active; 'I' for Inactive)
REMARK    1  A    between atoms: S_2  and  C_5
REMARK    2  A    between atoms: C_6  and  C_7
REMARK                            x       y       z     vdW  Elec       q    Type
REMARK                         _______ _______ _______ _____ _____    ______ ____
ROOT
ATOM      1  C   UNL     1       3.369   5.602  18.846  0.00  0.00    +0.000 A 
ATOM      2  C   UNL     1       2.887   6.587  19.721  0.00  0.00    +0.000 A 
ATOM      3  C   UNL     1       1.775   6.339  20.519  0.00  0.00    +0.000 A 
ATOM      4  C   UNL     1       1.123   5.109  20.443  0.00  0.00    +0.000 A 
ATOM      5  C   UNL     1       1.575   4.109  19.570  0.00  0.00    +0.000 A 
ATOM      6  C   UNL     1       0.898   2.880  19.491  0.00  0.00    +0.000 A 
ATOM      7  C   UNL     1       1.333   1.875  18.629  0.00  0.00    +0.000 A 
ATOM      8  C   UNL     1       2.464   2.078  17.848  0.00  0.00    +0.000 A 
ATOM      9  C   UNL     1       3.151   3.291  17.918  0.00  0.00    +0.000 A 
ATOM     10  C   UNL     1       2.719   4.341  18.764  0.00  0.00    +0.000 A 
ENDROOT
BRANCH   1  12
ATOM     11  C   UNL     1       5.787   5.662  18.435  0.00  0.00    +0.000 C 
ATOM     12  C   UNL     1       4.541   5.936  18.023  0.00  0.00    +0.000 C 
BRANCH  11  14
ATOM     13  O   UNL     1       6.749   7.244  16.604  0.00  0.00    +0.000 OA
ATOM     14  S   UNL     1       7.122   6.118  17.435  0.00  0.00    +0.000 S 
ATOM     15  O   UNL     1       7.731   4.929  16.871  0.00  0.00    +0.000 OA
ATOM     16  F   UNL     1       8.208   6.693  18.441  0.00  0.00    +0.000 F 
ENDBRANCH  11  14
ENDBRANCH   1  12
TORSDOF 2
ENDMDL
MODEL 6
REMARK VINA RESULT:      -7.1      1.125      2.904
REMARK  Name = 
REMARK  2 active torsions:
REMARK  status: ('A' for Active; 'I' for Inactive)
REMARK    1  A    between atoms: S_2  and  C_5
REMARK    2  A    between atoms: C_6  and  C_7
REMARK                            x       y       z     vdW  Elec       q    Type
REMARK                         _______ _______ _______ _____ _____    ______ ____
ROOT
ATOM      1  C   UNL     1       3.276   5.688  18.413  0.00  0.00    +0.000 A 
ATOM      2  C   UNL     1       3.014   6.782  19.250  0.00  0.00    +0.000 A 
ATOM      3  C   UNL     1       2.080   6.679  20.275  0.00  0.00    +0.000 A 
ATOM      4  C   UNL     1       1.387   5.483  20.469  0.00  0.00    +0.000 A 
ATOM      5  C   UNL     1       1.620   4.376  19.640  0.00  0.00    +0.000 A 
ATOM      6  C   UNL     1       0.902   3.184  19.836  0.00  0.00    +0.000 A 
ATOM      7  C   UNL     1       1.122   2.074  19.023  0.00  0.00    +0.000 A 
ATOM      8  C   UNL     1       2.075   2.133  18.015  0.00  0.00    +0.000 A 
ATOM      9  C   UNL     1       2.800   3.309  17.811  0.00  0.00    +0.000 A 
ATOM     10  C   UNL     1       2.584   4.462  18.603  0.00  0.00    +0.000 A 
ENDROOT
BRANCH   1  12
ATOM     11  C   UNL     1       5.527   5.437  17.471  0.00  0.00    +0.000 C 
ATOM     12  C   UNL     1       4.266   5.872  17.341  0.00  0.00    +0.000 C 
BRANCH  11  14
ATOM     13  O   UNL     1       7.596   6.745  16.583  0.00  0.00    +0.000 OA
ATOM     14  S   UNL     1       6.651   5.721  16.188  0.00  0.00    +0.000 S 
ATOM     15  O   UNL     1       5.938   5.794  14.928  0.00  0.00    +0.000 OA
ATOM     16  F   UNL     1       7.509   4.387  16.094  0.00  0.00    +0.000 F 
ENDBRANCH  11  14
ENDBRANCH   1  12
TORSDOF 2
ENDMDL
MODEL 7
REMARK VINA RESULT:      -7.1      1.068      1.392
REMARK  Name = 
REMARK  2 active torsions:
REMARK  status: ('A' for Active; 'I' for Inactive)
REMARK    1  A    between atoms: S_2  and  C_5
REMARK    2  A    between atoms: C_6  and  C_7
REMARK                            x       y       z     vdW  Elec       q    Type
REMARK                         _______ _______ _______ _____ _____    ______ ____
ROOT
ATOM      1  C   UNL     1       3.394   3.845  17.729  0.00  0.00    +0.000 A 
ATOM      2  C   UNL     1       3.092   2.481  17.618  0.00  0.00    +0.000 A 
ATOM      3  C   UNL     1       2.151   1.896  18.459  0.00  0.00    +0.000 A 
ATOM      4  C   UNL     1       1.509   2.666  19.428  0.00  0.00    +0.000 A 
ATOM      5  C   UNL     1       1.799   4.031  19.569  0.00  0.00    +0.000 A 
ATOM      6  C   UNL     1       1.157   4.790  20.563  0.00  0.00    +0.000 A 
ATOM      7  C   UNL     1       1.433   6.147  20.717  0.00  0.00    +0.000 A 
ATOM      8  C   UNL     1       2.339   6.769  19.868  0.00  0.00    +0.000 A 
ATOM      9  C   UNL     1       2.981   6.030  18.873  0.00  0.00    +0.000 A 
ATOM     10  C   UNL     1       2.743   4.644  18.706  0.00  0.00    +0.000 A 
ENDROOT
BRANCH   1  12
ATOM     11  C   UNL     1       5.639   4.713  17.246  0.00  0.00    +0.000 C 
ATOM     12  C   UNL     1       4.409   4.395  16.816  0.00  0.00    +0.000 C 
BRANCH  11  14
ATOM     13  O   UNL     1       6.061   5.958  14.999  0.00  0.00    +0.000 OA
ATOM     14  S   UNL     1       6.770   5.392  16.128  0.00  0.00    +0.000 S 
ATOM     15  O   UNL     1       7.878   4.476  15.945  0.00  0.00    +0.000 OA
ATOM     16  F   UNL     1       7.394   6.640  16.887  0.00  0.00    +0.000 F 
ENDBRANCH  11  14
ENDBRANCH   1  12
TORSDOF 2
ENDMDL
MODEL 8
REMARK VINA RESULT:      -7.1      0.856      1.047
REMARK  Name = 
REMARK  2 active torsions:
REMARK  status: ('A' for Active; 'I' for Inactive)
REMARK    1  A    between atoms: S_2  and  C_5
REMARK    2  A    between atoms: C_6  and  C_7
REMARK                            x       y       z     vdW  Elec       q    Type
REMARK                         _______ _______ _______ _____ _____    ______ ____
ROOT
ATOM      1  C   UNL     1       3.078   3.717  17.627  0.00  0.00    +0.000 A 
ATOM      2  C   UNL     1       2.737   2.359  17.709  0.00  0.00    +0.000 A 
ATOM      3  C   UNL     1       1.930   1.895  18.742  0.00  0.00    +0.000 A 
ATOM      4  C   UNL     1       1.463   2.780  19.713  0.00  0.00    +0.000 A 
ATOM      5  C   UNL     1       1.795   4.142  19.663  0.00  0.00    +0.000 A 
ATOM      6  C   UNL     1       1.332   5.019  20.658  0.00  0.00    +0.000 A 
ATOM      7  C   UNL     1       1.652   6.375  20.624  0.00  0.00    +0.000 A 
ATOM      8  C   UNL     1       2.425   6.876  19.584  0.00  0.00    +0.000 A 
ATOM      9  C   UNL     1       2.889   6.018  18.585  0.00  0.00    +0.000 A 
ATOM     10  C   UNL     1       2.602   4.632  18.605  0.00  0.00    +0.000 A 
ENDROOT
BRANCH   1  12
ATOM     11  C   UNL     1       5.280   4.042  16.596  0.00  0.00    +0.000 C 
ATOM     12  C   UNL     1       3.945   4.136  16.516  0.00  0.00    +0.000 C 
BRANCH  11  14
ATOM     13  O   UNL     1       6.029   6.008  15.062  0.00  0.00    +0.000 OA
ATOM     14  S   UNL     1       6.243   4.590  15.268  0.00  0.00    +0.000 S 
ATOM     15  O   UNL     1       6.145   3.642  14.176  0.00  0.00    +0.000 OA
ATOM     16  F   UNL     1       7.743   4.472  15.776  0.00  0.00    +0.000 F 
ENDBRANCH  11  14
ENDBRANCH   1  12
TORSDOF 2
ENDMDL
MODEL 9
REMARK VINA RESULT:      -6.9      4.366      5.549
REMARK  Name = 
REMARK  2 active torsions:
REMARK  status: ('A' for Active; 'I' for Inactive)
REMARK    1  A    between atoms: S_2  and  C_5
REMARK    2  A    between atoms: C_6  and  C_7
REMARK                            x       y       z     vdW  Elec       q    Type
REMARK                         _______ _______ _______ _____ _____    ______ ____
ROOT
ATOM      1  C   UNL     1       3.192   6.221  17.807  0.00  0.00    +0.000 A 
ATOM      2  C   UNL     1       4.406   6.586  17.208  0.00  0.00    +0.000 A 
ATOM      3  C   UNL     1       5.269   5.613  16.714  0.00  0.00    +0.000 A 
ATOM      4  C   UNL     1       4.935   4.264  16.825  0.00  0.00    +0.000 A 
ATOM      5  C   UNL     1       3.732   3.869  17.429  0.00  0.00    +0.000 A 
ATOM      6  C   UNL     1       3.417   2.505  17.549  0.00  0.00    +0.000 A 
ATOM      7  C   UNL     1       2.226   2.094  18.146  0.00  0.00    +0.000 A 
ATOM      8  C   UNL     1       1.326   3.043  18.613  0.00  0.00    +0.000 A 
ATOM      9  C   UNL     1       1.622   4.402  18.497  0.00  0.00    +0.000 A 
ATOM     10  C   UNL     1       2.834   4.851  17.919  0.00  0.00    +0.000 A 
ENDROOT
BRANCH   1  12
ATOM     11  C   UNL     1       2.383   8.538  17.805  0.00  0.00    +0.000 C 
ATOM     12  C   UNL     1       2.333   7.300  18.318  0.00  0.00    +0.000 C 
BRANCH  11  14
ATOM     13  O   UNL     1       1.931  11.074  18.186  0.00  0.00    +0.000 OA
ATOM     14  S   UNL     1       1.374   9.769  18.480  0.00  0.00    +0.000 S 
ATOM     15  O   UNL     1       0.990   9.396  19.827  0.00  0.00    +0.000 OA
ATOM     16  F   UNL     1       0.028   9.700  17.639  0.00  0.00    +0.000 F 
ENDBRANCH  11  14
ENDBRANCH   1  12
TORSDOF 2
ENDMDL
