MODEL 1
REMARK VINA RESULT:      -7.3      0.000      0.000
REMARK  Name = 
REMARK  8 active torsions:
REMARK  status: ('A' for Active; 'I' for Inactive)
REMARK    1  A    between atoms: C_1  and  N_2
REMARK    2  A    between atoms: N_2  and  C_3
REMARK    3  A    between atoms: N_2  and  C_16
REMARK    4  A    between atoms: C_3  and  C_4
REMARK    5  A    between atoms: C_4  and  C_5
REMARK    6  A    between atoms: N_7  and  C_8
REMARK    7  A    between atoms: C_8  and  C_9
REMARK    8  A    between atoms: C_16  and  C_17
REMARK                            x       y       z     vdW  Elec       q    Type
REMARK                         _______ _______ _______ _____ _____    ______ ____
ROOT
ATOM      1  C   UNL     1       7.784   7.407  17.875  0.00  0.00    +0.000 C 
ATOM      2  O   UNL     1       7.344   7.484  16.720  0.00  0.00    +0.000 OA
ATOM      3  N   UNL     1       8.331   8.472  18.545  0.00  0.00    +0.000 N 
ATOM      4  H   UNL     1       8.871   8.303  19.388  0.00  0.00    +0.000 HD
ENDROOT
BRANCH   1   5
ATOM      5  C   UNL     1       7.708   6.149  18.692  0.00  0.00    +0.000 C 
BRANCH   5   6
ATOM      6  C   UNL     1       7.523   4.917  17.801  0.00  0.00    +0.000 C 
BRANCH   6   8
ATOM      7  C   UNL     1       5.638   4.343  16.367  0.00  0.00    +0.000 C 
ATOM      8  N   UNL     1       6.120   4.470  17.742  0.00  0.00    +0.000 NA
BRANCH   8   9
ATOM      9  C   UNL     1       5.261   5.350  18.571  0.00  0.00    +0.000 C 
BRANCH   9  10
ATOM     10  C   UNL     1       4.159   4.640  19.402  0.00  0.00    +0.000 C 
ATOM     11  C   UNL     1       2.777   4.734  18.721  0.00  0.00    +0.000 C 
ATOM     12  O   UNL     1       1.806   3.894  19.364  0.00  0.00    +0.000 OA
ATOM     13  C   UNL     1       2.280   2.541  19.392  0.00  0.00    +0.000 C 
ATOM     14  C   UNL     1       3.558   2.476  20.219  0.00  0.00    +0.000 C 
ATOM     15  O   UNL     1       4.582   3.274  19.610  0.00  0.00    +0.000 OA
ENDBRANCH   9  10
ENDBRANCH   8   9
ENDBRANCH   6   8
ENDBRANCH   5   6
ENDBRANCH   1   5
BRANCH   3  16
ATOM     16  C   UNL     1       8.475   9.740  17.884  0.00  0.00    +0.000 C 
BRANCH  16  17
ATOM     17  C   UNL     1       9.446  10.638  18.598  0.00  0.00    +0.000 A 
ATOM     18  C   UNL     1       9.429  10.767  19.994  0.00  0.00    +0.000 A 
ATOM     19  C   UNL     1      10.314  11.635  20.638  0.00  0.00    +0.000 A 
ATOM     20  C   UNL     1      11.217  12.392  19.892  0.00  0.00    +0.000 A 
ATOM     21  C   UNL     1      11.237  12.272  18.505  0.00  0.00    +0.000 A 
ATOM     22 CL   UNL     1      12.333  13.223  17.579  0.00  0.00    +0.000 Cl
ATOM     23  C   UNL     1      10.362  11.400  17.858  0.00  0.00    +0.000 A 
ENDBRANCH  16  17
ENDBRANCH   3  16
TORSDOF 7
ENDMDL
MODEL 2
REMARK VINA RESULT:      -6.7      5.274      7.737
REMARK  Name = 
REMARK  8 active torsions:
REMARK  status: ('A' for Active; 'I' for Inactive)
REMARK    1  A    between atoms: C_1  and  N_2
REMARK    2  A    between atoms: N_2  and  C_3
REMARK    3  A    between atoms: N_2  and  C_16
REMARK    4  A    between atoms: C_3  and  C_4
REMARK    5  A    between atoms: C_4  and  C_5
REMARK    6  A    between atoms: N_7  and  C_8
REMARK    7  A    between atoms: C_8  and  C_9
REMARK    8  A    between atoms: C_16  and  C_17
REMARK                            x       y       z     vdW  Elec       q    Type
REMARK                         _______ _______ _______ _____ _____    ______ ____
ROOT
ATOM      1  C   UNL     1       2.367   6.528  19.501  0.00  0.00    +0.000 C 
ATOM      2  O   UNL     1       2.514   6.790  18.300  0.00  0.00    +0.000 OA
ATOM      3  N   UNL     1       1.835   7.413  20.405  0.00  0.00    +0.000 N 
ATOM      4  H   UNL     1       1.945   7.232  21.398  0.00  0.00    +0.000 HD
ENDROOT
BRANCH   1   5
ATOM      5  C   UNL     1       2.698   5.185  20.087  0.00  0.00    +0.000 C 
BRANCH   5   6
ATOM      6  C   UNL     1       2.383   4.055  19.103  0.00  0.00    +0.000 C 
BRANCH   6   8
ATOM      7  C   UNL     1       3.440   2.019  18.280  0.00  0.00    +0.000 C 
ATOM      8  N   UNL     1       3.600   3.451  18.531  0.00  0.00    +0.000 NA
BRANCH   8   9
ATOM      9  C   UNL     1       4.778   3.756  19.379  0.00  0.00    +0.000 C 
BRANCH   9  10
ATOM     10  C   UNL     1       6.001   4.371  18.650  0.00  0.00    +0.000 C 
ATOM     11  C   UNL     1       5.580   5.179  17.404  0.00  0.00    +0.000 C 
ATOM     12  O   UNL     1       6.675   5.932  16.859  0.00  0.00    +0.000 OA
ATOM     13  C   UNL     1       7.224   6.787  17.871  0.00  0.00    +0.000 C 
ATOM     14  C   UNL     1       7.778   5.930  19.003  0.00  0.00    +0.000 C 
ATOM     15  O   UNL     1       6.723   5.173  19.611  0.00  0.00    +0.000 OA
ENDBRANCH   9  10
ENDBRANCH   8   9
ENDBRANCH   6   8
ENDBRANCH   5   6
ENDBRANCH   1   5
BRANCH   3  16
ATOM     16  C   UNL     1       1.479   8.740  19.987  0.00  0.00    +0.000 C 
BRANCH  16  17
ATOM     17  C   UNL     1       0.662   9.456  21.026  0.00  0.00    +0.000 A 
ATOM     18  C   UNL     1       0.614   9.005  22.352  0.00  0.00    +0.000 A 
ATOM     19  C   UNL     1      -0.180   9.660  23.297  0.00  0.00    +0.000 A 
ATOM     20  C   UNL     1      -0.943  10.766  22.922  0.00  0.00    +0.000 A 
ATOM     21  C   UNL     1      -0.903  11.217  21.605  0.00  0.00    +0.000 A 
ATOM     22 CL   UNL     1      -1.862  12.566  21.134  0.00  0.00    +0.000 Cl
ATOM     23  C   UNL     1      -0.105  10.572  20.661  0.00  0.00    +0.000 A 
ENDBRANCH  16  17
ENDBRANCH   3  16
TORSDOF 7
ENDMDL
MODEL 3
REMARK VINA RESULT:      -6.6      6.525      9.152
REMARK  Name = 
REMARK  8 active torsions:
REMARK  status: ('A' for Active; 'I' for Inactive)
REMARK    1  A    between atoms: C_1  and  N_2
REMARK    2  A    between atoms: N_2  and  C_3
REMARK    3  A    between atoms: N_2  and  C_16
REMARK    4  A    between atoms: C_3  and  C_4
REMARK    5  A    between atoms: C_4  and  C_5
REMARK    6  A    between atoms: N_7  and  C_8
REMARK    7  A    between atoms: C_8  and  C_9
REMARK    8  A    between atoms: C_16  and  C_17
REMARK                            x       y       z     vdW  Elec       q    Type
REMARK                         _______ _______ _______ _____ _____    ______ ____
ROOT
ATOM      1  C   UNL     1       1.362   9.170  18.735  0.00  0.00    +0.000 C 
ATOM      2  O   UNL     1       1.113   9.020  19.938  0.00  0.00    +0.000 OA
ATOM      3  N   UNL     1       0.908  10.236  18.000  0.00  0.00    +0.000 N 
ATOM      4  H   UNL     1       0.952  10.194  16.987  0.00  0.00    +0.000 HD
ENDROOT
BRANCH   1   5
ATOM      5  C   UNL     1       2.243   8.230  17.963  0.00  0.00    +0.000 C 
BRANCH   5   6
ATOM      6  C   UNL     1       2.820   7.137  18.867  0.00  0.00    +0.000 C 
BRANCH   6   8
ATOM      7  C   UNL     1       2.025   4.966  19.639  0.00  0.00    +0.000 C 
ATOM      8  N   UNL     1       2.367   5.789  18.479  0.00  0.00    +0.000 NA
BRANCH   8   9
ATOM      9  C   UNL     1       3.365   5.142  17.593  0.00  0.00    +0.000 C 
BRANCH   9  10
ATOM     10  C   UNL     1       4.854   5.451  17.903  0.00  0.00    +0.000 C 
ATOM     11  C   UNL     1       5.540   4.280  18.639  0.00  0.00    +0.000 C 
ATOM     12  O   UNL     1       6.962   4.465  18.727  0.00  0.00    +0.000 OA
ATOM     13  C   UNL     1       7.508   4.644  17.414  0.00  0.00    +0.000 C 
ATOM     14  C   UNL     1       6.922   5.907  16.796  0.00  0.00    +0.000 C 
ATOM     15  O   UNL     1       5.502   5.774  16.653  0.00  0.00    +0.000 OA
ENDBRANCH   9  10
ENDBRANCH   8   9
ENDBRANCH   6   8
ENDBRANCH   5   6
ENDBRANCH   1   5
BRANCH   3  16
ATOM     16  C   UNL     1       0.048  11.214  18.607  0.00  0.00    +0.000 C 
BRANCH  16  17
ATOM     17  C   UNL     1      -1.395  10.987  18.254  0.00  0.00    +0.000 A 
ATOM     18  C   UNL     1      -1.770  10.048  17.283  0.00  0.00    +0.000 A 
ATOM     19  C   UNL     1      -3.113   9.878  16.939  0.00  0.00    +0.000 A 
ATOM     20  C   UNL     1      -4.096  10.652  17.557  0.00  0.00    +0.000 A 
ATOM     21  C   UNL     1      -3.731  11.589  18.521  0.00  0.00    +0.000 A 
ATOM     22 CL   UNL     1      -4.938  12.563  19.267  0.00  0.00    +0.000 Cl
ATOM     23  C   UNL     1      -2.392  11.757  18.873  0.00  0.00    +0.000 A 
ENDBRANCH  16  17
ENDBRANCH   3  16
TORSDOF 7
ENDMDL
MODEL 4
REMARK VINA RESULT:      -6.6      5.871      7.401
REMARK  Name = 
REMARK  8 active torsions:
REMARK  status: ('A' for Active; 'I' for Inactive)
REMARK    1  A    between atoms: C_1  and  N_2
REMARK    2  A    between atoms: N_2  and  C_3
REMARK    3  A    between atoms: N_2  and  C_16
REMARK    4  A    between atoms: C_3  and  C_4
REMARK    5  A    between atoms: C_4  and  C_5
REMARK    6  A    between atoms: N_7  and  C_8
REMARK    7  A    between atoms: C_8  and  C_9
REMARK    8  A    between atoms: C_16  and  C_17
REMARK                            x       y       z     vdW  Elec       q    Type
REMARK                         _______ _______ _______ _____ _____    ______ ____
ROOT
ATOM      1  C   UNL     1       2.531   7.805  18.448  0.00  0.00    +0.000 C 
ATOM      2  O   UNL     1       2.636   8.422  17.381  0.00  0.00    +0.000 OA
ATOM      3  N   UNL     1       1.766   8.245  19.500  0.00  0.00    +0.000 N 
ATOM      4  H   UNL     1       1.892   7.823  20.414  0.00  0.00    +0.000 HD
ENDROOT
BRANCH   1   5
ATOM      5  C   UNL     1       3.181   6.472  18.685  0.00  0.00    +0.000 C 
BRANCH   5   6
ATOM      6  C   UNL     1       3.885   5.963  17.424  0.00  0.00    +0.000 C 
BRANCH   6   8
ATOM      7  C   UNL     1       6.074   4.907  17.248  0.00  0.00    +0.000 C 
ATOM      8  N   UNL     1       4.684   4.751  17.675  0.00  0.00    +0.000 NA
BRANCH   8   9
ATOM      9  C   UNL     1       4.029   3.565  17.071  0.00  0.00    +0.000 C 
BRANCH   9  10
ATOM     10  C   UNL     1       3.148   2.713  18.024  0.00  0.00    +0.000 C 
ATOM     11  C   UNL     1       3.552   2.904  19.501  0.00  0.00    +0.000 C 
ATOM     12  O   UNL     1       2.604   2.301  20.397  0.00  0.00    +0.000 OA
ATOM     13  C   UNL     1       1.296   2.831  20.144  0.00  0.00    +0.000 C 
ATOM     14  C   UNL     1       0.876   2.470  18.725  0.00  0.00    +0.000 C 
ATOM     15  O   UNL     1       1.770   3.069  17.777  0.00  0.00    +0.000 OA
ENDBRANCH   9  10
ENDBRANCH   8   9
ENDBRANCH   6   8
ENDBRANCH   5   6
ENDBRANCH   1   5
BRANCH   3  16
ATOM     16  C   UNL     1       1.091   9.510  19.418  0.00  0.00    +0.000 C 
BRANCH  16  17
ATOM     17  C   UNL     1       0.420   9.873  20.712  0.00  0.00    +0.000 A 
ATOM     18  C   UNL     1       0.573   9.082  21.860  0.00  0.00    +0.000 A 
ATOM     19  C   UNL     1      -0.089   9.413  23.045  0.00  0.00    +0.000 A 
ATOM     20  C   UNL     1      -0.919  10.534  23.091  0.00  0.00    +0.000 A 
ATOM     21  C   UNL     1      -1.079  11.322  21.955  0.00  0.00    +0.000 A 
ATOM     22 CL   UNL     1      -2.122  12.690  22.002  0.00  0.00    +0.000 Cl
ATOM     23  C   UNL     1      -0.414  11.000  20.772  0.00  0.00    +0.000 A 
ENDBRANCH  16  17
ENDBRANCH   3  16
TORSDOF 7
ENDMDL
MODEL 5
REMARK VINA RESULT:      -6.6      4.197      6.132
REMARK  Name = 
REMARK  8 active torsions:
REMARK  status: ('A' for Active; 'I' for Inactive)
REMARK    1  A    between atoms: C_1  and  N_2
REMARK    2  A    between atoms: N_2  and  C_3
REMARK    3  A    between atoms: N_2  and  C_16
REMARK    4  A    between atoms: C_3  and  C_4
REMARK    5  A    between atoms: C_4  and  C_5
REMARK    6  A    between atoms: N_7  and  C_8
REMARK    7  A    between atoms: C_8  and  C_9
REMARK    8  A    between atoms: C_16  and  C_17
REMARK                            x       y       z     vdW  Elec       q    Type
REMARK                         _______ _______ _______ _____ _____    ______ ____
ROOT
ATOM      1  C   UNL     1       3.000   2.766  17.787  0.00  0.00    +0.000 C 
ATOM      2  O   UNL     1       2.257   3.028  16.832  0.00  0.00    +0.000 OA
ATOM      3  N   UNL     1       4.308   3.175  17.857  0.00  0.00    +0.000 N 
ATOM      4  H   UNL     1       4.923   2.750  18.543  0.00  0.00    +0.000 HD
ENDROOT
BRANCH   1   5
ATOM      5  C   UNL     1       2.528   2.024  19.005  0.00  0.00    +0.000 C 
BRANCH   5   6
ATOM      6  C   UNL     1       3.051   2.672  20.290  0.00  0.00    +0.000 C 
BRANCH   6   8
ATOM      7  C   UNL     1       0.708   3.343  20.344  0.00  0.00    +0.000 C 
ATOM      8  N   UNL     1       2.020   3.470  20.978  0.00  0.00    +0.000 NA
BRANCH   8   9
ATOM      9  C   UNL     1       2.459   4.881  21.109  0.00  0.00    +0.000 C 
BRANCH   9  10
ATOM     10  C   UNL     1       1.935   5.861  20.026  0.00  0.00    +0.000 C 
ATOM     11  C   UNL     1       1.799   7.298  20.572  0.00  0.00    +0.000 C 
ATOM     12  O   UNL     1       1.533   8.245  19.524  0.00  0.00    +0.000 OA
ATOM     13  C   UNL     1       2.561   8.163  18.528  0.00  0.00    +0.000 C 
ATOM     14  C   UNL     1       2.542   6.774  17.902  0.00  0.00    +0.000 C 
ATOM     15  O   UNL     1       2.831   5.781  18.895  0.00  0.00    +0.000 OA
ENDBRANCH   9  10
ENDBRANCH   8   9
ENDBRANCH   6   8
ENDBRANCH   5   6
ENDBRANCH   1   5
BRANCH   3  16
ATOM     16  C   UNL     1       4.898   3.890  16.759  0.00  0.00    +0.000 C 
BRANCH  16  17
ATOM     17  C   UNL     1       5.832   4.969  17.230  0.00  0.00    +0.000 A 
ATOM     18  C   UNL     1       5.995   6.159  16.506  0.00  0.00    +0.000 A 
ATOM     19  C   UNL     1       6.897   7.135  16.937  0.00  0.00    +0.000 A 
ATOM     20  C   UNL     1       7.653   6.926  18.091  0.00  0.00    +0.000 A 
ATOM     21  C   UNL     1       7.499   5.746  18.813  0.00  0.00    +0.000 A 
ATOM     22 CL   UNL     1       8.449   5.474  20.222  0.00  0.00    +0.000 Cl
ATOM     23  C   UNL     1       6.595   4.772  18.391  0.00  0.00    +0.000 A 
ENDBRANCH  16  17
ENDBRANCH   3  16
TORSDOF 7
ENDMDL
MODEL 6
REMARK VINA RESULT:      -6.6      1.777      2.252
REMARK  Name = 
REMARK  8 active torsions:
REMARK  status: ('A' for Active; 'I' for Inactive)
REMARK    1  A    between atoms: C_1  and  N_2
REMARK    2  A    between atoms: N_2  and  C_3
REMARK    3  A    between atoms: N_2  and  C_16
REMARK    4  A    between atoms: C_3  and  C_4
REMARK    5  A    between atoms: C_4  and  C_5
REMARK    6  A    between atoms: N_7  and  C_8
REMARK    7  A    between atoms: C_8  and  C_9
REMARK    8  A    between atoms: C_16  and  C_17
REMARK                            x       y       z     vdW  Elec       q    Type
REMARK                         _______ _______ _______ _____ _____    ______ ____
ROOT
ATOM      1  C   UNL     1       7.866   7.646  17.930  0.00  0.00    +0.000 C 
ATOM      2  O   UNL     1       8.303   6.965  18.866  0.00  0.00    +0.000 OA
ATOM      3  N   UNL     1       8.133   8.985  17.784  0.00  0.00    +0.000 N 
ATOM      4  H   UNL     1       7.577   9.533  17.137  0.00  0.00    +0.000 HD
ENDROOT
BRANCH   1   5
ATOM      5  C   UNL     1       7.045   7.065  16.814  0.00  0.00    +0.000 C 
BRANCH   5   6
ATOM      6  C   UNL     1       5.659   6.640  17.305  0.00  0.00    +0.000 C 
BRANCH   6   8
ATOM      7  C   UNL     1       6.413   4.479  16.467  0.00  0.00    +0.000 C 
ATOM      8  N   UNL     1       5.516   5.175  17.388  0.00  0.00    +0.000 NA
BRANCH   8   9
ATOM      9  C   UNL     1       4.097   4.782  17.211  0.00  0.00    +0.000 C 
BRANCH   9  10
ATOM     10  C   UNL     1       3.648   3.495  17.953  0.00  0.00    +0.000 C 
ATOM     11  C   UNL     1       4.038   3.528  19.446  0.00  0.00    +0.000 C 
ATOM     12  O   UNL     1       3.433   2.452  20.181  0.00  0.00    +0.000 OA
ATOM     13  C   UNL     1       2.009   2.495  20.015  0.00  0.00    +0.000 C 
ATOM     14  C   UNL     1       1.670   2.291  18.544  0.00  0.00    +0.000 C 
ATOM     15  O   UNL     1       2.223   3.353  17.757  0.00  0.00    +0.000 OA
ENDBRANCH   9  10
ENDBRANCH   8   9
ENDBRANCH   6   8
ENDBRANCH   5   6
ENDBRANCH   1   5
BRANCH   3  16
ATOM     16  C   UNL     1       8.902   9.677  18.781  0.00  0.00    +0.000 C 
BRANCH  16  17
ATOM     17  C   UNL     1       9.392  11.009  18.287  0.00  0.00    +0.000 A 
ATOM     18  C   UNL     1      10.733  11.204  17.926  0.00  0.00    +0.000 A 
ATOM     19  C   UNL     1      11.180  12.459  17.505  0.00  0.00    +0.000 A 
ATOM     20  C   UNL     1      10.293  13.534  17.451  0.00  0.00    +0.000 A 
ATOM     21  C   UNL     1       8.960  13.349  17.811  0.00  0.00    +0.000 A 
ATOM     22 CL   UNL     1       7.870  14.679  17.770  0.00  0.00    +0.000 Cl
ATOM     23  C   UNL     1       8.508  12.096  18.224  0.00  0.00    +0.000 A 
ENDBRANCH  16  17
ENDBRANCH   3  16
TORSDOF 7
ENDMDL
MODEL 7
REMARK VINA RESULT:      -6.5      5.259      6.692
REMARK  Name = 
REMARK  8 active torsions:
REMARK  status: ('A' for Active; 'I' for Inactive)
REMARK    1  A    between atoms: C_1  and  N_2
REMARK    2  A    between atoms: N_2  and  C_3
REMARK    3  A    between atoms: N_2  and  C_16
REMARK    4  A    between atoms: C_3  and  C_4
REMARK    5  A    between atoms: C_4  and  C_5
REMARK    6  A    between atoms: N_7  and  C_8
REMARK    7  A    between atoms: C_8  and  C_9
REMARK    8  A    between atoms: C_16  and  C_17
REMARK                            x       y       z     vdW  Elec       q    Type
REMARK                         _______ _______ _______ _____ _____    ______ ____
ROOT
ATOM      1  C   UNL     1       5.623   6.566  16.817  0.00  0.00    +0.000 C 
ATOM      2  O   UNL     1       6.670   7.225  16.760  0.00  0.00    +0.000 OA
ATOM      3  N   UNL     1       5.568   5.218  16.569  0.00  0.00    +0.000 N 
ATOM      4  H   UNL     1       4.666   4.779  16.412  0.00  0.00    +0.000 HD
ENDROOT
BRANCH   1   5
ATOM      5  C   UNL     1       4.308   7.164  17.227  0.00  0.00    +0.000 C 
BRANCH   5   6
ATOM      6  C   UNL     1       3.297   6.078  17.607  0.00  0.00    +0.000 C 
BRANCH   6   8
ATOM      7  C   UNL     1       2.200   7.925  18.759  0.00  0.00    +0.000 C 
ATOM      8  N   UNL     1       2.434   6.482  18.731  0.00  0.00    +0.000 NA
BRANCH   8   9
ATOM      9  C   UNL     1       2.975   5.965  20.012  0.00  0.00    +0.000 C 
BRANCH   9  10
ATOM     10  C   UNL     1       2.637   4.488  20.348  0.00  0.00    +0.000 C 
ATOM     11  C   UNL     1       1.156   4.160  20.061  0.00  0.00    +0.000 C 
ATOM     12  O   UNL     1       0.892   2.751  20.155  0.00  0.00    +0.000 OA
ATOM     13  C   UNL     1       1.763   2.037  19.268  0.00  0.00    +0.000 C 
ATOM     14  C   UNL     1       3.208   2.260  19.698  0.00  0.00    +0.000 C 
ATOM     15  O   UNL     1       3.544   3.651  19.598  0.00  0.00    +0.000 OA
ENDBRANCH   9  10
ENDBRANCH   8   9
ENDBRANCH   6   8
ENDBRANCH   5   6
ENDBRANCH   1   5
BRANCH   3  16
ATOM     16  C   UNL     1       6.751   4.513  16.160  0.00  0.00    +0.000 C 
BRANCH  16  17
ATOM     17  C   UNL     1       6.887   4.467  14.664  0.00  0.00    +0.000 A 
ATOM     18  C   UNL     1       7.765   5.323  13.985  0.00  0.00    +0.000 A 
ATOM     19  C   UNL     1       7.851   5.293  12.590  0.00  0.00    +0.000 A 
ATOM     20  C   UNL     1       7.051   4.414  11.860  0.00  0.00    +0.000 A 
ATOM     21  C   UNL     1       6.174   3.562  12.528  0.00  0.00    +0.000 A 
ATOM     22 CL   UNL     1       5.168   2.494  11.628  0.00  0.00    +0.000 Cl
ATOM     23  C   UNL     1       6.091   3.583  13.919  0.00  0.00    +0.000 A 
ENDBRANCH  16  17
ENDBRANCH   3  16
TORSDOF 7
ENDMDL
MODEL 8
REMARK VINA RESULT:      -6.5      5.654      7.360
REMARK  Name = 
REMARK  8 active torsions:
REMARK  status: ('A' for Active; 'I' for Inactive)
REMARK    1  A    between atoms: C_1  and  N_2
REMARK    2  A    between atoms: N_2  and  C_3
REMARK    3  A    between atoms: N_2  and  C_16
REMARK    4  A    between atoms: C_3  and  C_4
REMARK    5  A    between atoms: C_4  and  C_5
REMARK    6  A    between atoms: N_7  and  C_8
REMARK    7  A    between atoms: C_8  and  C_9
REMARK    8  A    between atoms: C_16  and  C_17
REMARK                            x       y       z     vdW  Elec       q    Type
REMARK                         _______ _______ _______ _____ _____    ______ ____
ROOT
ATOM      1  C   UNL     1       1.730   4.025  21.027  0.00  0.00    +0.000 C 
ATOM      2  O   UNL     1       2.514   3.969  21.983  0.00  0.00    +0.000 OA
ATOM      3  N   UNL     1       1.351   5.202  20.432  0.00  0.00    +0.000 N 
ATOM      4  H   UNL     1       0.548   5.208  19.812  0.00  0.00    +0.000 HD
ENDROOT
BRANCH   1   5
ATOM      5  C   UNL     1       1.157   2.801  20.372  0.00  0.00    +0.000 C 
BRANCH   5   6
ATOM      6  C   UNL     1       2.014   2.351  19.185  0.00  0.00    +0.000 C 
BRANCH   6   8
ATOM      7  C   UNL     1       1.708   3.928  17.352  0.00  0.00    +0.000 C 
ATOM      8  N   UNL     1       2.583   3.487  18.438  0.00  0.00    +0.000 NA
BRANCH   8   9
ATOM      9  C   UNL     1       3.955   3.168  17.975  0.00  0.00    +0.000 C 
BRANCH   9  10
ATOM     10  C   UNL     1       4.736   4.330  17.306  0.00  0.00    +0.000 C 
ATOM     11  C   UNL     1       6.120   4.539  17.955  0.00  0.00    +0.000 C 
ATOM     12  O   UNL     1       6.933   5.453  17.201  0.00  0.00    +0.000 OA
ATOM     13  C   UNL     1       7.058   4.987  15.851  0.00  0.00    +0.000 C 
ATOM     14  C   UNL     1       5.679   4.959  15.202  0.00  0.00    +0.000 C 
ATOM     15  O   UNL     1       4.826   4.037  15.893  0.00  0.00    +0.000 OA
ENDBRANCH   9  10
ENDBRANCH   8   9
ENDBRANCH   6   8
ENDBRANCH   5   6
ENDBRANCH   1   5
BRANCH   3  16
ATOM     16  C   UNL     1       1.817   6.456  20.958  0.00  0.00    +0.000 C 
BRANCH  16  17
ATOM     17  C   UNL     1       1.797   7.542  19.920  0.00  0.00    +0.000 A 
ATOM     18  C   UNL     1       2.457   7.389  18.693  0.00  0.00    +0.000 A 
ATOM     19  C   UNL     1       2.461   8.424  17.754  0.00  0.00    +0.000 A 
ATOM     20  C   UNL     1       1.814   9.626  18.038  0.00  0.00    +0.000 A 
ATOM     21  C   UNL     1       1.159   9.787  19.256  0.00  0.00    +0.000 A 
ATOM     22 CL   UNL     1       0.381  11.278  19.620  0.00  0.00    +0.000 Cl
ATOM     23  C   UNL     1       1.145   8.754  20.193  0.00  0.00    +0.000 A 
ENDBRANCH  16  17
ENDBRANCH   3  16
TORSDOF 7
ENDMDL
MODEL 9
REMARK VINA RESULT:      -6.5      5.107      7.501
REMARK  Name = 
REMARK  8 active torsions:
REMARK  status: ('A' for Active; 'I' for Inactive)
REMARK    1  A    between atoms: C_1  and  N_2
REMARK    2  A    between atoms: N_2  and  C_3
REMARK    3  A    between atoms: N_2  and  C_16
REMARK    4  A    between atoms: C_3  and  C_4
REMARK    5  A    between atoms: C_4  and  C_5
REMARK    6  A    between atoms: N_7  and  C_8
REMARK    7  A    between atoms: C_8  and  C_9
REMARK    8  A    between atoms: C_16  and  C_17
REMARK                            x       y       z     vdW  Elec       q    Type
REMARK                         _______ _______ _______ _____ _____    ______ ____
ROOT
ATOM      1  C   UNL     1       1.628   4.960  19.502  0.00  0.00    +0.000 C 
ATOM      2  O   UNL     1       1.399   5.000  18.286  0.00  0.00    +0.000 OA
ATOM      3  N   UNL     1       2.098   6.034  20.215  0.00  0.00    +0.000 N 
ATOM      4  H   UNL     1       2.475   5.884  21.145  0.00  0.00    +0.000 HD
ENDROOT
BRANCH   1   5
ATOM      5  C   UNL     1       1.355   3.745  20.342  0.00  0.00    +0.000 C 
BRANCH   5   6
ATOM      6  C   UNL     1       2.580   2.828  20.411  0.00  0.00    +0.000 C 
BRANCH   6   8
ATOM      7  C   UNL     1       3.547   1.577  18.556  0.00  0.00    +0.000 C 
ATOM      8  N   UNL     1       3.398   2.888  19.187  0.00  0.00    +0.000 NA
BRANCH   8   9
ATOM      9  C   UNL     1       4.700   3.540  19.465  0.00  0.00    +0.000 C 
BRANCH   9  10
ATOM     10  C   UNL     1       5.450   4.119  18.236  0.00  0.00    +0.000 C 
ATOM     11  C   UNL     1       4.881   5.489  17.811  0.00  0.00    +0.000 C 
ATOM     12  O   UNL     1       5.708   6.130  16.825  0.00  0.00    +0.000 OA
ATOM     13  C   UNL     1       7.045   6.256  17.326  0.00  0.00    +0.000 C 
ATOM     14  C   UNL     1       7.621   4.867  17.572  0.00  0.00    +0.000 C 
ATOM     15  O   UNL     1       6.854   4.184  18.573  0.00  0.00    +0.000 OA
ENDBRANCH   9  10
ENDBRANCH   8   9
ENDBRANCH   6   8
ENDBRANCH   5   6
ENDBRANCH   1   5
BRANCH   3  16
ATOM     16  C   UNL     1       2.411   7.263  19.540  0.00  0.00    +0.000 C 
BRANCH  16  17
ATOM     17  C   UNL     1       1.529   8.392  19.993  0.00  0.00    +0.000 A 
ATOM     18  C   UNL     1       1.193   9.446  19.131  0.00  0.00    +0.000 A 
ATOM     19  C   UNL     1       0.403  10.507  19.581  0.00  0.00    +0.000 A 
ATOM     20  C   UNL     1      -0.050  10.531  20.899  0.00  0.00    +0.000 A 
ATOM     21  C   UNL     1       0.282   9.489  21.762  0.00  0.00    +0.000 A 
ATOM     22 CL   UNL     1      -0.255   9.528  23.397  0.00  0.00    +0.000 Cl
ATOM     23  C   UNL     1       1.063   8.424  21.316  0.00  0.00    +0.000 A 
ENDBRANCH  16  17
ENDBRANCH   3  16
TORSDOF 7
ENDMDL
