MODEL 1
REMARK VINA RESULT:      -7.7      0.000      0.000
REMARK  Name = 
REMARK  8 active torsions:
REMARK  status: ('A' for Active; 'I' for Inactive)
REMARK    1  A    between atoms: C_1  and  C_2
REMARK    2  A    between atoms: C_2  and  C_3
REMARK    3  A    between atoms: C_3  and  C_4
REMARK    4  A    between atoms: N_8  and  C_9
REMARK    5  A    between atoms: C_9  and  C_10
REMARK    6  A    between atoms: C_13  and  C_14
REMARK    7  A    between atoms: C_19  and  C_20
REMARK    8  A    between atoms: C_20  and  O_22
REMARK                            x       y       z     vdW  Elec       q    Type
REMARK                         _______ _______ _______ _____ _____    ______ ____
ROOT
ATOM      1  C   UNL     1       1.196   9.177  19.539  0.00  0.00    +0.000 A 
ATOM      2  C   UNL     1       1.557   9.270  18.190  0.00  0.00    +0.000 A 
ATOM      3  C   UNL     1       2.381   8.300  17.595  0.00  0.00    +0.000 A 
ATOM      4  C   UNL     1       2.813   7.166  18.301  0.00  0.00    +0.000 A 
ATOM      5  C   UNL     1       2.412   7.073  19.649  0.00  0.00    +0.000 A 
ATOM      6  C   UNL     1       1.630   8.060  20.259  0.00  0.00    +0.000 A 
ENDROOT
BRANCH   4   7
ATOM      7  C   UNL     1       3.663   6.112  17.681  0.00  0.00    +0.000 A 
ATOM      8  C   UNL     1       4.912   6.500  17.128  0.00  0.00    +0.000 A 
ATOM      9  C   UNL     1       5.774   5.595  16.503  0.00  0.00    +0.000 A 
ATOM     10  C   UNL     1       5.411   4.263  16.393  0.00  0.00    +0.000 A 
ATOM     11  C   UNL     1       4.195   3.841  16.920  0.00  0.00    +0.000 A 
ATOM     12  C   UNL     1       3.324   4.742  17.576  0.00  0.00    +0.000 A 
BRANCH  12  13
ATOM     13  C   UNL     1       2.075   4.103  18.076  0.00  0.00    +0.000 C 
ATOM     14  O   UNL     1       1.996   3.628  19.196  0.00  0.00    +0.000 OA
BRANCH  13  15
ATOM     15  O   UNL     1       1.008   4.162  17.248  0.00  0.00    +0.000 OA
ATOM     16  H   UNL     1       0.330   3.475  17.386  0.00  0.00    +0.000 HD
ENDBRANCH  13  15
ENDBRANCH  12  13
ENDBRANCH   4   7
BRANCH   1  17
ATOM     17  C   UNL     1       0.452  10.294  20.232  0.00  0.00    +0.000 C 
BRANCH  17  22
ATOM     18  C   UNL     1      -0.964  11.662  18.604  0.00  0.00    +0.000 A 
ATOM     19  N   UNL     1      -0.937  12.883  18.102  0.00  0.00    +0.000 NA
ATOM     20  C   UNL     1       0.202  13.468  18.578  0.00  0.00    +0.000 A 
ATOM     21  C   UNL     1       0.891  12.598  19.382  0.00  0.00    +0.000 A 
ATOM     22  N   UNL     1       0.156  11.436  19.380  0.00  0.00    +0.000 N 
BRANCH  18  23
ATOM     23  C   UNL     1      -2.075  10.692  18.348  0.00  0.00    +0.000 C 
BRANCH  23  25
ATOM     24  C   UNL     1      -2.671  10.531  15.898  0.00  0.00    +0.000 C 
ATOM     25  C   UNL     1      -1.872   9.919  17.043  0.00  0.00    +0.000 C 
ENDBRANCH  23  25
ENDBRANCH  18  23
ENDBRANCH  17  22
ENDBRANCH   1  17
TORSDOF 7
ENDMDL
MODEL 2
REMARK VINA RESULT:      -7.6      3.787      7.834
REMARK  Name = 
REMARK  8 active torsions:
REMARK  status: ('A' for Active; 'I' for Inactive)
REMARK    1  A    between atoms: C_1  and  C_2
REMARK    2  A    between atoms: C_2  and  C_3
REMARK    3  A    between atoms: C_3  and  C_4
REMARK    4  A    between atoms: N_8  and  C_9
REMARK    5  A    between atoms: C_9  and  C_10
REMARK    6  A    between atoms: C_13  and  C_14
REMARK    7  A    between atoms: C_19  and  C_20
REMARK    8  A    between atoms: C_20  and  O_22
REMARK                            x       y       z     vdW  Elec       q    Type
REMARK                         _______ _______ _______ _____ _____    ______ ____
ROOT
ATOM      1  C   UNL     1       3.883   5.181  17.951  0.00  0.00    +0.000 A 
ATOM      2  C   UNL     1       3.888   6.502  17.489  0.00  0.00    +0.000 A 
ATOM      3  C   UNL     1       3.148   7.499  18.148  0.00  0.00    +0.000 A 
ATOM      4  C   UNL     1       2.438   7.231  19.329  0.00  0.00    +0.000 A 
ATOM      5  C   UNL     1       2.472   5.902  19.796  0.00  0.00    +0.000 A 
ATOM      6  C   UNL     1       3.169   4.895  19.118  0.00  0.00    +0.000 A 
ENDROOT
BRANCH   4   7
ATOM      7  C   UNL     1       1.671   8.278  20.057  0.00  0.00    +0.000 A 
ATOM      8  C   UNL     1       1.590   8.187  21.472  0.00  0.00    +0.000 A 
ATOM      9  C   UNL     1       0.877   9.105  22.248  0.00  0.00    +0.000 A 
ATOM     10  C   UNL     1       0.201  10.146  21.635  0.00  0.00    +0.000 A 
ATOM     11  C   UNL     1       0.252  10.271  20.250  0.00  0.00    +0.000 A 
ATOM     12  C   UNL     1       0.990   9.364  19.455  0.00  0.00    +0.000 A 
BRANCH  12  13
ATOM     13  C   UNL     1       0.930   9.665  17.998  0.00  0.00    +0.000 C 
ATOM     14  O   UNL     1      -0.009   9.316  17.303  0.00  0.00    +0.000 OA
BRANCH  13  15
ATOM     15  O   UNL     1       1.935  10.428  17.510  0.00  0.00    +0.000 OA
ATOM     16  H   UNL     1       1.989  11.333  17.871  0.00  0.00    +0.000 HD
ENDBRANCH  13  15
ENDBRANCH  12  13
ENDBRANCH   4   7
BRANCH   1  17
ATOM     17  C   UNL     1       4.536   4.071  17.161  0.00  0.00    +0.000 C 
BRANCH  17  22
ATOM     18  C   UNL     1       6.932   4.730  16.566  0.00  0.00    +0.000 A 
ATOM     19  N   UNL     1       7.613   4.970  15.461  0.00  0.00    +0.000 NA
ATOM     20  C   UNL     1       6.719   4.883  14.431  0.00  0.00    +0.000 A 
ATOM     21  C   UNL     1       5.467   4.588  14.905  0.00  0.00    +0.000 A 
ATOM     22  N   UNL     1       5.599   4.514  16.272  0.00  0.00    +0.000 N 
BRANCH  18  23
ATOM     23  C   UNL     1       7.555   4.701  17.927  0.00  0.00    +0.000 C 
BRANCH  23  25
ATOM     24  C   UNL     1       7.508   7.203  17.585  0.00  0.00    +0.000 C 
ATOM     25  C   UNL     1       7.513   6.071  18.606  0.00  0.00    +0.000 C 
ENDBRANCH  23  25
ENDBRANCH  18  23
ENDBRANCH  17  22
ENDBRANCH   1  17
TORSDOF 7
ENDMDL
MODEL 3
REMARK VINA RESULT:      -7.6      0.332      1.217
REMARK  Name = 
REMARK  8 active torsions:
REMARK  status: ('A' for Active; 'I' for Inactive)
REMARK    1  A    between atoms: C_1  and  C_2
REMARK    2  A    between atoms: C_2  and  C_3
REMARK    3  A    between atoms: C_3  and  C_4
REMARK    4  A    between atoms: N_8  and  C_9
REMARK    5  A    between atoms: C_9  and  C_10
REMARK    6  A    between atoms: C_13  and  C_14
REMARK    7  A    between atoms: C_19  and  C_20
REMARK    8  A    between atoms: C_20  and  O_22
REMARK                            x       y       z     vdW  Elec       q    Type
REMARK                         _______ _______ _______ _____ _____    ______ ____
ROOT
ATOM      1  C   UNL     1       1.118   9.071  19.687  0.00  0.00    +0.000 A 
ATOM      2  C   UNL     1       1.605   7.945  20.360  0.00  0.00    +0.000 A 
ATOM      3  C   UNL     1       2.402   6.997  19.697  0.00  0.00    +0.000 A 
ATOM      4  C   UNL     1       2.803   7.174  18.363  0.00  0.00    +0.000 A 
ATOM      5  C   UNL     1       2.330   8.331  17.712  0.00  0.00    +0.000 A 
ATOM      6  C   UNL     1       1.498   9.255  18.354  0.00  0.00    +0.000 A 
ENDROOT
BRANCH   4   7
ATOM      7  C   UNL     1       3.670   6.195  17.652  0.00  0.00    +0.000 A 
ATOM      8  C   UNL     1       4.881   6.667  17.077  0.00  0.00    +0.000 A 
ATOM      9  C   UNL     1       5.754   5.837  16.369  0.00  0.00    +0.000 A 
ATOM     10  C   UNL     1       5.441   4.500  16.194  0.00  0.00    +0.000 A 
ATOM     11  C   UNL     1       4.264   3.997  16.738  0.00  0.00    +0.000 A 
ATOM     12  C   UNL     1       3.383   4.820  17.477  0.00  0.00    +0.000 A 
BRANCH  12  13
ATOM     13  C   UNL     1       2.182   4.100  17.984  0.00  0.00    +0.000 C 
ATOM     14  O   UNL     1       1.127   4.093  17.374  0.00  0.00    +0.000 OA
BRANCH  13  15
ATOM     15  O   UNL     1       2.357   3.381  19.116  0.00  0.00    +0.000 OA
ATOM     16  H   UNL     1       1.937   2.502  19.125  0.00  0.00    +0.000 HD
ENDBRANCH  13  15
ENDBRANCH  12  13
ENDBRANCH   4   7
BRANCH   1  17
ATOM     17  C   UNL     1       0.129  10.009  20.337  0.00  0.00    +0.000 C 
BRANCH  17  22
ATOM     18  C   UNL     1      -1.082  11.648  18.795  0.00  0.00    +0.000 A 
ATOM     19  N   UNL     1      -0.974  12.926  18.480  0.00  0.00    +0.000 NA
ATOM     20  C   UNL     1       0.124  13.394  19.146  0.00  0.00    +0.000 A 
ATOM     21  C   UNL     1       0.706  12.393  19.878  0.00  0.00    +0.000 A 
ATOM     22  N   UNL     1      -0.051  11.271  19.635  0.00  0.00    +0.000 N 
BRANCH  18  23
ATOM     23  C   UNL     1      -2.183  10.766  18.293  0.00  0.00    +0.000 C 
BRANCH  23  25
ATOM     24  C   UNL     1      -2.973   9.746  16.121  0.00  0.00    +0.000 C 
ATOM     25  C   UNL     1      -1.776  10.004  17.030  0.00  0.00    +0.000 C 
ENDBRANCH  23  25
ENDBRANCH  18  23
ENDBRANCH  17  22
ENDBRANCH   1  17
TORSDOF 7
ENDMDL
MODEL 4
REMARK VINA RESULT:      -7.5      3.690      7.686
REMARK  Name = 
REMARK  8 active torsions:
REMARK  status: ('A' for Active; 'I' for Inactive)
REMARK    1  A    between atoms: C_1  and  C_2
REMARK    2  A    between atoms: C_2  and  C_3
REMARK    3  A    between atoms: C_3  and  C_4
REMARK    4  A    between atoms: N_8  and  C_9
REMARK    5  A    between atoms: C_9  and  C_10
REMARK    6  A    between atoms: C_13  and  C_14
REMARK    7  A    between atoms: C_19  and  C_20
REMARK    8  A    between atoms: C_20  and  O_22
REMARK                            x       y       z     vdW  Elec       q    Type
REMARK                         _______ _______ _______ _____ _____    ______ ____
ROOT
ATOM      1  C   UNL     1       2.682   7.050  19.279  0.00  0.00    +0.000 A 
ATOM      2  C   UNL     1       2.581   7.700  18.043  0.00  0.00    +0.000 A 
ATOM      3  C   UNL     1       1.714   8.793  17.872  0.00  0.00    +0.000 A 
ATOM      4  C   UNL     1       0.974   9.321  18.942  0.00  0.00    +0.000 A 
ATOM      5  C   UNL     1       1.114   8.674  20.186  0.00  0.00    +0.000 A 
ATOM      6  C   UNL     1       1.941   7.556  20.350  0.00  0.00    +0.000 A 
ENDROOT
BRANCH   4   7
ATOM      7  C   UNL     1       0.072  10.495  18.788  0.00  0.00    +0.000 A 
ATOM      8  C   UNL     1      -1.328  10.262  18.738  0.00  0.00    +0.000 A 
ATOM      9  C   UNL     1      -2.260  11.291  18.573  0.00  0.00    +0.000 A 
ATOM     10  C   UNL     1      -1.824  12.597  18.435  0.00  0.00    +0.000 A 
ATOM     11  C   UNL     1      -0.460  12.870  18.476  0.00  0.00    +0.000 A 
ATOM     12  C   UNL     1       0.491  11.842  18.666  0.00  0.00    +0.000 A 
BRANCH  12  13
ATOM     13  C   UNL     1       1.898  12.331  18.688  0.00  0.00    +0.000 C 
ATOM     14  O   UNL     1       2.399  12.815  19.688  0.00  0.00    +0.000 OA
BRANCH  13  15
ATOM     15  O   UNL     1       2.613  12.123  17.559  0.00  0.00    +0.000 OA
ATOM     16  H   UNL     1       3.534  12.442  17.580  0.00  0.00    +0.000 HD
ENDBRANCH  13  15
ENDBRANCH  12  13
ENDBRANCH   4   7
BRANCH   1  17
ATOM     17  C   UNL     1       3.480   5.777  19.433  0.00  0.00    +0.000 C 
BRANCH  17  22
ATOM     18  C   UNL     1       1.822   3.923  18.849  0.00  0.00    +0.000 A 
ATOM     19  N   UNL     1       1.628   3.093  17.841  0.00  0.00    +0.000 NA
ATOM     20  C   UNL     1       2.654   3.307  16.965  0.00  0.00    +0.000 A 
ATOM     21  C   UNL     1       3.496   4.279  17.438  0.00  0.00    +0.000 A 
ATOM     22  N   UNL     1       2.977   4.656  18.654  0.00  0.00    +0.000 N 
BRANCH  18  23
ATOM     23  C   UNL     1       0.894   4.027  20.020  0.00  0.00    +0.000 C 
BRANCH  23  25
ATOM     24  C   UNL     1       2.259   3.072  21.919  0.00  0.00    +0.000 C 
ATOM     25  C   UNL     1       1.066   2.859  20.994  0.00  0.00    +0.000 C 
ENDBRANCH  23  25
ENDBRANCH  18  23
ENDBRANCH  17  22
ENDBRANCH   1  17
TORSDOF 7
ENDMDL
MODEL 5
REMARK VINA RESULT:      -7.3      3.317      7.473
REMARK  Name = 
REMARK  8 active torsions:
REMARK  status: ('A' for Active; 'I' for Inactive)
REMARK    1  A    between atoms: C_1  and  C_2
REMARK    2  A    between atoms: C_2  and  C_3
REMARK    3  A    between atoms: C_3  and  C_4
REMARK    4  A    between atoms: N_8  and  C_9
REMARK    5  A    between atoms: C_9  and  C_10
REMARK    6  A    between atoms: C_13  and  C_14
REMARK    7  A    between atoms: C_19  and  C_20
REMARK    8  A    between atoms: C_20  and  O_22
REMARK                            x       y       z     vdW  Elec       q    Type
REMARK                         _______ _______ _______ _____ _____    ______ ____
ROOT
ATOM      1  C   UNL     1       2.522   7.097  19.303  0.00  0.00    +0.000 A 
ATOM      2  C   UNL     1       1.794   7.679  20.346  0.00  0.00    +0.000 A 
ATOM      3  C   UNL     1       1.198   8.942  20.194  0.00  0.00    +0.000 A 
ATOM      4  C   UNL     1       1.245   9.637  18.975  0.00  0.00    +0.000 A 
ATOM      5  C   UNL     1       1.954   9.020  17.925  0.00  0.00    +0.000 A 
ATOM      6  C   UNL     1       2.589   7.783  18.087  0.00  0.00    +0.000 A 
ENDROOT
BRANCH   4   7
ATOM      7  C   UNL     1       0.596  10.963  18.784  0.00  0.00    +0.000 A 
ATOM      8  C   UNL     1       1.315  12.123  19.179  0.00  0.00    +0.000 A 
ATOM      9  C   UNL     1       0.790  13.413  19.064  0.00  0.00    +0.000 A 
ATOM     10  C   UNL     1      -0.488  13.592  18.563  0.00  0.00    +0.000 A 
ATOM     11  C   UNL     1      -1.229  12.483  18.167  0.00  0.00    +0.000 A 
ATOM     12  C   UNL     1      -0.699  11.175  18.255  0.00  0.00    +0.000 A 
BRANCH  12  13
ATOM     13  C   UNL     1      -1.638  10.121  17.778  0.00  0.00    +0.000 C 
ATOM     14  O   UNL     1      -2.589   9.752  18.444  0.00  0.00    +0.000 OA
BRANCH  13  15
ATOM     15  O   UNL     1      -1.423   9.662  16.524  0.00  0.00    +0.000 OA
ATOM     16  H   UNL     1      -1.856  10.167  15.811  0.00  0.00    +0.000 HD
ENDBRANCH  13  15
ENDBRANCH  12  13
ENDBRANCH   4   7
BRANCH   1  17
ATOM     17  C   UNL     1       3.304   5.821  19.506  0.00  0.00    +0.000 C 
BRANCH  17  22
ATOM     18  C   UNL     1       1.731   3.914  18.860  0.00  0.00    +0.000 A 
ATOM     19  N   UNL     1       1.574   3.110  17.824  0.00  0.00    +0.000 NA
ATOM     20  C   UNL     1       2.589   3.400  16.956  0.00  0.00    +0.000 A 
ATOM     21  C   UNL     1       3.386   4.393  17.462  0.00  0.00    +0.000 A 
ATOM     22  N   UNL     1       2.851   4.705  18.690  0.00  0.00    +0.000 N 
BRANCH  18  23
ATOM     23  C   UNL     1       0.801   3.936  20.033  0.00  0.00    +0.000 C 
BRANCH  23  25
ATOM     24  C   UNL     1       2.325   3.147  21.887  0.00  0.00    +0.000 C 
ATOM     25  C   UNL     1       1.108   2.817  21.029  0.00  0.00    +0.000 C 
ENDBRANCH  23  25
ENDBRANCH  18  23
ENDBRANCH  17  22
ENDBRANCH   1  17
TORSDOF 7
ENDMDL
MODEL 6
REMARK VINA RESULT:      -7.3      3.627      7.816
REMARK  Name = 
REMARK  8 active torsions:
REMARK  status: ('A' for Active; 'I' for Inactive)
REMARK    1  A    between atoms: C_1  and  C_2
REMARK    2  A    between atoms: C_2  and  C_3
REMARK    3  A    between atoms: C_3  and  C_4
REMARK    4  A    between atoms: N_8  and  C_9
REMARK    5  A    between atoms: C_9  and  C_10
REMARK    6  A    between atoms: C_13  and  C_14
REMARK    7  A    between atoms: C_19  and  C_20
REMARK    8  A    between atoms: C_20  and  O_22
REMARK                            x       y       z     vdW  Elec       q    Type
REMARK                         _______ _______ _______ _____ _____    ______ ____
ROOT
ATOM      1  C   UNL     1       3.228   6.194  18.357  0.00  0.00    +0.000 A 
ATOM      2  C   UNL     1       3.034   7.498  17.887  0.00  0.00    +0.000 A 
ATOM      3  C   UNL     1       2.246   8.413  18.605  0.00  0.00    +0.000 A 
ATOM      4  C   UNL     1       1.685   8.086  19.851  0.00  0.00    +0.000 A 
ATOM      5  C   UNL     1       1.920   6.779  20.322  0.00  0.00    +0.000 A 
ATOM      6  C   UNL     1       2.665   5.849  19.589  0.00  0.00    +0.000 A 
ENDROOT
BRANCH   4   7
ATOM      7  C   UNL     1       0.871   9.050  20.640  0.00  0.00    +0.000 A 
ATOM      8  C   UNL     1       0.815   8.883  22.049  0.00  0.00    +0.000 A 
ATOM      9  C   UNL     1       0.063   9.718  22.880  0.00  0.00    +0.000 A 
ATOM     10  C   UNL     1      -0.679  10.748  22.328  0.00  0.00    +0.000 A 
ATOM     11  C   UNL     1      -0.655  10.947  20.951  0.00  0.00    +0.000 A 
ATOM     12  C   UNL     1       0.121  10.124  20.102  0.00  0.00    +0.000 A 
BRANCH  12  13
ATOM     13  C   UNL     1       0.023  10.495  18.663  0.00  0.00    +0.000 C 
ATOM     14  O   UNL     1      -0.786   9.975  17.915  0.00  0.00    +0.000 OA
BRANCH  13  15
ATOM     15  O   UNL     1       0.824  11.507  18.258  0.00  0.00    +0.000 OA
ATOM     16  H   UNL     1       0.757  11.745  17.315  0.00  0.00    +0.000 HD
ENDBRANCH  13  15
ENDBRANCH  12  13
ENDBRANCH   4   7
BRANCH   1  17
ATOM     17  C   UNL     1       3.932   5.154  17.518  0.00  0.00    +0.000 C 
BRANCH  17  22
ATOM     18  C   UNL     1       6.235   5.367  16.432  0.00  0.00    +0.000 A 
ATOM     19  N   UNL     1       7.466   5.617  16.837  0.00  0.00    +0.000 NA
ATOM     20  C   UNL     1       7.411   5.708  18.199  0.00  0.00    +0.000 A 
ATOM     21  C   UNL     1       6.130   5.509  18.643  0.00  0.00    +0.000 A 
ATOM     22  N   UNL     1       5.382   5.268  17.515  0.00  0.00    +0.000 N 
BRANCH  18  23
ATOM     23  C   UNL     1       5.856   5.224  14.990  0.00  0.00    +0.000 C 
BRANCH  23  25
ATOM     24  C   UNL     1       6.207   3.761  12.961  0.00  0.00    +0.000 C 
ATOM     25  C   UNL     1       6.076   3.798  14.479  0.00  0.00    +0.000 C 
ENDBRANCH  23  25
ENDBRANCH  18  23
ENDBRANCH  17  22
ENDBRANCH   1  17
TORSDOF 7
ENDMDL
MODEL 7
REMARK VINA RESULT:      -7.3      0.848      2.336
REMARK  Name = 
REMARK  8 active torsions:
REMARK  status: ('A' for Active; 'I' for Inactive)
REMARK    1  A    between atoms: C_1  and  C_2
REMARK    2  A    between atoms: C_2  and  C_3
REMARK    3  A    between atoms: C_3  and  C_4
REMARK    4  A    between atoms: N_8  and  C_9
REMARK    5  A    between atoms: C_9  and  C_10
REMARK    6  A    between atoms: C_13  and  C_14
REMARK    7  A    between atoms: C_19  and  C_20
REMARK    8  A    between atoms: C_20  and  O_22
REMARK                            x       y       z     vdW  Elec       q    Type
REMARK                         _______ _______ _______ _____ _____    ______ ____
ROOT
ATOM      1  C   UNL     1       1.200   9.194  19.596  0.00  0.00    +0.000 A 
ATOM      2  C   UNL     1       1.584   9.339  18.258  0.00  0.00    +0.000 A 
ATOM      3  C   UNL     1       2.411   8.387  17.638  0.00  0.00    +0.000 A 
ATOM      4  C   UNL     1       2.823   7.222  18.304  0.00  0.00    +0.000 A 
ATOM      5  C   UNL     1       2.398   7.077  19.640  0.00  0.00    +0.000 A 
ATOM      6  C   UNL     1       1.613   8.046  20.277  0.00  0.00    +0.000 A 
ENDROOT
BRANCH   4   7
ATOM      7  C   UNL     1       3.675   6.189  17.656  0.00  0.00    +0.000 A 
ATOM      8  C   UNL     1       4.925   6.594  17.115  0.00  0.00    +0.000 A 
ATOM      9  C   UNL     1       5.790   5.708  16.466  0.00  0.00    +0.000 A 
ATOM     10  C   UNL     1       5.429   4.380  16.317  0.00  0.00    +0.000 A 
ATOM     11  C   UNL     1       4.213   3.941  16.830  0.00  0.00    +0.000 A 
ATOM     12  C   UNL     1       3.339   4.821  17.510  0.00  0.00    +0.000 A 
BRANCH  12  13
ATOM     13  C   UNL     1       2.091   4.166  17.991  0.00  0.00    +0.000 C 
ATOM     14  O   UNL     1       1.061   4.182  17.341  0.00  0.00    +0.000 OA
BRANCH  13  15
ATOM     15  O   UNL     1       2.195   3.476  19.150  0.00  0.00    +0.000 OA
ATOM     16  H   UNL     1       2.970   2.889  19.222  0.00  0.00    +0.000 HD
ENDBRANCH  13  15
ENDBRANCH  12  13
ENDBRANCH   4   7
BRANCH   1  17
ATOM     17  C   UNL     1       0.452  10.287  20.322  0.00  0.00    +0.000 C 
BRANCH  17  22
ATOM     18  C   UNL     1       0.034  12.382  18.920  0.00  0.00    +0.000 A 
ATOM     19  N   UNL     1      -0.874  12.789  18.052  0.00  0.00    +0.000 NA
ATOM     20  C   UNL     1      -1.822  11.808  17.999  0.00  0.00    +0.000 A 
ATOM     21  C   UNL     1      -1.500  10.781  18.848  0.00  0.00    +0.000 A 
ATOM     22  N   UNL     1      -0.325  11.159  19.453  0.00  0.00    +0.000 N 
BRANCH  18  23
ATOM     23  C   UNL     1       1.268  13.164  19.248  0.00  0.00    +0.000 C 
BRANCH  23  25
ATOM     24  C   UNL     1       3.421  14.090  18.304  0.00  0.00    +0.000 C 
ATOM     25  C   UNL     1       2.341  13.022  18.166  0.00  0.00    +0.000 C 
ENDBRANCH  23  25
ENDBRANCH  18  23
ENDBRANCH  17  22
ENDBRANCH   1  17
TORSDOF 7
ENDMDL
MODEL 8
REMARK VINA RESULT:      -7.3      0.697      2.392
REMARK  Name = 
REMARK  8 active torsions:
REMARK  status: ('A' for Active; 'I' for Inactive)
REMARK    1  A    between atoms: C_1  and  C_2
REMARK    2  A    between atoms: C_2  and  C_3
REMARK    3  A    between atoms: C_3  and  C_4
REMARK    4  A    between atoms: N_8  and  C_9
REMARK    5  A    between atoms: C_9  and  C_10
REMARK    6  A    between atoms: C_13  and  C_14
REMARK    7  A    between atoms: C_19  and  C_20
REMARK    8  A    between atoms: C_20  and  O_22
REMARK                            x       y       z     vdW  Elec       q    Type
REMARK                         _______ _______ _______ _____ _____    ______ ____
ROOT
ATOM      1  C   UNL     1       1.147   9.134  19.678  0.00  0.00    +0.000 A 
ATOM      2  C   UNL     1       1.604   7.998  20.356  0.00  0.00    +0.000 A 
ATOM      3  C   UNL     1       2.384   7.031  19.699  0.00  0.00    +0.000 A 
ATOM      4  C   UNL     1       2.797   7.198  18.368  0.00  0.00    +0.000 A 
ATOM      5  C   UNL     1       2.355   8.364  17.712  0.00  0.00    +0.000 A 
ATOM      6  C   UNL     1       1.539   9.307  18.348  0.00  0.00    +0.000 A 
ENDROOT
BRANCH   4   7
ATOM      7  C   UNL     1       3.647   6.199  17.663  0.00  0.00    +0.000 A 
ATOM      8  C   UNL     1       4.861   6.647  17.077  0.00  0.00    +0.000 A 
ATOM      9  C   UNL     1       5.719   5.798  16.374  0.00  0.00    +0.000 A 
ATOM     10  C   UNL     1       5.387   4.463  16.215  0.00  0.00    +0.000 A 
ATOM     11  C   UNL     1       4.205   3.983  16.771  0.00  0.00    +0.000 A 
ATOM     12  C   UNL     1       3.340   4.826  17.505  0.00  0.00    +0.000 A 
BRANCH  12  13
ATOM     13  C   UNL     1       2.131   4.129  18.025  0.00  0.00    +0.000 C 
ATOM     14  O   UNL     1       1.100   4.053  17.380  0.00  0.00    +0.000 OA
BRANCH  13  15
ATOM     15  O   UNL     1       2.275   3.509  19.219  0.00  0.00    +0.000 OA
ATOM     16  H   UNL     1       2.688   4.042  19.923  0.00  0.00    +0.000 HD
ENDBRANCH  13  15
ENDBRANCH  12  13
ENDBRANCH   4   7
BRANCH   1  17
ATOM     17  C   UNL     1       0.174  10.094  20.321  0.00  0.00    +0.000 C 
BRANCH  17  22
ATOM     18  C   UNL     1      -0.445  12.197  19.008  0.00  0.00    +0.000 A 
ATOM     19  N   UNL     1      -1.250  12.498  18.006  0.00  0.00    +0.000 NA
ATOM     20  C   UNL     1      -1.928  11.353  17.699  0.00  0.00    +0.000 A 
ATOM     21  C   UNL     1      -1.540  10.329  18.524  0.00  0.00    +0.000 A 
ATOM     22  N   UNL     1      -0.610  10.875  19.376  0.00  0.00    +0.000 N 
BRANCH  18  23
ATOM     23  C   UNL     1       0.501  13.177  19.629  0.00  0.00    +0.000 C 
BRANCH  23  25
ATOM     24  C   UNL     1       2.542  12.750  18.202  0.00  0.00    +0.000 C 
ATOM     25  C   UNL     1       1.475  13.762  18.603  0.00  0.00    +0.000 C 
ENDBRANCH  23  25
ENDBRANCH  18  23
ENDBRANCH  17  22
ENDBRANCH   1  17
TORSDOF 7
ENDMDL
MODEL 9
REMARK VINA RESULT:      -7.3      3.705      7.814
REMARK  Name = 
REMARK  8 active torsions:
REMARK  status: ('A' for Active; 'I' for Inactive)
REMARK    1  A    between atoms: C_1  and  C_2
REMARK    2  A    between atoms: C_2  and  C_3
REMARK    3  A    between atoms: C_3  and  C_4
REMARK    4  A    between atoms: N_8  and  C_9
REMARK    5  A    between atoms: C_9  and  C_10
REMARK    6  A    between atoms: C_13  and  C_14
REMARK    7  A    between atoms: C_19  and  C_20
REMARK    8  A    between atoms: C_20  and  O_22
REMARK                            x       y       z     vdW  Elec       q    Type
REMARK                         _______ _______ _______ _____ _____    ______ ____
ROOT
ATOM      1  C   UNL     1       3.213   5.601  18.333  0.00  0.00    +0.000 A 
ATOM      2  C   UNL     1       2.572   5.316  19.544  0.00  0.00    +0.000 A 
ATOM      3  C   UNL     1       1.928   6.329  20.275  0.00  0.00    +0.000 A 
ATOM      4  C   UNL     1       1.836   7.644  19.790  0.00  0.00    +0.000 A 
ATOM      5  C   UNL     1       2.459   7.903  18.553  0.00  0.00    +0.000 A 
ATOM      6  C   UNL     1       3.142   6.908  17.844  0.00  0.00    +0.000 A 
ENDROOT
BRANCH   4   7
ATOM      7  C   UNL     1       1.135   8.724  20.536  0.00  0.00    +0.000 A 
ATOM      8  C   UNL     1       1.067   8.626  21.951  0.00  0.00    +0.000 A 
ATOM      9  C   UNL     1       0.413   9.573  22.743  0.00  0.00    +0.000 A 
ATOM     10  C   UNL     1      -0.217  10.652  22.146  0.00  0.00    +0.000 A 
ATOM     11  C   UNL     1      -0.177  10.786  20.762  0.00  0.00    +0.000 A 
ATOM     12  C   UNL     1       0.502   9.847  19.951  0.00  0.00    +0.000 A 
BRANCH  12  13
ATOM     13  C   UNL     1       0.439  10.163  18.496  0.00  0.00    +0.000 C 
ATOM     14  O   UNL     1      -0.461   9.754  17.784  0.00  0.00    +0.000 OA
BRANCH  13  15
ATOM     15  O   UNL     1       1.390  11.006  18.033  0.00  0.00    +0.000 OA
ATOM     16  H   UNL     1       1.060  11.795  17.565  0.00  0.00    +0.000 HD
ENDBRANCH  13  15
ENDBRANCH  12  13
ENDBRANCH   4   7
BRANCH   1  17
ATOM     17  C   UNL     1       4.047   4.562  17.622  0.00  0.00    +0.000 C 
BRANCH  17  22
ATOM     18  C   UNL     1       6.225   5.198  16.446  0.00  0.00    +0.000 A 
ATOM     19  N   UNL     1       7.436   5.576  16.811  0.00  0.00    +0.000 NA
ATOM     20  C   UNL     1       7.459   5.527  18.176  0.00  0.00    +0.000 A 
ATOM     21  C   UNL     1       6.248   5.109  18.662  0.00  0.00    +0.000 A 
ATOM     22  N   UNL     1       5.467   4.877  17.555  0.00  0.00    +0.000 N 
BRANCH  18  23
ATOM     23  C   UNL     1       5.774   5.143  15.019  0.00  0.00    +0.000 C 
BRANCH  23  25
ATOM     24  C   UNL     1       5.775   3.660  12.974  0.00  0.00    +0.000 C 
ATOM     25  C   UNL     1       6.547   4.096  14.214  0.00  0.00    +0.000 C 
ENDBRANCH  23  25
ENDBRANCH  18  23
ENDBRANCH  17  22
ENDBRANCH   1  17
TORSDOF 7
ENDMDL
