MODEL 1
REMARK VINA RESULT:      -7.9      0.000      0.000
REMARK  Name = 
REMARK  3 active torsions:
REMARK  status: ('A' for Active; 'I' for Inactive)
REMARK    1  A    between atoms: C_1  and  C_2
REMARK    2  A    between atoms: C_2  and  C_3
REMARK    3  A    between atoms: C_3  and  C_4
REMARK                            x       y       z     vdW  Elec       q    Type
REMARK                         _______ _______ _______ _____ _____    ______ ____
ROOT
ATOM      1  C   UNL     1       4.834   4.975  17.531  0.00  0.00    +0.000 C 
ATOM      2  C   UNL     1       4.222   3.812  17.774  0.00  0.00    +0.000 C 
ATOM      3  O   UNL     1       4.487   2.682  17.281  0.00  0.00    +0.000 OA
ATOM      4  C   UNL     1       3.072   3.745  18.772  0.00  0.00    +0.000 C 
ATOM      5  N   UNL     1       3.447   2.839  19.879  0.00  0.00    +0.000 NA
ATOM      6  C   UNL     1       2.649   2.769  20.873  0.00  0.00    +0.000 C 
ATOM      7  C   UNL     1       1.556   3.716  21.145  0.00  0.00    +0.000 C 
ATOM      8  C   UNL     1       1.546   4.882  20.487  0.00  0.00    +0.000 C 
ATOM      9  C   UNL     1       2.530   5.065  19.363  0.00  0.00    +0.000 C 
ATOM     10  N   UNL     1       2.754   6.138  18.677  0.00  0.00    +0.000 N 
ATOM     11  C   UNL     1       2.121   7.386  18.908  0.00  0.00    +0.000 A 
ATOM     12  C   UNL     1       1.822   8.190  17.800  0.00  0.00    +0.000 A 
ATOM     13  C   UNL     1       1.296   9.467  17.997  0.00  0.00    +0.000 A 
ATOM     14  C   UNL     1       1.126   9.928  19.294  0.00  0.00    +0.000 A 
ATOM     15  C   UNL     1       1.424   9.060  20.334  0.00  0.00    +0.000 A 
ATOM     16  N   UNL     1       1.865   7.784  20.171  0.00  0.00    +0.000 NA
ATOM     17  C   UNL     1       4.115   6.206  17.850  0.00  0.00    +0.000 C 
ATOM     18  O   UNL     1       4.473   7.329  17.519  0.00  0.00    +0.000 OA
ENDROOT
BRANCH   1  19
ATOM     19  C   UNL     1       6.172   5.101  16.842  0.00  0.00    +0.000 C 
BRANCH  19  21
ATOM     20  C   UNL     1       7.719   5.899  18.747  0.00  0.00    +0.000 C 
ATOM     21  C   UNL     1       7.360   4.787  17.766  0.00  0.00    +0.000 C 
ENDBRANCH  19  21
ENDBRANCH   1  19
TORSDOF 2
ENDMDL
MODEL 2
REMARK VINA RESULT:      -7.8      0.733      1.292
REMARK  Name = 
REMARK  3 active torsions:
REMARK  status: ('A' for Active; 'I' for Inactive)
REMARK    1  A    between atoms: C_1  and  C_2
REMARK    2  A    between atoms: C_2  and  C_3
REMARK    3  A    between atoms: C_3  and  C_4
REMARK                            x       y       z     vdW  Elec       q    Type
REMARK                         _______ _______ _______ _____ _____    ______ ____
ROOT
ATOM      1  C   UNL     1       4.698   5.036  17.420  0.00  0.00    +0.000 C 
ATOM      2  C   UNL     1       4.101   3.869  17.679  0.00  0.00    +0.000 C 
ATOM      3  O   UNL     1       4.346   2.744  17.165  0.00  0.00    +0.000 OA
ATOM      4  C   UNL     1       2.998   3.789  18.728  0.00  0.00    +0.000 C 
ATOM      5  N   UNL     1       3.424   2.875  19.808  0.00  0.00    +0.000 NA
ATOM      6  C   UNL     1       2.673   2.794  20.837  0.00  0.00    +0.000 C 
ATOM      7  C   UNL     1       1.591   3.735  21.167  0.00  0.00    +0.000 C 
ATOM      8  C   UNL     1       1.547   4.907  20.520  0.00  0.00    +0.000 C 
ATOM      9  C   UNL     1       2.479   5.103  19.354  0.00  0.00    +0.000 C 
ATOM     10  N   UNL     1       2.669   6.183  18.669  0.00  0.00    +0.000 N 
ATOM     11  C   UNL     1       2.044   7.426  18.939  0.00  0.00    +0.000 A 
ATOM     12  C   UNL     1       1.693   8.239  17.853  0.00  0.00    +0.000 A 
ATOM     13  C   UNL     1       1.173   9.513  18.085  0.00  0.00    +0.000 A 
ATOM     14  C   UNL     1       1.060   9.961  19.392  0.00  0.00    +0.000 A 
ATOM     15  C   UNL     1       1.407   9.086  20.410  0.00  0.00    +0.000 A 
ATOM     16  N   UNL     1       1.844   7.812  20.216  0.00  0.00    +0.000 NA
ATOM     17  C   UNL     1       3.991   6.262  17.782  0.00  0.00    +0.000 C 
ATOM     18  O   UNL     1       4.330   7.389  17.445  0.00  0.00    +0.000 OA
ENDROOT
BRANCH   1  19
ATOM     19  C   UNL     1       6.003   5.172  16.672  0.00  0.00    +0.000 C 
BRANCH  19  21
ATOM     20  C   UNL     1       6.129   4.009  14.373  0.00  0.00    +0.000 C 
ATOM     21  C   UNL     1       5.820   5.285  15.150  0.00  0.00    +0.000 C 
ENDBRANCH  19  21
ENDBRANCH   1  19
TORSDOF 2
ENDMDL
MODEL 3
REMARK VINA RESULT:      -7.5      1.857      4.030
REMARK  Name = 
REMARK  3 active torsions:
REMARK  status: ('A' for Active; 'I' for Inactive)
REMARK    1  A    between atoms: C_1  and  C_2
REMARK    2  A    between atoms: C_2  and  C_3
REMARK    3  A    between atoms: C_3  and  C_4
REMARK                            x       y       z     vdW  Elec       q    Type
REMARK                         _______ _______ _______ _____ _____    ______ ____
ROOT
ATOM      1  C   UNL     1       3.035   3.995  19.935  0.00  0.00    +0.000 C 
ATOM      2  C   UNL     1       4.295   3.955  19.491  0.00  0.00    +0.000 C 
ATOM      3  O   UNL     1       5.181   3.097  19.756  0.00  0.00    +0.000 OA
ATOM      4  C   UNL     1       4.801   5.016  18.522  0.00  0.00    +0.000 C 
ATOM      5  N   UNL     1       5.201   4.365  17.257  0.00  0.00    +0.000 NA
ATOM      6  C   UNL     1       5.526   5.125  16.285  0.00  0.00    +0.000 C 
ATOM      7  C   UNL     1       5.258   6.570  16.218  0.00  0.00    +0.000 C 
ATOM      8  C   UNL     1       4.382   7.096  17.084  0.00  0.00    +0.000 C 
ATOM      9  C   UNL     1       3.885   6.219  18.202  0.00  0.00    +0.000 C 
ATOM     10  N   UNL     1       2.969   6.494  19.072  0.00  0.00    +0.000 N 
ATOM     11  C   UNL     1       2.216   7.695  19.094  0.00  0.00    +0.000 A 
ATOM     12  C   UNL     1       1.861   8.230  20.340  0.00  0.00    +0.000 A 
ATOM     13  C   UNL     1       1.033   9.352  20.397  0.00  0.00    +0.000 A 
ATOM     14  C   UNL     1       0.540   9.881  19.214  0.00  0.00    +0.000 A 
ATOM     15  C   UNL     1       0.958   9.306  18.023  0.00  0.00    +0.000 A 
ATOM     16  N   UNL     1       1.825   8.261  17.934  0.00  0.00    +0.000 NA
ATOM     17  C   UNL     1       2.327   5.271  19.868  0.00  0.00    +0.000 C 
ATOM     18  O   UNL     1       1.247   5.498  20.398  0.00  0.00    +0.000 OA
ENDROOT
BRANCH   1  19
ATOM     19  C   UNL     1       2.336   2.838  20.607  0.00  0.00    +0.000 C 
BRANCH  19  21
ATOM     20  C   UNL     1       0.645   2.370  18.715  0.00  0.00    +0.000 C 
ATOM     21  C   UNL     1       1.752   1.822  19.611  0.00  0.00    +0.000 C 
ENDBRANCH  19  21
ENDBRANCH   1  19
TORSDOF 2
ENDMDL
MODEL 4
REMARK VINA RESULT:      -7.4      1.957      5.194
REMARK  Name = 
REMARK  3 active torsions:
REMARK  status: ('A' for Active; 'I' for Inactive)
REMARK    1  A    between atoms: C_1  and  C_2
REMARK    2  A    between atoms: C_2  and  C_3
REMARK    3  A    between atoms: C_3  and  C_4
REMARK                            x       y       z     vdW  Elec       q    Type
REMARK                         _______ _______ _______ _____ _____    ______ ____
ROOT
ATOM      1  C   UNL     1       2.584   6.911  18.927  0.00  0.00    +0.000 C 
ATOM      2  C   UNL     1       2.167   5.939  19.744  0.00  0.00    +0.000 C 
ATOM      3  O   UNL     1       1.562   6.061  20.844  0.00  0.00    +0.000 OA
ATOM      4  C   UNL     1       2.383   4.478  19.370  0.00  0.00    +0.000 C 
ATOM      5  N   UNL     1       1.070   3.812  19.246  0.00  0.00    +0.000 NA
ATOM      6  C   UNL     1       1.061   2.613  18.808  0.00  0.00    +0.000 C 
ATOM      7  C   UNL     1       2.195   1.948  18.147  0.00  0.00    +0.000 C 
ATOM      8  C   UNL     1       3.214   2.704  17.718  0.00  0.00    +0.000 C 
ATOM      9  C   UNL     1       3.234   4.154  18.121  0.00  0.00    +0.000 C 
ATOM     10  N   UNL     1       4.059   5.070  17.732  0.00  0.00    +0.000 N 
ATOM     11  C   UNL     1       5.097   4.867  16.788  0.00  0.00    +0.000 A 
ATOM     12  C   UNL     1       6.303   5.558  16.973  0.00  0.00    +0.000 A 
ATOM     13  C   UNL     1       7.306   5.463  16.008  0.00  0.00    +0.000 A 
ATOM     14  C   UNL     1       7.064   4.723  14.861  0.00  0.00    +0.000 A 
ATOM     15  C   UNL     1       5.854   4.052  14.767  0.00  0.00    +0.000 A 
ATOM     16  N   UNL     1       4.889   4.063  15.726  0.00  0.00    +0.000 NA
ATOM     17  C   UNL     1       3.625   6.587  17.954  0.00  0.00    +0.000 C 
ATOM     18  O   UNL     1       4.223   7.410  17.273  0.00  0.00    +0.000 OA
ENDROOT
BRANCH   1  19
ATOM     19  C   UNL     1       2.132   8.348  19.021  0.00  0.00    +0.000 C 
BRANCH  19  21
ATOM     20  C   UNL     1       0.267   9.898  18.136  0.00  0.00    +0.000 C 
ATOM     21  C   UNL     1       1.271   8.792  17.826  0.00  0.00    +0.000 C 
ENDBRANCH  19  21
ENDBRANCH   1  19
TORSDOF 2
ENDMDL
MODEL 5
REMARK VINA RESULT:      -7.1      1.681      4.689
REMARK  Name = 
REMARK  3 active torsions:
REMARK  status: ('A' for Active; 'I' for Inactive)
REMARK    1  A    between atoms: C_1  and  C_2
REMARK    2  A    between atoms: C_2  and  C_3
REMARK    3  A    between atoms: C_3  and  C_4
REMARK                            x       y       z     vdW  Elec       q    Type
REMARK                         _______ _______ _______ _____ _____    ______ ____
ROOT
ATOM      1  C   UNL     1       5.118   4.896  16.731  0.00  0.00    +0.000 C 
ATOM      2  C   UNL     1       5.278   6.214  16.886  0.00  0.00    +0.000 C 
ATOM      3  O   UNL     1       6.162   6.951  16.370  0.00  0.00    +0.000 OA
ATOM      4  C   UNL     1       4.306   7.007  17.751  0.00  0.00    +0.000 C 
ATOM      5  N   UNL     1       3.627   8.017  16.912  0.00  0.00    +0.000 NA
ATOM      6  C   UNL     1       2.681   8.684  17.450  0.00  0.00    +0.000 C 
ATOM      7  C   UNL     1       2.019   8.336  18.718  0.00  0.00    +0.000 C 
ATOM      8  C   UNL     1       2.208   7.109  19.219  0.00  0.00    +0.000 C 
ATOM      9  C   UNL     1       3.246   6.235  18.568  0.00  0.00    +0.000 C 
ATOM     10  N   UNL     1       3.507   4.995  18.825  0.00  0.00    +0.000 N 
ATOM     11  C   UNL     1       2.803   4.205  19.769  0.00  0.00    +0.000 A 
ATOM     12  C   UNL     1       3.524   3.255  20.505  0.00  0.00    +0.000 A 
ATOM     13  C   UNL     1       2.846   2.390  21.365  0.00  0.00    +0.000 A 
ATOM     14  C   UNL     1       1.463   2.461  21.432  0.00  0.00    +0.000 A 
ATOM     15  C   UNL     1       0.828   3.444  20.689  0.00  0.00    +0.000 A 
ATOM     16  N   UNL     1       1.469   4.351  19.902  0.00  0.00    +0.000 NA
ATOM     17  C   UNL     1       4.332   4.179  17.733  0.00  0.00    +0.000 C 
ATOM     18  O   UNL     1       4.255   2.961  17.817  0.00  0.00    +0.000 OA
ENDROOT
BRANCH   1  19
ATOM     19  C   UNL     1       5.792   4.082  15.652  0.00  0.00    +0.000 C 
BRANCH  19  21
ATOM     20  C   UNL     1       5.960   3.630  13.117  0.00  0.00    +0.000 C 
ATOM     21  C   UNL     1       5.257   4.383  14.243  0.00  0.00    +0.000 C 
ENDBRANCH  19  21
ENDBRANCH   1  19
TORSDOF 2
ENDMDL
MODEL 6
REMARK VINA RESULT:      -7.1      3.187      5.307
REMARK  Name = 
REMARK  3 active torsions:
REMARK  status: ('A' for Active; 'I' for Inactive)
REMARK    1  A    between atoms: C_1  and  C_2
REMARK    2  A    between atoms: C_2  and  C_3
REMARK    3  A    between atoms: C_3  and  C_4
REMARK                            x       y       z     vdW  Elec       q    Type
REMARK                         _______ _______ _______ _____ _____    ______ ____
ROOT
ATOM      1  C   UNL     1       5.594   4.523  15.228  0.00  0.00    +0.000 C 
ATOM      2  C   UNL     1       6.860   4.729  15.605  0.00  0.00    +0.000 C 
ATOM      3  O   UNL     1       7.883   4.794  14.871  0.00  0.00    +0.000 OA
ATOM      4  C   UNL     1       7.196   4.951  17.074  0.00  0.00    +0.000 C 
ATOM      5  N   UNL     1       7.791   6.293  17.237  0.00  0.00    +0.000 NA
ATOM      6  C   UNL     1       8.012   6.695  18.428  0.00  0.00    +0.000 C 
ATOM      7  C   UNL     1       7.462   6.074  19.643  0.00  0.00    +0.000 C 
ATOM      8  C   UNL     1       6.450   5.207  19.512  0.00  0.00    +0.000 C 
ATOM      9  C   UNL     1       6.076   4.765  18.123  0.00  0.00    +0.000 C 
ATOM     10  N   UNL     1       5.075   4.026  17.773  0.00  0.00    +0.000 N 
ATOM     11  C   UNL     1       4.095   3.525  18.667  0.00  0.00    +0.000 A 
ATOM     12  C   UNL     1       3.568   2.249  18.423  0.00  0.00    +0.000 A 
ATOM     13  C   UNL     1       2.529   1.769  19.220  0.00  0.00    +0.000 A 
ATOM     14  C   UNL     1       2.008   2.591  20.208  0.00  0.00    +0.000 A 
ATOM     15  C   UNL     1       2.602   3.830  20.399  0.00  0.00    +0.000 A 
ATOM     16  N   UNL     1       3.666   4.293  19.689  0.00  0.00    +0.000 NA
ATOM     17  C   UNL     1       4.648   4.053  16.238  0.00  0.00    +0.000 C 
ATOM     18  O   UNL     1       3.516   3.654  16.000  0.00  0.00    +0.000 OA
ENDROOT
BRANCH   1  19
ATOM     19  C   UNL     1       5.105   4.632  13.804  0.00  0.00    +0.000 C 
BRANCH  19  21
ATOM     20  C   UNL     1       4.713   3.186  11.703  0.00  0.00    +0.000 C 
ATOM     21  C   UNL     1       5.605   3.491  12.903  0.00  0.00    +0.000 C 
ENDBRANCH  19  21
ENDBRANCH   1  19
TORSDOF 2
ENDMDL
MODEL 7
REMARK VINA RESULT:      -7.0      1.734      4.016
REMARK  Name = 
REMARK  3 active torsions:
REMARK  status: ('A' for Active; 'I' for Inactive)
REMARK    1  A    between atoms: C_1  and  C_2
REMARK    2  A    between atoms: C_2  and  C_3
REMARK    3  A    between atoms: C_3  and  C_4
REMARK                            x       y       z     vdW  Elec       q    Type
REMARK                         _______ _______ _______ _____ _____    ______ ____
ROOT
ATOM      1  C   UNL     1       3.024   3.609  19.213  0.00  0.00    +0.000 C 
ATOM      2  C   UNL     1       4.358   3.529  19.180  0.00  0.00    +0.000 C 
ATOM      3  O   UNL     1       5.084   2.567  19.551  0.00  0.00    +0.000 OA
ATOM      4  C   UNL     1       5.182   4.681  18.617  0.00  0.00    +0.000 C 
ATOM      5  N   UNL     1       5.943   4.203  17.444  0.00  0.00    +0.000 NA
ATOM      6  C   UNL     1       6.587   5.075  16.770  0.00  0.00    +0.000 C 
ATOM      7  C   UNL     1       6.402   6.531  16.879  0.00  0.00    +0.000 C 
ATOM      8  C   UNL     1       5.313   6.988  17.511  0.00  0.00    +0.000 C 
ATOM      9  C   UNL     1       4.456   5.994  18.247  0.00  0.00    +0.000 C 
ATOM     10  N   UNL     1       3.320   6.208  18.826  0.00  0.00    +0.000 N 
ATOM     11  C   UNL     1       2.639   7.452  18.824  0.00  0.00    +0.000 A 
ATOM     12  C   UNL     1       1.923   7.815  19.973  0.00  0.00    +0.000 A 
ATOM     13  C   UNL     1       1.157   8.981  19.968  0.00  0.00    +0.000 A 
ATOM     14  C   UNL     1       1.085   9.729  18.803  0.00  0.00    +0.000 A 
ATOM     15  C   UNL     1       1.843   9.314  17.718  0.00  0.00    +0.000 A 
ATOM     16  N   UNL     1       2.659   8.225  17.719  0.00  0.00    +0.000 NA
ATOM     17  C   UNL     1       2.418   4.937  19.156  0.00  0.00    +0.000 C 
ATOM     18  O   UNL     1       1.233   5.171  19.356  0.00  0.00    +0.000 OA
ENDROOT
BRANCH   1  19
ATOM     19  C   UNL     1       2.110   2.426  19.421  0.00  0.00    +0.000 C 
BRANCH  19  21
ATOM     20  C   UNL     1       2.013   2.688  21.986  0.00  0.00    +0.000 C 
ATOM     21  C   UNL     1       1.236   2.550  20.680  0.00  0.00    +0.000 C 
ENDBRANCH  19  21
ENDBRANCH   1  19
TORSDOF 2
ENDMDL
MODEL 8
REMARK VINA RESULT:      -6.9      1.042      1.276
REMARK  Name = 
REMARK  3 active torsions:
REMARK  status: ('A' for Active; 'I' for Inactive)
REMARK    1  A    between atoms: C_1  and  C_2
REMARK    2  A    between atoms: C_2  and  C_3
REMARK    3  A    between atoms: C_3  and  C_4
REMARK                            x       y       z     vdW  Elec       q    Type
REMARK                         _______ _______ _______ _____ _____    ______ ____
ROOT
ATOM      1  C   UNL     1       4.177   5.968  17.199  0.00  0.00    +0.000 C 
ATOM      2  C   UNL     1       3.700   4.730  17.361  0.00  0.00    +0.000 C 
ATOM      3  O   UNL     1       3.906   3.721  16.632  0.00  0.00    +0.000 OA
ATOM      4  C   UNL     1       2.816   4.399  18.557  0.00  0.00    +0.000 C 
ATOM      5  N   UNL     1       3.482   3.368  19.380  0.00  0.00    +0.000 NA
ATOM      6  C   UNL     1       2.939   3.068  20.495  0.00  0.00    +0.000 C 
ATOM      7  C   UNL     1       1.888   3.856  21.160  0.00  0.00    +0.000 C 
ATOM      8  C   UNL     1       1.663   5.105  20.734  0.00  0.00    +0.000 C 
ATOM      9  C   UNL     1       2.352   5.554  19.473  0.00  0.00    +0.000 C 
ATOM     10  N   UNL     1       2.355   6.738  18.954  0.00  0.00    +0.000 N 
ATOM     11  C   UNL     1       1.725   7.870  19.531  0.00  0.00    +0.000 A 
ATOM     12  C   UNL     1       1.138   8.809  18.673  0.00  0.00    +0.000 A 
ATOM     13  C   UNL     1       0.602   9.984  19.200  0.00  0.00    +0.000 A 
ATOM     14  C   UNL     1       0.709  10.215  20.563  0.00  0.00    +0.000 A 
ATOM     15  C   UNL     1       1.283   9.225  21.345  0.00  0.00    +0.000 A 
ATOM     16  N   UNL     1       1.744   8.037  20.869  0.00  0.00    +0.000 NA
ATOM     17  C   UNL     1       3.484   7.061  17.877  0.00  0.00    +0.000 C 
ATOM     18  O   UNL     1       3.696   8.250  17.678  0.00  0.00    +0.000 OA
ENDROOT
BRANCH   1  19
ATOM     19  C   UNL     1       5.313   6.324  16.270  0.00  0.00    +0.000 C 
BRANCH  19  21
ATOM     20  C   UNL     1       7.210   4.684  15.664  0.00  0.00    +0.000 C 
ATOM     21  C   UNL     1       6.650   5.681  16.674  0.00  0.00    +0.000 C 
ENDBRANCH  19  21
ENDBRANCH   1  19
TORSDOF 2
ENDMDL
MODEL 9
REMARK VINA RESULT:      -6.5      3.185      5.494
REMARK  Name = 
REMARK  3 active torsions:
REMARK  status: ('A' for Active; 'I' for Inactive)
REMARK    1  A    between atoms: C_1  and  C_2
REMARK    2  A    between atoms: C_2  and  C_3
REMARK    3  A    between atoms: C_3  and  C_4
REMARK                            x       y       z     vdW  Elec       q    Type
REMARK                         _______ _______ _______ _____ _____    ______ ____
ROOT
ATOM      1  C   UNL     1       7.304   6.125  18.012  0.00  0.00    +0.000 C 
ATOM      2  C   UNL     1       6.738   5.395  18.979  0.00  0.00    +0.000 C 
ATOM      3  O   UNL     1       7.055   5.351  20.199  0.00  0.00    +0.000 OA
ATOM      4  C   UNL     1       5.544   4.502  18.666  0.00  0.00    +0.000 C 
ATOM      5  N   UNL     1       4.382   4.955  19.458  0.00  0.00    +0.000 NA
ATOM      6  C   UNL     1       3.258   4.398  19.219  0.00  0.00    +0.000 C 
ATOM      7  C   UNL     1       2.962   3.569  18.040  0.00  0.00    +0.000 C 
ATOM      8  C   UNL     1       3.810   3.608  17.005  0.00  0.00    +0.000 C 
ATOM      9  C   UNL     1       5.116   4.334  17.191  0.00  0.00    +0.000 C 
ATOM     10  N   UNL     1       6.018   4.578  16.297  0.00  0.00    +0.000 N 
ATOM     11  C   UNL     1       5.905   4.230  14.927  0.00  0.00    +0.000 A 
ATOM     12  C   UNL     1       7.065   3.833  14.248  0.00  0.00    +0.000 A 
ATOM     13  C   UNL     1       7.010   3.585  12.876  0.00  0.00    +0.000 A 
ATOM     14  C   UNL     1       5.813   3.787  12.207  0.00  0.00    +0.000 A 
ATOM     15  C   UNL     1       4.707   4.159  12.956  0.00  0.00    +0.000 A 
ATOM     16  N   UNL     1       4.712   4.332  14.306  0.00  0.00    +0.000 NA
ATOM     17  C   UNL     1       7.087   5.712  16.628  0.00  0.00    +0.000 C 
ATOM     18  O   UNL     1       7.682   6.171  15.662  0.00  0.00    +0.000 OA
ENDROOT
BRANCH   1  19
ATOM     19  C   UNL     1       8.246   7.278  18.262  0.00  0.00    +0.000 C 
BRANCH  19  21
ATOM     20  C   UNL     1       8.545   9.839  18.150  0.00  0.00    +0.000 C 
ATOM     21  C   UNL     1       7.691   8.629  17.783  0.00  0.00    +0.000 C 
ENDBRANCH  19  21
ENDBRANCH   1  19
TORSDOF 2
ENDMDL
