MODEL 1
REMARK VINA RESULT:      -7.6      0.000      0.000
REMARK  Name = 
REMARK  6 active torsions:
REMARK  status: ('A' for Active; 'I' for Inactive)
REMARK    1  A    between atoms: N_3  and  C_4
REMARK    2  A    between atoms: C_4  and  C_5
REMARK    3  A    between atoms: C_8  and  C_9
REMARK    4  A    between atoms: N_14  and  C_15
REMARK    5  A    between atoms: C_15  and  C_16
REMARK    6  A    between atoms: C_19  and  O_20
REMARK                            x       y       z     vdW  Elec       q    Type
REMARK                         _______ _______ _______ _____ _____    ______ ____
ROOT
ATOM      1  O   UNL     1       8.210   7.077  18.692  0.00  0.00    +0.000 OA
ATOM      2  C   UNL     1       7.727   7.848  17.878  0.00  0.00    +0.000 C 
ATOM      3  N   UNL     1       6.854   7.472  16.892  0.00  0.00    +0.000 N 
ATOM      4  N   UNL     1       8.008   9.190  17.828  0.00  0.00    +0.000 N 
ATOM      5  H   UNL     1       6.244   8.180  16.518  0.00  0.00    +0.000 HD
ATOM      6  H   UNL     1       7.742   9.678  16.988  0.00  0.00    +0.000 HD
ENDROOT
BRANCH   3   7
ATOM      7  C   UNL     1       6.399   6.102  16.806  0.00  0.00    +0.000 C 
BRANCH   7   8
ATOM      8  C   UNL     1       5.230   5.864  17.728  0.00  0.00    +0.000 A 
ATOM      9  C   UNL     1       5.288   4.827  18.671  0.00  0.00    +0.000 A 
ATOM     10  C   UNL     1       4.226   4.600  19.546  0.00  0.00    +0.000 A 
ATOM     11  C   UNL     1       3.088   5.416  19.510  0.00  0.00    +0.000 A 
ATOM     12  C   UNL     1       3.027   6.452  18.568  0.00  0.00    +0.000 A 
ATOM     13  C   UNL     1       4.090   6.677  17.686  0.00  0.00    +0.000 A 
BRANCH  11  14
ATOM     14  C   UNL     1       1.935   5.152  20.444  0.00  0.00    +0.000 C 
ATOM     15  F   UNL     1       2.315   4.549  21.605  0.00  0.00    +0.000 F 
ATOM     16  F   UNL     1       1.277   6.285  20.817  0.00  0.00    +0.000 F 
ENDBRANCH  11  14
ENDBRANCH   7   8
ENDBRANCH   3   7
BRANCH   4  17
ATOM     17  C   UNL     1       9.009   9.802  18.686  0.00  0.00    +0.000 C 
BRANCH  17  18
ATOM     18  C   UNL     1       9.702  10.999  18.029  0.00  0.00    +0.000 C 
ATOM     19  C   UNL     1      10.890  11.534  18.847  0.00  0.00    +0.000 C 
ATOM     20  C   UNL     1      10.535  12.972  19.208  0.00  0.00    +0.000 C 
ATOM     21  C   UNL     1       9.622  13.428  18.079  0.00  0.00    +0.000 C 
ATOM     22  C   UNL     1       8.769  12.201  17.787  0.00  0.00    +0.000 C 
BRANCH  21  23
ATOM     23  O   UNL     1      10.376  13.800  16.933  0.00  0.00    +0.000 OA
ATOM     24  H   UNL     1      11.042  13.114  16.759  0.00  0.00    +0.000 HD
ENDBRANCH  21  23
ENDBRANCH  17  18
ENDBRANCH   4  17
TORSDOF 6
ENDMDL
MODEL 2
REMARK VINA RESULT:      -7.5      5.452      8.759
REMARK  Name = 
REMARK  6 active torsions:
REMARK  status: ('A' for Active; 'I' for Inactive)
REMARK    1  A    between atoms: N_3  and  C_4
REMARK    2  A    between atoms: C_4  and  C_5
REMARK    3  A    between atoms: C_8  and  C_9
REMARK    4  A    between atoms: N_14  and  C_15
REMARK    5  A    between atoms: C_15  and  C_16
REMARK    6  A    between atoms: C_19  and  O_20
REMARK                            x       y       z     vdW  Elec       q    Type
REMARK                         _______ _______ _______ _____ _____    ______ ____
ROOT
ATOM      1  O   UNL     1       3.406   6.836  18.484  0.00  0.00    +0.000 OA
ATOM      2  C   UNL     1       3.955   6.048  19.238  0.00  0.00    +0.000 C 
ATOM      3  N   UNL     1       5.280   5.709  19.160  0.00  0.00    +0.000 N 
ATOM      4  N   UNL     1       3.315   5.380  20.252  0.00  0.00    +0.000 N 
ATOM      5  H   UNL     1       5.719   5.363  19.997  0.00  0.00    +0.000 HD
ATOM      6  H   UNL     1       3.799   4.594  20.654  0.00  0.00    +0.000 HD
ENDROOT
BRANCH   3   7
ATOM      7  C   UNL     1       6.137   6.343  18.183  0.00  0.00    +0.000 C 
BRANCH   7   8
ATOM      8  C   UNL     1       6.086   5.612  16.866  0.00  0.00    +0.000 A 
ATOM      9  C   UNL     1       5.411   6.185  15.778  0.00  0.00    +0.000 A 
ATOM     10  C   UNL     1       5.366   5.535  14.545  0.00  0.00    +0.000 A 
ATOM     11  C   UNL     1       6.012   4.304  14.366  0.00  0.00    +0.000 A 
ATOM     12  C   UNL     1       6.687   3.729  15.452  0.00  0.00    +0.000 A 
ATOM     13  C   UNL     1       6.727   4.378  16.691  0.00  0.00    +0.000 A 
BRANCH  11  14
ATOM     14  C   UNL     1       5.943   3.597  13.037  0.00  0.00    +0.000 C 
ATOM     15  F   UNL     1       4.715   3.677  12.452  0.00  0.00    +0.000 F 
ATOM     16  F   UNL     1       6.821   4.092  12.120  0.00  0.00    +0.000 F 
ENDBRANCH  11  14
ENDBRANCH   7   8
ENDBRANCH   3   7
BRANCH   4  17
ATOM     17  C   UNL     1       1.877   5.470  20.449  0.00  0.00    +0.000 C 
BRANCH  17  18
ATOM     18  C   UNL     1       1.134   4.218  19.974  0.00  0.00    +0.000 C 
ATOM     19  C   UNL     1       1.463   2.967  20.807  0.00  0.00    +0.000 C 
ATOM     20  C   UNL     1       2.091   1.973  19.837  0.00  0.00    +0.000 C 
ATOM     21  C   UNL     1       1.477   2.324  18.490  0.00  0.00    +0.000 C 
ATOM     22  C   UNL     1       1.417   3.846  18.507  0.00  0.00    +0.000 C 
BRANCH  21  23
ATOM     23  O   UNL     1       0.173   1.772  18.365  0.00  0.00    +0.000 OA
ATOM     24  H   UNL     1      -0.465   2.496  18.249  0.00  0.00    +0.000 HD
ENDBRANCH  21  23
ENDBRANCH  17  18
ENDBRANCH   4  17
TORSDOF 6
ENDMDL
MODEL 3
REMARK VINA RESULT:      -7.5      0.288      1.090
REMARK  Name = 
REMARK  6 active torsions:
REMARK  status: ('A' for Active; 'I' for Inactive)
REMARK    1  A    between atoms: N_3  and  C_4
REMARK    2  A    between atoms: C_4  and  C_5
REMARK    3  A    between atoms: C_8  and  C_9
REMARK    4  A    between atoms: N_14  and  C_15
REMARK    5  A    between atoms: C_15  and  C_16
REMARK    6  A    between atoms: C_19  and  O_20
REMARK                            x       y       z     vdW  Elec       q    Type
REMARK                         _______ _______ _______ _____ _____    ______ ____
ROOT
ATOM      1  O   UNL     1       8.246   7.110  18.733  0.00  0.00    +0.000 OA
ATOM      2  C   UNL     1       7.785   7.855  17.882  0.00  0.00    +0.000 C 
ATOM      3  N   UNL     1       6.958   7.443  16.871  0.00  0.00    +0.000 N 
ATOM      4  N   UNL     1       8.050   9.199  17.811  0.00  0.00    +0.000 N 
ATOM      5  H   UNL     1       6.354   8.133  16.456  0.00  0.00    +0.000 HD
ATOM      6  H   UNL     1       7.812   9.664  16.949  0.00  0.00    +0.000 HD
ENDROOT
BRANCH   3   7
ATOM      7  C   UNL     1       6.524   6.065  16.800  0.00  0.00    +0.000 C 
BRANCH   7   8
ATOM      8  C   UNL     1       5.311   5.837  17.664  0.00  0.00    +0.000 A 
ATOM      9  C   UNL     1       4.155   6.606  17.458  0.00  0.00    +0.000 A 
ATOM     10  C   UNL     1       3.014   6.400  18.232  0.00  0.00    +0.000 A 
ATOM     11  C   UNL     1       2.996   5.406  19.221  0.00  0.00    +0.000 A 
ATOM     12  C   UNL     1       4.149   4.636  19.429  0.00  0.00    +0.000 A 
ATOM     13  C   UNL     1       5.296   4.847  18.656  0.00  0.00    +0.000 A 
BRANCH  11  14
ATOM     14  C   UNL     1       1.766   5.202  20.068  0.00  0.00    +0.000 C 
ATOM     15  F   UNL     1       1.815   4.064  20.815  0.00  0.00    +0.000 F 
ATOM     16  F   UNL     1       1.552   6.215  20.954  0.00  0.00    +0.000 F 
ENDBRANCH  11  14
ENDBRANCH   7   8
ENDBRANCH   3   7
BRANCH   4  17
ATOM     17  C   UNL     1       9.008   9.845  18.693  0.00  0.00    +0.000 C 
BRANCH  17  18
ATOM     18  C   UNL     1       9.703  11.042  18.039  0.00  0.00    +0.000 C 
ATOM     19  C   UNL     1      10.916  11.549  18.839  0.00  0.00    +0.000 C 
ATOM     20  C   UNL     1      10.588  12.987  19.228  0.00  0.00    +0.000 C 
ATOM     21  C   UNL     1       9.659  13.471  18.125  0.00  0.00    +0.000 C 
ATOM     22  C   UNL     1       8.782  12.260  17.833  0.00  0.00    +0.000 C 
BRANCH  21  23
ATOM     23  O   UNL     1      10.394  13.849  16.969  0.00  0.00    +0.000 OA
ATOM     24  H   UNL     1      10.712  13.046  16.522  0.00  0.00    +0.000 HD
ENDBRANCH  21  23
ENDBRANCH  17  18
ENDBRANCH   4  17
TORSDOF 6
ENDMDL
MODEL 4
REMARK VINA RESULT:      -7.5      1.494      1.638
REMARK  Name = 
REMARK  6 active torsions:
REMARK  status: ('A' for Active; 'I' for Inactive)
REMARK    1  A    between atoms: N_3  and  C_4
REMARK    2  A    between atoms: C_4  and  C_5
REMARK    3  A    between atoms: C_8  and  C_9
REMARK    4  A    between atoms: N_14  and  C_15
REMARK    5  A    between atoms: C_15  and  C_16
REMARK    6  A    between atoms: C_19  and  O_20
REMARK                            x       y       z     vdW  Elec       q    Type
REMARK                         _______ _______ _______ _____ _____    ______ ____
ROOT
ATOM      1  O   UNL     1       8.456   7.140  18.802  0.00  0.00    +0.000 OA
ATOM      2  C   UNL     1       7.965   7.825  17.919  0.00  0.00    +0.000 C 
ATOM      3  N   UNL     1       7.274   7.317  16.851  0.00  0.00    +0.000 N 
ATOM      4  N   UNL     1       8.058   9.193  17.864  0.00  0.00    +0.000 N 
ATOM      5  H   UNL     1       6.617   7.927  16.392  0.00  0.00    +0.000 HD
ATOM      6  H   UNL     1       7.825   9.629  16.986  0.00  0.00    +0.000 HD
ENDROOT
BRANCH   3   7
ATOM      7  C   UNL     1       7.028   5.895  16.752  0.00  0.00    +0.000 C 
BRANCH   7   8
ATOM      8  C   UNL     1       5.600   5.568  17.106  0.00  0.00    +0.000 A 
ATOM      9  C   UNL     1       5.096   4.284  16.848  0.00  0.00    +0.000 A 
ATOM     10  C   UNL     1       3.783   3.954  17.185  0.00  0.00    +0.000 A 
ATOM     11  C   UNL     1       2.949   4.895  17.802  0.00  0.00    +0.000 A 
ATOM     12  C   UNL     1       3.450   6.179  18.061  0.00  0.00    +0.000 A 
ATOM     13  C   UNL     1       4.766   6.512  17.718  0.00  0.00    +0.000 A 
BRANCH  11  14
ATOM     14  C   UNL     1       1.525   4.538  18.144  0.00  0.00    +0.000 C 
ATOM     15  F   UNL     1       0.767   4.255  17.048  0.00  0.00    +0.000 F 
ATOM     16  F   UNL     1       1.426   3.446  18.953  0.00  0.00    +0.000 F 
ENDBRANCH  11  14
ENDBRANCH   7   8
ENDBRANCH   3   7
BRANCH   4  17
ATOM     17  C   UNL     1       8.858   9.950  18.812  0.00  0.00    +0.000 C 
BRANCH  17  18
ATOM     18  C   UNL     1       9.657  11.076  18.148  0.00  0.00    +0.000 C 
ATOM     19  C   UNL     1      10.754  11.657  19.057  0.00  0.00    +0.000 C 
ATOM     20  C   UNL     1      10.398  13.127  19.254  0.00  0.00    +0.000 C 
ATOM     21  C   UNL     1       9.639  13.501  17.989  0.00  0.00    +0.000 C 
ATOM     22  C   UNL     1       8.793  12.269  17.698  0.00  0.00    +0.000 C 
BRANCH  21  23
ATOM     23  O   UNL     1      10.534  13.762  16.916  0.00  0.00    +0.000 OA
ATOM     24  H   UNL     1      10.097  14.352  16.279  0.00  0.00    +0.000 HD
ENDBRANCH  21  23
ENDBRANCH  17  18
ENDBRANCH   4  17
TORSDOF 6
ENDMDL
MODEL 5
REMARK VINA RESULT:      -7.4      5.648      8.708
REMARK  Name = 
REMARK  6 active torsions:
REMARK  status: ('A' for Active; 'I' for Inactive)
REMARK    1  A    between atoms: N_3  and  C_4
REMARK    2  A    between atoms: C_4  and  C_5
REMARK    3  A    between atoms: C_8  and  C_9
REMARK    4  A    between atoms: N_14  and  C_15
REMARK    5  A    between atoms: C_15  and  C_16
REMARK    6  A    between atoms: C_19  and  O_20
REMARK                            x       y       z     vdW  Elec       q    Type
REMARK                         _______ _______ _______ _____ _____    ______ ____
ROOT
ATOM      1  O   UNL     1       4.787   6.663  17.705  0.00  0.00    +0.000 OA
ATOM      2  C   UNL     1       5.156   5.674  18.319  0.00  0.00    +0.000 C 
ATOM      3  N   UNL     1       6.282   4.957  18.012  0.00  0.00    +0.000 N 
ATOM      4  N   UNL     1       4.482   5.136  19.387  0.00  0.00    +0.000 N 
ATOM      5  H   UNL     1       6.699   4.412  18.747  0.00  0.00    +0.000 HD
ATOM      6  H   UNL     1       4.743   4.203  19.664  0.00  0.00    +0.000 HD
ENDROOT
BRANCH   3   7
ATOM      7  C   UNL     1       7.153   5.394  16.943  0.00  0.00    +0.000 C 
BRANCH   7   8
ATOM      8  C   UNL     1       6.716   4.818  15.621  0.00  0.00    +0.000 A 
ATOM      9  C   UNL     1       7.435   5.127  14.456  0.00  0.00    +0.000 A 
ATOM     10  C   UNL     1       7.059   4.591  13.224  0.00  0.00    +0.000 A 
ATOM     11  C   UNL     1       5.965   3.720  13.132  0.00  0.00    +0.000 A 
ATOM     12  C   UNL     1       5.245   3.410  14.294  0.00  0.00    +0.000 A 
ATOM     13  C   UNL     1       5.618   3.952  15.529  0.00  0.00    +0.000 A 
BRANCH  11  14
ATOM     14  C   UNL     1       5.552   3.160  11.794  0.00  0.00    +0.000 C 
ATOM     15  F   UNL     1       5.690   1.807  11.715  0.00  0.00    +0.000 F 
ATOM     16  F   UNL     1       4.250   3.417  11.485  0.00  0.00    +0.000 F 
ENDBRANCH  11  14
ENDBRANCH   7   8
ENDBRANCH   3   7
BRANCH   4  17
ATOM     17  C   UNL     1       3.188   5.640  19.816  0.00  0.00    +0.000 C 
BRANCH  17  18
ATOM     18  C   UNL     1       2.028   4.737  19.390  0.00  0.00    +0.000 C 
ATOM     19  C   UNL     1       1.079   4.383  20.547  0.00  0.00    +0.000 C 
ATOM     20  C   UNL     1       1.140   2.866  20.689  0.00  0.00    +0.000 C 
ATOM     21  C   UNL     1       1.475   2.372  19.289  0.00  0.00    +0.000 C 
ATOM     22  C   UNL     1       2.476   3.397  18.775  0.00  0.00    +0.000 C 
BRANCH  21  23
ATOM     23  O   UNL     1       0.316   2.345  18.467  0.00  0.00    +0.000 OA
ATOM     24  H   UNL     1      -0.012   3.254  18.356  0.00  0.00    +0.000 HD
ENDBRANCH  21  23
ENDBRANCH  17  18
ENDBRANCH   4  17
TORSDOF 6
ENDMDL
MODEL 6
REMARK VINA RESULT:      -7.4      6.123      9.014
REMARK  Name = 
REMARK  6 active torsions:
REMARK  status: ('A' for Active; 'I' for Inactive)
REMARK    1  A    between atoms: N_3  and  C_4
REMARK    2  A    between atoms: C_4  and  C_5
REMARK    3  A    between atoms: C_8  and  C_9
REMARK    4  A    between atoms: N_14  and  C_15
REMARK    5  A    between atoms: C_15  and  C_16
REMARK    6  A    between atoms: C_19  and  O_20
REMARK                            x       y       z     vdW  Elec       q    Type
REMARK                         _______ _______ _______ _____ _____    ______ ____
ROOT
ATOM      1  O   UNL     1       4.572   5.058  19.151  0.00  0.00    +0.000 OA
ATOM      2  C   UNL     1       5.326   4.098  19.137  0.00  0.00    +0.000 C 
ATOM      3  N   UNL     1       6.427   4.001  18.329  0.00  0.00    +0.000 N 
ATOM      4  N   UNL     1       5.162   2.979  19.914  0.00  0.00    +0.000 N 
ATOM      5  H   UNL     1       7.167   3.385  18.624  0.00  0.00    +0.000 HD
ATOM      6  H   UNL     1       5.698   2.166  19.658  0.00  0.00    +0.000 HD
ENDROOT
BRANCH   3   7
ATOM      7  C   UNL     1       6.797   5.103  17.466  0.00  0.00    +0.000 C 
BRANCH   7   8
ATOM      8  C   UNL     1       6.687   4.711  16.015  0.00  0.00    +0.000 A 
ATOM      9  C   UNL     1       5.669   3.837  15.605  0.00  0.00    +0.000 A 
ATOM     10  C   UNL     1       5.537   3.476  14.265  0.00  0.00    +0.000 A 
ATOM     11  C   UNL     1       6.410   3.995  13.299  0.00  0.00    +0.000 A 
ATOM     12  C   UNL     1       7.429   4.868  13.706  0.00  0.00    +0.000 A 
ATOM     13  C   UNL     1       7.565   5.226  15.052  0.00  0.00    +0.000 A 
BRANCH  11  14
ATOM     14  C   UNL     1       6.275   3.584  11.855  0.00  0.00    +0.000 C 
ATOM     15  F   UNL     1       7.088   2.545  11.516  0.00  0.00    +0.000 F 
ATOM     16  F   UNL     1       5.014   3.187  11.527  0.00  0.00    +0.000 F 
ENDBRANCH  11  14
ENDBRANCH   7   8
ENDBRANCH   3   7
BRANCH   4  17
ATOM     17  C   UNL     1       3.992   2.789  20.755  0.00  0.00    +0.000 C 
BRANCH  17  18
ATOM     18  C   UNL     1       2.787   2.247  19.981  0.00  0.00    +0.000 C 
ATOM     19  C   UNL     1       3.156   1.702  18.591  0.00  0.00    +0.000 C 
ATOM     20  C   UNL     1       2.388   2.557  17.589  0.00  0.00    +0.000 C 
ATOM     21  C   UNL     1       1.151   3.008  18.352  0.00  0.00    +0.000 C 
ATOM     22  C   UNL     1       1.675   3.288  19.755  0.00  0.00    +0.000 C 
BRANCH  21  23
ATOM     23  O   UNL     1       0.167   1.983  18.379  0.00  0.00    +0.000 OA
ATOM     24  H   UNL     1      -0.345   2.059  19.203  0.00  0.00    +0.000 HD
ENDBRANCH  21  23
ENDBRANCH  17  18
ENDBRANCH   4  17
TORSDOF 6
ENDMDL
MODEL 7
REMARK VINA RESULT:      -7.4      3.935      4.758
REMARK  Name = 
REMARK  6 active torsions:
REMARK  status: ('A' for Active; 'I' for Inactive)
REMARK    1  A    between atoms: N_3  and  C_4
REMARK    2  A    between atoms: C_4  and  C_5
REMARK    3  A    between atoms: C_8  and  C_9
REMARK    4  A    between atoms: N_14  and  C_15
REMARK    5  A    between atoms: C_15  and  C_16
REMARK    6  A    between atoms: C_19  and  O_20
REMARK                            x       y       z     vdW  Elec       q    Type
REMARK                         _______ _______ _______ _____ _____    ______ ____
ROOT
ATOM      1  O   UNL     1       8.249   7.016  19.058  0.00  0.00    +0.000 OA
ATOM      2  C   UNL     1       7.964   7.533  17.989  0.00  0.00    +0.000 C 
ATOM      3  N   UNL     1       7.480   6.843  16.909  0.00  0.00    +0.000 N 
ATOM      4  N   UNL     1       8.109   8.871  17.719  0.00  0.00    +0.000 N 
ATOM      5  H   UNL     1       6.946   7.361  16.230  0.00  0.00    +0.000 HD
ATOM      6  H   UNL     1       8.067   9.145  16.751  0.00  0.00    +0.000 HD
ENDROOT
BRANCH   3   7
ATOM      7  C   UNL     1       7.214   5.425  17.011  0.00  0.00    +0.000 C 
BRANCH   7   8
ATOM      8  C   UNL     1       6.730   4.872  15.695  0.00  0.00    +0.000 A 
ATOM      9  C   UNL     1       7.512   5.035  14.542  0.00  0.00    +0.000 A 
ATOM     10  C   UNL     1       7.093   4.515  13.317  0.00  0.00    +0.000 A 
ATOM     11  C   UNL     1       5.888   3.805  13.221  0.00  0.00    +0.000 A 
ATOM     12  C   UNL     1       5.104   3.641  14.372  0.00  0.00    +0.000 A 
ATOM     13  C   UNL     1       5.522   4.168  15.600  0.00  0.00    +0.000 A 
BRANCH  11  14
ATOM     14  C   UNL     1       5.431   3.264  11.891  0.00  0.00    +0.000 C 
ATOM     15  F   UNL     1       5.648   1.926  11.755  0.00  0.00    +0.000 F 
ATOM     16  F   UNL     1       4.099   3.445  11.668  0.00  0.00    +0.000 F 
ENDBRANCH  11  14
ENDBRANCH   7   8
ENDBRANCH   3   7
BRANCH   4  17
ATOM     17  C   UNL     1       8.730   9.785  18.662  0.00  0.00    +0.000 C 
BRANCH  17  18
ATOM     18  C   UNL     1       9.510  10.909  17.973  0.00  0.00    +0.000 C 
ATOM     19  C   UNL     1      10.729  11.384  18.782  0.00  0.00    +0.000 C 
ATOM     20  C   UNL     1      10.476  12.855  19.094  0.00  0.00    +0.000 C 
ATOM     21  C   UNL     1       9.605  13.338  17.944  0.00  0.00    +0.000 C 
ATOM     22  C   UNL     1       8.667  12.165  17.685  0.00  0.00    +0.000 C 
BRANCH  21  23
ATOM     23  O   UNL     1      10.389  13.617  16.793  0.00  0.00    +0.000 OA
ATOM     24  H   UNL     1      10.150  12.990  16.089  0.00  0.00    +0.000 HD
ENDBRANCH  21  23
ENDBRANCH  17  18
ENDBRANCH   4  17
TORSDOF 6
ENDMDL
MODEL 8
REMARK VINA RESULT:      -7.3      1.447      1.802
REMARK  Name = 
REMARK  6 active torsions:
REMARK  status: ('A' for Active; 'I' for Inactive)
REMARK    1  A    between atoms: N_3  and  C_4
REMARK    2  A    between atoms: C_4  and  C_5
REMARK    3  A    between atoms: C_8  and  C_9
REMARK    4  A    between atoms: N_14  and  C_15
REMARK    5  A    between atoms: C_15  and  C_16
REMARK    6  A    between atoms: C_19  and  O_20
REMARK                            x       y       z     vdW  Elec       q    Type
REMARK                         _______ _______ _______ _____ _____    ______ ____
ROOT
ATOM      1  O   UNL     1       7.745   9.209  17.329  0.00  0.00    +0.000 OA
ATOM      2  C   UNL     1       8.273   8.564  18.222  0.00  0.00    +0.000 C 
ATOM      3  N   UNL     1       8.127   7.212  18.379  0.00  0.00    +0.000 N 
ATOM      4  N   UNL     1       9.067   9.110  19.199  0.00  0.00    +0.000 N 
ATOM      5  H   UNL     1       8.849   6.723  18.882  0.00  0.00    +0.000 HD
ATOM      6  H   UNL     1       9.254   8.535  20.005  0.00  0.00    +0.000 HD
ENDROOT
BRANCH   3   7
ATOM      7  C   UNL     1       7.362   6.446  17.419  0.00  0.00    +0.000 C 
BRANCH   7   8
ATOM      8  C   UNL     1       5.984   6.141  17.948  0.00  0.00    +0.000 A 
ATOM      9  C   UNL     1       4.858   6.684  17.310  0.00  0.00    +0.000 A 
ATOM     10  C   UNL     1       3.573   6.401  17.771  0.00  0.00    +0.000 A 
ATOM     11  C   UNL     1       3.382   5.552  18.870  0.00  0.00    +0.000 A 
ATOM     12  C   UNL     1       4.505   5.008  19.509  0.00  0.00    +0.000 A 
ATOM     13  C   UNL     1       5.795   5.297  19.050  0.00  0.00    +0.000 A 
BRANCH  11  14
ATOM     14  C   UNL     1       1.991   5.267  19.375  0.00  0.00    +0.000 C 
ATOM     15  F   UNL     1       1.394   4.223  18.734  0.00  0.00    +0.000 F 
ATOM     16  F   UNL     1       1.956   4.954  20.700  0.00  0.00    +0.000 F 
ENDBRANCH  11  14
ENDBRANCH   7   8
ENDBRANCH   3   7
BRANCH   4  17
ATOM     17  C   UNL     1       9.261  10.545  19.324  0.00  0.00    +0.000 C 
BRANCH  17  18
ATOM     18  C   UNL     1      10.456  11.054  18.512  0.00  0.00    +0.000 C 
ATOM     19  C   UNL     1      11.624  11.533  19.391  0.00  0.00    +0.000 C 
ATOM     20  C   UNL     1      11.811  13.012  19.067  0.00  0.00    +0.000 C 
ATOM     21  C   UNL     1      11.327  13.145  17.631  0.00  0.00    +0.000 C 
ATOM     22  C   UNL     1      10.114  12.226  17.572  0.00  0.00    +0.000 C 
BRANCH  21  23
ATOM     23  O   UNL     1      12.326  12.718  16.714  0.00  0.00    +0.000 OA
ATOM     24  H   UNL     1      12.397  11.749  16.755  0.00  0.00    +0.000 HD
ENDBRANCH  21  23
ENDBRANCH  17  18
ENDBRANCH   4  17
TORSDOF 6
ENDMDL
MODEL 9
REMARK VINA RESULT:      -7.3      5.683      8.981
REMARK  Name = 
REMARK  6 active torsions:
REMARK  status: ('A' for Active; 'I' for Inactive)
REMARK    1  A    between atoms: N_3  and  C_4
REMARK    2  A    between atoms: C_4  and  C_5
REMARK    3  A    between atoms: C_8  and  C_9
REMARK    4  A    between atoms: N_14  and  C_15
REMARK    5  A    between atoms: C_15  and  C_16
REMARK    6  A    between atoms: C_19  and  O_20
REMARK                            x       y       z     vdW  Elec       q    Type
REMARK                         _______ _______ _______ _____ _____    ______ ____
ROOT
ATOM      1  O   UNL     1       4.251   6.968  17.533  0.00  0.00    +0.000 OA
ATOM      2  C   UNL     1       4.768   5.956  17.980  0.00  0.00    +0.000 C 
ATOM      3  N   UNL     1       5.911   5.393  17.476  0.00  0.00    +0.000 N 
ATOM      4  N   UNL     1       4.265   5.236  19.034  0.00  0.00    +0.000 N 
ATOM      5  H   UNL     1       6.452   4.811  18.093  0.00  0.00    +0.000 HD
ATOM      6  H   UNL     1       4.634   4.308  19.167  0.00  0.00    +0.000 HD
ENDROOT
BRANCH   3   7
ATOM      7  C   UNL     1       6.619   6.032  16.388  0.00  0.00    +0.000 C 
BRANCH   7   8
ATOM      8  C   UNL     1       6.546   5.200  15.135  0.00  0.00    +0.000 A 
ATOM      9  C   UNL     1       5.455   4.341  14.932  0.00  0.00    +0.000 A 
ATOM     10  C   UNL     1       5.358   3.575  13.771  0.00  0.00    +0.000 A 
ATOM     11  C   UNL     1       6.342   3.662  12.776  0.00  0.00    +0.000 A 
ATOM     12  C   UNL     1       7.433   4.519  12.976  0.00  0.00    +0.000 A 
ATOM     13  C   UNL     1       7.534   5.284  14.144  0.00  0.00    +0.000 A 
BRANCH  11  14
ATOM     14  C   UNL     1       6.242   2.816  11.533  0.00  0.00    +0.000 C 
ATOM     15  F   UNL     1       7.401   2.167  11.233  0.00  0.00    +0.000 F 
ATOM     16  F   UNL     1       5.289   1.846  11.620  0.00  0.00    +0.000 F 
ENDBRANCH  11  14
ENDBRANCH   7   8
ENDBRANCH   3   7
BRANCH   4  17
ATOM     17  C   UNL     1       2.988   5.558  19.649  0.00  0.00    +0.000 C 
BRANCH  17  18
ATOM     18  C   UNL     1       1.885   4.561  19.283  0.00  0.00    +0.000 C 
ATOM     19  C   UNL     1       1.037   4.127  20.491  0.00  0.00    +0.000 C 
ATOM     20  C   UNL     1       1.234   2.620  20.619  0.00  0.00    +0.000 C 
ATOM     21  C   UNL     1       1.527   2.158  19.199  0.00  0.00    +0.000 C 
ATOM     22  C   UNL     1       2.408   3.266  18.635  0.00  0.00    +0.000 C 
BRANCH  21  23
ATOM     23  O   UNL     1       0.329   2.036  18.444  0.00  0.00    +0.000 OA
ATOM     24  H   UNL     1      -0.379   1.715  19.028  0.00  0.00    +0.000 HD
ENDBRANCH  21  23
ENDBRANCH  17  18
ENDBRANCH   4  17
TORSDOF 6
ENDMDL
