MODEL 1
REMARK VINA RESULT:      -8.6      0.000      0.000
REMARK  Name = 
REMARK  8 active torsions:
REMARK  status: ('A' for Active; 'I' for Inactive)
REMARK    1  A    between atoms: C_2  and  C_3
REMARK    2  A    between atoms: C_3  and  O_4
REMARK    3  A    between atoms: O_4  and  C_5
REMARK    4  A    between atoms: N_12  and  C_13
REMARK    5  A    between atoms: C_16  and  C_17
REMARK    6  A    between atoms: C_17  and  O_19
REMARK    7  A    between atoms: O_19  and  C_20
REMARK    8  A    between atoms: C_20  and  C_21
REMARK                            x       y       z     vdW  Elec       q    Type
REMARK                         _______ _______ _______ _____ _____    ______ ____
ROOT
ATOM      1  C   UNL     1       1.799   6.670  20.133  0.00  0.00    +0.000 A 
ATOM      2  C   UNL     1       1.628   5.503  20.881  0.00  0.00    +0.000 A 
ATOM      3  C   UNL     1       1.577   4.251  20.257  0.00  0.00    +0.000 A 
ATOM      4  C   UNL     1       1.697   4.143  18.869  0.00  0.00    +0.000 A 
ATOM      5  C   UNL     1       1.875   5.308  18.111  0.00  0.00    +0.000 A 
ATOM      6  C   UNL     1       1.914   6.564  18.741  0.00  0.00    +0.000 A 
ENDROOT
BRANCH   1   9
ATOM      7  O   UNL     1      -0.353   8.074  21.557  0.00  0.00    +0.000 OA
ATOM      8  C   UNL     1       0.729   8.599  21.294  0.00  0.00    +0.000 C 
ATOM      9  N   UNL     1       1.815   7.961  20.715  0.00  0.00    +0.000 N 
ATOM     10  H   UNL     1       2.714   8.420  20.789  0.00  0.00    +0.000 HD
BRANCH   8  11
ATOM     11  C   UNL     1       0.946  10.087  21.573  0.00  0.00    +0.000 C 
BRANCH  11  12
ATOM     12  O   UNL     1       0.963  10.853  20.377  0.00  0.00    +0.000 OA
BRANCH  12  13
ATOM     13  C   UNL     1      -0.265  11.114  19.820  0.00  0.00    +0.000 A 
ATOM     14  C   UNL     1      -1.206  12.022  20.315  0.00  0.00    +0.000 A 
ATOM     15  C   UNL     1      -2.431  12.198  19.665  0.00  0.00    +0.000 A 
ATOM     16  C   UNL     1      -2.716  11.472  18.512  0.00  0.00    +0.000 A 
ATOM     17 CL   UNL     1      -4.232  11.682  17.727  0.00  0.00    +0.000 Cl
ATOM     18  C   UNL     1      -1.778  10.583  17.995  0.00  0.00    +0.000 A 
ATOM     19  C   UNL     1      -0.552  10.413  18.644  0.00  0.00    +0.000 A 
ENDBRANCH  12  13
ENDBRANCH  11  12
ENDBRANCH   8  11
ENDBRANCH   1   9
BRANCH   4  20
ATOM     20  C   UNL     1       1.596   2.783  18.270  0.00  0.00    +0.000 C 
ATOM     21  O   UNL     1       0.707   1.995  18.550  0.00  0.00    +0.000 OA
BRANCH  20  22
ATOM     22  O   UNL     1       2.591   2.573  17.380  0.00  0.00    +0.000 OA
BRANCH  22  23
ATOM     23  C   UNL     1       3.902   2.363  17.933  0.00  0.00    +0.000 C 
BRANCH  23  24
ATOM     24  C   UNL     1       4.767   3.567  17.621  0.00  0.00    +0.000 A 
ATOM     25  C   UNL     1       4.680   4.183  16.428  0.00  0.00    +0.000 A 
ATOM     26  C   UNL     1       5.533   5.361  16.155  0.00  0.00    +0.000 A 
ATOM     27  O   UNL     1       5.469   5.925  15.067  0.00  0.00    +0.000 OA
ATOM     28  N   UNL     1       6.356   5.718  17.193  0.00  0.00    +0.000 N 
ATOM     29  C   UNL     1       7.228   6.785  17.180  0.00  0.00    +0.000 A 
ATOM     30  C   UNL     1       7.925   6.929  18.312  0.00  0.00    +0.000 A 
ATOM     31  S   UNL     1       7.516   5.699  19.477  0.00  0.00    +0.000 S 
ATOM     32  C   UNL     1       6.356   4.994  18.362  0.00  0.00    +0.000 A 
ATOM     33  N   UNL     1       5.632   3.961  18.622  0.00  0.00    +0.000 NA
ENDBRANCH  23  24
ENDBRANCH  22  23
ENDBRANCH  20  22
ENDBRANCH   4  20
TORSDOF 8
ENDMDL
MODEL 2
REMARK VINA RESULT:      -8.1      2.245      2.538
REMARK  Name = 
REMARK  8 active torsions:
REMARK  status: ('A' for Active; 'I' for Inactive)
REMARK    1  A    between atoms: C_2  and  C_3
REMARK    2  A    between atoms: C_3  and  O_4
REMARK    3  A    between atoms: O_4  and  C_5
REMARK    4  A    between atoms: N_12  and  C_13
REMARK    5  A    between atoms: C_16  and  C_17
REMARK    6  A    between atoms: C_17  and  O_19
REMARK    7  A    between atoms: O_19  and  C_20
REMARK    8  A    between atoms: C_20  and  C_21
REMARK                            x       y       z     vdW  Elec       q    Type
REMARK                         _______ _______ _______ _____ _____    ______ ____
ROOT
ATOM      1  C   UNL     1       1.745   7.345  20.301  0.00  0.00    +0.000 A 
ATOM      2  C   UNL     1       1.514   6.162  21.007  0.00  0.00    +0.000 A 
ATOM      3  C   UNL     1       1.636   4.917  20.381  0.00  0.00    +0.000 A 
ATOM      4  C   UNL     1       1.992   4.830  19.033  0.00  0.00    +0.000 A 
ATOM      5  C   UNL     1       2.232   6.010  18.318  0.00  0.00    +0.000 A 
ATOM      6  C   UNL     1       2.097   7.259  18.947  0.00  0.00    +0.000 A 
ENDROOT
BRANCH   1   9
ATOM      7  O   UNL     1      -0.576   8.468  21.707  0.00  0.00    +0.000 OA
ATOM      8  C   UNL     1       0.433   9.126  21.450  0.00  0.00    +0.000 C 
ATOM      9  N   UNL     1       1.594   8.628  20.879  0.00  0.00    +0.000 N 
ATOM     10  H   UNL     1       2.428   9.197  20.957  0.00  0.00    +0.000 HD
BRANCH   8  11
ATOM     11  C   UNL     1       0.458  10.629  21.725  0.00  0.00    +0.000 C 
BRANCH  11  12
ATOM     12  O   UNL     1       0.109  11.385  20.574  0.00  0.00    +0.000 OA
BRANCH  12  13
ATOM     13  C   UNL     1       1.103  12.179  20.060  0.00  0.00    +0.000 A 
ATOM     14  C   UNL     1       1.744  13.221  20.736  0.00  0.00    +0.000 A 
ATOM     15  C   UNL     1       2.742  13.970  20.104  0.00  0.00    +0.000 A 
ATOM     16  C   UNL     1       3.108  13.672  18.794  0.00  0.00    +0.000 A 
ATOM     17 CL   UNL     1       4.324  14.607  18.017  0.00  0.00    +0.000 Cl
ATOM     18  C   UNL     1       2.494  12.622  18.117  0.00  0.00    +0.000 A 
ATOM     19  C   UNL     1       1.501  11.872  18.754  0.00  0.00    +0.000 A 
ENDBRANCH  12  13
ENDBRANCH  11  12
ENDBRANCH   8  11
ENDBRANCH   1   9
BRANCH   4  20
ATOM     20  C   UNL     1       2.066   3.472  18.424  0.00  0.00    +0.000 C 
ATOM     21  O   UNL     1       1.185   3.009  17.717  0.00  0.00    +0.000 OA
BRANCH  20  22
ATOM     22  O   UNL     1       3.231   2.864  18.742  0.00  0.00    +0.000 OA
BRANCH  22  23
ATOM     23  C   UNL     1       4.148   2.648  17.656  0.00  0.00    +0.000 C 
BRANCH  23  24
ATOM     24  C   UNL     1       4.977   3.900  17.455  0.00  0.00    +0.000 A 
ATOM     25  C   UNL     1       4.818   4.659  16.357  0.00  0.00    +0.000 A 
ATOM     26  C   UNL     1       5.638   5.880  16.192  0.00  0.00    +0.000 A 
ATOM     27  O   UNL     1       5.507   6.575  15.188  0.00  0.00    +0.000 OA
ATOM     28  N   UNL     1       6.508   6.122  17.224  0.00  0.00    +0.000 N 
ATOM     29  C   UNL     1       7.362   7.201  17.302  0.00  0.00    +0.000 A 
ATOM     30  C   UNL     1       8.116   7.217  18.406  0.00  0.00    +0.000 A 
ATOM     31  S   UNL     1       7.787   5.842  19.426  0.00  0.00    +0.000 S 
ATOM     32  C   UNL     1       6.581   5.257  18.290  0.00  0.00    +0.000 A 
ATOM     33  N   UNL     1       5.888   4.184  18.453  0.00  0.00    +0.000 NA
ENDBRANCH  23  24
ENDBRANCH  22  23
ENDBRANCH  20  22
ENDBRANCH   4  20
TORSDOF 8
ENDMDL
MODEL 3
REMARK VINA RESULT:      -8.0      1.883      2.333
REMARK  Name = 
REMARK  8 active torsions:
REMARK  status: ('A' for Active; 'I' for Inactive)
REMARK    1  A    between atoms: C_2  and  C_3
REMARK    2  A    between atoms: C_3  and  O_4
REMARK    3  A    between atoms: O_4  and  C_5
REMARK    4  A    between atoms: N_12  and  C_13
REMARK    5  A    between atoms: C_16  and  C_17
REMARK    6  A    between atoms: C_17  and  O_19
REMARK    7  A    between atoms: O_19  and  C_20
REMARK    8  A    between atoms: C_20  and  C_21
REMARK                            x       y       z     vdW  Elec       q    Type
REMARK                         _______ _______ _______ _____ _____    ______ ____
ROOT
ATOM      1  C   UNL     1       1.781   6.522  20.164  0.00  0.00    +0.000 A 
ATOM      2  C   UNL     1       1.469   5.414  20.956  0.00  0.00    +0.000 A 
ATOM      3  C   UNL     1       1.307   4.146  20.385  0.00  0.00    +0.000 A 
ATOM      4  C   UNL     1       1.454   3.962  19.008  0.00  0.00    +0.000 A 
ATOM      5  C   UNL     1       1.773   5.066  18.207  0.00  0.00    +0.000 A 
ATOM      6  C   UNL     1       1.924   6.339  18.783  0.00  0.00    +0.000 A 
ENDROOT
BRANCH   1   9
ATOM      7  O   UNL     1      -0.208   8.141  21.594  0.00  0.00    +0.000 OA
ATOM      8  C   UNL     1       0.901   8.572  21.276  0.00  0.00    +0.000 C 
ATOM      9  N   UNL     1       1.914   7.829  20.690  0.00  0.00    +0.000 N 
ATOM     10  H   UNL     1       2.847   8.221  20.715  0.00  0.00    +0.000 HD
BRANCH   8  11
ATOM     11  C   UNL     1       1.238  10.048  21.484  0.00  0.00    +0.000 C 
BRANCH  11  12
ATOM     12  O   UNL     1       0.562  10.882  20.553  0.00  0.00    +0.000 OA
BRANCH  12  13
ATOM     13  C   UNL     1      -0.589  11.473  21.010  0.00  0.00    +0.000 A 
ATOM     14  C   UNL     1      -1.599  12.015  20.209  0.00  0.00    +0.000 A 
ATOM     15  C   UNL     1      -2.727  12.602  20.791  0.00  0.00    +0.000 A 
ATOM     16  C   UNL     1      -2.853  12.641  22.176  0.00  0.00    +0.000 A 
ATOM     17 CL   UNL     1      -4.235  13.379  22.885  0.00  0.00    +0.000 Cl
ATOM     18  C   UNL     1      -1.866  12.084  22.985  0.00  0.00    +0.000 A 
ATOM     19  C   UNL     1      -0.741  11.494  22.400  0.00  0.00    +0.000 A 
ENDBRANCH  12  13
ENDBRANCH  11  12
ENDBRANCH   8  11
ENDBRANCH   1   9
BRANCH   4  20
ATOM     20  C   UNL     1       1.230   2.593  18.466  0.00  0.00    +0.000 C 
ATOM     21  O   UNL     1       0.214   1.950  18.677  0.00  0.00    +0.000 OA
BRANCH  20  22
ATOM     22  O   UNL     1       2.276   2.197  17.708  0.00  0.00    +0.000 OA
BRANCH  22  23
ATOM     23  C   UNL     1       3.495   1.908  18.412  0.00  0.00    +0.000 C 
BRANCH  23  24
ATOM     24  C   UNL     1       4.484   3.030  18.168  0.00  0.00    +0.000 A 
ATOM     25  C   UNL     1       5.072   3.664  19.198  0.00  0.00    +0.000 A 
ATOM     26  C   UNL     1       6.039   4.750  18.927  0.00  0.00    +0.000 A 
ATOM     27  O   UNL     1       6.574   5.341  19.860  0.00  0.00    +0.000 OA
ATOM     28  N   UNL     1       6.247   5.005  17.595  0.00  0.00    +0.000 N 
ATOM     29  C   UNL     1       7.108   5.958  17.097  0.00  0.00    +0.000 A 
ATOM     30  C   UNL     1       7.136   6.019  15.762  0.00  0.00    +0.000 A 
ATOM     31  S   UNL     1       6.051   4.858  15.045  0.00  0.00    +0.000 S 
ATOM     32  C   UNL     1       5.571   4.288  16.636  0.00  0.00    +0.000 A 
ATOM     33  N   UNL     1       4.718   3.346  16.844  0.00  0.00    +0.000 NA
ENDBRANCH  23  24
ENDBRANCH  22  23
ENDBRANCH  20  22
ENDBRANCH   4  20
TORSDOF 8
ENDMDL
MODEL 4
REMARK VINA RESULT:      -7.9      4.812     10.186
REMARK  Name = 
REMARK  8 active torsions:
REMARK  status: ('A' for Active; 'I' for Inactive)
REMARK    1  A    between atoms: C_2  and  C_3
REMARK    2  A    between atoms: C_3  and  O_4
REMARK    3  A    between atoms: O_4  and  C_5
REMARK    4  A    between atoms: N_12  and  C_13
REMARK    5  A    between atoms: C_16  and  C_17
REMARK    6  A    between atoms: C_17  and  O_19
REMARK    7  A    between atoms: O_19  and  C_20
REMARK    8  A    between atoms: C_20  and  C_21
REMARK                            x       y       z     vdW  Elec       q    Type
REMARK                         _______ _______ _______ _____ _____    ______ ____
ROOT
ATOM      1  C   UNL     1       2.272   7.305  18.815  0.00  0.00    +0.000 A 
ATOM      2  C   UNL     1       1.955   7.461  20.167  0.00  0.00    +0.000 A 
ATOM      3  C   UNL     1       1.368   8.641  20.636  0.00  0.00    +0.000 A 
ATOM      4  C   UNL     1       1.084   9.691  19.760  0.00  0.00    +0.000 A 
ATOM      5  C   UNL     1       1.391   9.542  18.401  0.00  0.00    +0.000 A 
ATOM      6  C   UNL     1       1.992   8.360  17.936  0.00  0.00    +0.000 A 
ENDROOT
BRANCH   1   9
ATOM      7  O   UNL     1       1.496   4.491  19.134  0.00  0.00    +0.000 OA
ATOM      8  C   UNL     1       2.533   4.839  18.568  0.00  0.00    +0.000 C 
ATOM      9  N   UNL     1       2.904   6.148  18.301  0.00  0.00    +0.000 N 
ATOM     10  H   UNL     1       3.635   6.290  17.616  0.00  0.00    +0.000 HD
BRANCH   8  11
ATOM     11  C   UNL     1       3.557   3.790  18.132  0.00  0.00    +0.000 C 
BRANCH  11  12
ATOM     12  O   UNL     1       4.891   4.251  18.297  0.00  0.00    +0.000 OA
BRANCH  12  13
ATOM     13  C   UNL     1       5.596   4.458  17.138  0.00  0.00    +0.000 A 
ATOM     14  C   UNL     1       6.915   4.914  17.059  0.00  0.00    +0.000 A 
ATOM     15  C   UNL     1       7.529   5.096  15.815  0.00  0.00    +0.000 A 
ATOM     16  C   UNL     1       6.827   4.814  14.647  0.00  0.00    +0.000 A 
ATOM     17 CL   UNL     1       7.583   5.056  13.121  0.00  0.00    +0.000 Cl
ATOM     18  C   UNL     1       5.521   4.337  14.712  0.00  0.00    +0.000 A 
ATOM     19  C   UNL     1       4.912   4.151  15.957  0.00  0.00    +0.000 A 
ENDBRANCH  12  13
ENDBRANCH  11  12
ENDBRANCH   8  11
ENDBRANCH   1   9
BRANCH   4  20
ATOM     20  C   UNL     1       0.492  10.931  20.336  0.00  0.00    +0.000 C 
ATOM     21  O   UNL     1       0.914  11.463  21.351  0.00  0.00    +0.000 OA
BRANCH  20  22
ATOM     22  O   UNL     1      -0.531  11.376  19.574  0.00  0.00    +0.000 OA
BRANCH  22  23
ATOM     23  C   UNL     1      -1.578  12.077  20.266  0.00  0.00    +0.000 C 
BRANCH  23  24
ATOM     24  C   UNL     1      -2.840  12.029  19.430  0.00  0.00    +0.000 A 
ATOM     25  C   UNL     1      -2.825  11.502  18.193  0.00  0.00    +0.000 A 
ATOM     26  C   UNL     1      -4.075  11.463  17.403  0.00  0.00    +0.000 A 
ATOM     27  O   UNL     1      -4.070  10.992  16.269  0.00  0.00    +0.000 OA
ATOM     28  N   UNL     1      -5.168  11.988  18.046  0.00  0.00    +0.000 N 
ATOM     29  C   UNL     1      -6.440  12.050  17.521  0.00  0.00    +0.000 A 
ATOM     30  C   UNL     1      -7.338  12.609  18.338  0.00  0.00    +0.000 A 
ATOM     31  S   UNL     1      -6.612  13.102  19.845  0.00  0.00    +0.000 S 
ATOM     32  C   UNL     1      -5.046  12.508  19.313  0.00  0.00    +0.000 A 
ATOM     33  N   UNL     1      -3.970  12.564  20.017  0.00  0.00    +0.000 NA
ENDBRANCH  23  24
ENDBRANCH  22  23
ENDBRANCH  20  22
ENDBRANCH   4  20
TORSDOF 8
ENDMDL
MODEL 5
REMARK VINA RESULT:      -7.9      4.822     10.399
REMARK  Name = 
REMARK  8 active torsions:
REMARK  status: ('A' for Active; 'I' for Inactive)
REMARK    1  A    between atoms: C_2  and  C_3
REMARK    2  A    between atoms: C_3  and  O_4
REMARK    3  A    between atoms: O_4  and  C_5
REMARK    4  A    between atoms: N_12  and  C_13
REMARK    5  A    between atoms: C_16  and  C_17
REMARK    6  A    between atoms: C_17  and  O_19
REMARK    7  A    between atoms: O_19  and  C_20
REMARK    8  A    between atoms: C_20  and  C_21
REMARK                            x       y       z     vdW  Elec       q    Type
REMARK                         _______ _______ _______ _____ _____    ______ ____
ROOT
ATOM      1  C   UNL     1       2.374   7.594  19.117  0.00  0.00    +0.000 A 
ATOM      2  C   UNL     1       2.275   8.357  17.951  0.00  0.00    +0.000 A 
ATOM      3  C   UNL     1       1.507   9.526  17.920  0.00  0.00    +0.000 A 
ATOM      4  C   UNL     1       0.821   9.956  19.059  0.00  0.00    +0.000 A 
ATOM      5  C   UNL     1       0.919   9.203  20.235  0.00  0.00    +0.000 A 
ATOM      6  C   UNL     1       1.683   8.023  20.258  0.00  0.00    +0.000 A 
ENDROOT
BRANCH   1   9
ATOM      7  O   UNL     1       1.718   4.982  17.947  0.00  0.00    +0.000 OA
ATOM      8  C   UNL     1       2.689   5.160  18.684  0.00  0.00    +0.000 C 
ATOM      9  N   UNL     1       3.104   6.384  19.186  0.00  0.00    +0.000 N 
ATOM     10  H   UNL     1       4.044   6.435  19.557  0.00  0.00    +0.000 HD
BRANCH   8  11
ATOM     11  C   UNL     1       3.524   3.968  19.152  0.00  0.00    +0.000 C 
BRANCH  11  12
ATOM     12  O   UNL     1       4.917   4.241  19.092  0.00  0.00    +0.000 OA
BRANCH  12  13
ATOM     13  C   UNL     1       5.441   4.386  17.831  0.00  0.00    +0.000 A 
ATOM     14  C   UNL     1       5.018   3.697  16.690  0.00  0.00    +0.000 A 
ATOM     15  C   UNL     1       5.635   3.922  15.456  0.00  0.00    +0.000 A 
ATOM     16  C   UNL     1       6.673   4.844  15.357  0.00  0.00    +0.000 A 
ATOM     17 CL   UNL     1       7.440   5.104  13.839  0.00  0.00    +0.000 Cl
ATOM     18  C   UNL     1       7.089   5.554  16.480  0.00  0.00    +0.000 A 
ATOM     19  C   UNL     1       6.466   5.330  17.712  0.00  0.00    +0.000 A 
ENDBRANCH  12  13
ENDBRANCH  11  12
ENDBRANCH   8  11
ENDBRANCH   1   9
BRANCH   4  20
ATOM     20  C   UNL     1      -0.006  11.190  18.942  0.00  0.00    +0.000 C 
ATOM     21  O   UNL     1       0.473  12.303  18.793  0.00  0.00    +0.000 OA
BRANCH  20  22
ATOM     22  O   UNL     1      -1.324  10.894  18.996  0.00  0.00    +0.000 OA
BRANCH  22  23
ATOM     23  C   UNL     1      -2.166  11.580  18.055  0.00  0.00    +0.000 C 
BRANCH  23  24
ATOM     24  C   UNL     1      -3.541  11.759  18.664  0.00  0.00    +0.000 A 
ATOM     25  C   UNL     1      -4.639  11.325  18.019  0.00  0.00    +0.000 A 
ATOM     26  C   UNL     1      -5.969  11.508  18.643  0.00  0.00    +0.000 A 
ATOM     27  O   UNL     1      -6.978  11.124  18.058  0.00  0.00    +0.000 OA
ATOM     28  N   UNL     1      -5.940  12.123  19.868  0.00  0.00    +0.000 N 
ATOM     29  C   UNL     1      -7.046  12.390  20.646  0.00  0.00    +0.000 A 
ATOM     30  C   UNL     1      -6.763  13.000  21.801  0.00  0.00    +0.000 A 
ATOM     31  S   UNL     1      -5.052  13.283  21.973  0.00  0.00    +0.000 S 
ATOM     32  C   UNL     1      -4.746  12.530  20.415  0.00  0.00    +0.000 A 
ATOM     33  N   UNL     1      -3.578  12.393  19.890  0.00  0.00    +0.000 NA
ENDBRANCH  23  24
ENDBRANCH  22  23
ENDBRANCH  20  22
ENDBRANCH   4  20
TORSDOF 8
ENDMDL
MODEL 6
REMARK VINA RESULT:      -7.8      4.333      9.514
REMARK  Name = 
REMARK  8 active torsions:
REMARK  status: ('A' for Active; 'I' for Inactive)
REMARK    1  A    between atoms: C_2  and  C_3
REMARK    2  A    between atoms: C_3  and  O_4
REMARK    3  A    between atoms: O_4  and  C_5
REMARK    4  A    between atoms: N_12  and  C_13
REMARK    5  A    between atoms: C_16  and  C_17
REMARK    6  A    between atoms: C_17  and  O_19
REMARK    7  A    between atoms: O_19  and  C_20
REMARK    8  A    between atoms: C_20  and  C_21
REMARK                            x       y       z     vdW  Elec       q    Type
REMARK                         _______ _______ _______ _____ _____    ______ ____
ROOT
ATOM      1  C   UNL     1       2.338   6.886  18.604  0.00  0.00    +0.000 A 
ATOM      2  C   UNL     1       2.134   6.771  19.981  0.00  0.00    +0.000 A 
ATOM      3  C   UNL     1       1.616   7.838  20.722  0.00  0.00    +0.000 A 
ATOM      4  C   UNL     1       1.290   9.045  20.098  0.00  0.00    +0.000 A 
ATOM      5  C   UNL     1       1.485   9.169  18.717  0.00  0.00    +0.000 A 
ATOM      6  C   UNL     1       2.017   8.098  17.978  0.00  0.00    +0.000 A 
ENDROOT
BRANCH   1   9
ATOM      7  O   UNL     1       1.285   4.192  18.094  0.00  0.00    +0.000 OA
ATOM      8  C   UNL     1       2.390   4.566  17.696  0.00  0.00    +0.000 C 
ATOM      9  N   UNL     1       2.898   5.849  17.819  0.00  0.00    +0.000 N 
ATOM     10  H   UNL     1       3.688   6.091  17.235  0.00  0.00    +0.000 HD
BRANCH   8  11
ATOM     11  C   UNL     1       3.342   3.569  17.035  0.00  0.00    +0.000 C 
BRANCH  11  12
ATOM     12  O   UNL     1       4.483   3.312  17.841  0.00  0.00    +0.000 OA
BRANCH  12  13
ATOM     13  C   UNL     1       5.410   4.323  17.898  0.00  0.00    +0.000 A 
ATOM     14  C   UNL     1       5.970   4.977  16.796  0.00  0.00    +0.000 A 
ATOM     15  C   UNL     1       6.916   5.990  16.978  0.00  0.00    +0.000 A 
ATOM     16  C   UNL     1       7.299   6.359  18.264  0.00  0.00    +0.000 A 
ATOM     17 CL   UNL     1       8.475   7.595  18.481  0.00  0.00    +0.000 Cl
ATOM     18  C   UNL     1       6.733   5.732  19.371  0.00  0.00    +0.000 A 
ATOM     19  C   UNL     1       5.783   4.723  19.185  0.00  0.00    +0.000 A 
ENDBRANCH  12  13
ENDBRANCH  11  12
ENDBRANCH   8  11
ENDBRANCH   1   9
BRANCH   4  20
ATOM     20  C   UNL     1       0.778  10.150  20.956  0.00  0.00    +0.000 C 
ATOM     21  O   UNL     1       0.762  10.095  22.176  0.00  0.00    +0.000 OA
BRANCH  20  22
ATOM     22  O   UNL     1       0.374  11.198  20.204  0.00  0.00    +0.000 OA
BRANCH  22  23
ATOM     23  C   UNL     1      -0.814  11.875  20.647  0.00  0.00    +0.000 C 
BRANCH  23  24
ATOM     24  C   UNL     1      -1.864  11.792  19.560  0.00  0.00    +0.000 A 
ATOM     25  C   UNL     1      -1.546  11.350  18.330  0.00  0.00    +0.000 A 
ATOM     26  C   UNL     1      -2.595  11.273  17.290  0.00  0.00    +0.000 A 
ATOM     27  O   UNL     1      -2.313  10.881  16.161  0.00  0.00    +0.000 OA
ATOM     28  N   UNL     1      -3.839  11.673  17.709  0.00  0.00    +0.000 N 
ATOM     29  C   UNL     1      -4.973  11.678  16.928  0.00  0.00    +0.000 A 
ATOM     30  C   UNL     1      -6.067  12.114  17.561  0.00  0.00    +0.000 A 
ATOM     31  S   UNL     1      -5.717  12.557  19.211  0.00  0.00    +0.000 S 
ATOM     32  C   UNL     1      -4.030  12.115  18.997  0.00  0.00    +0.000 A 
ATOM     33  N   UNL     1      -3.133  12.202  19.917  0.00  0.00    +0.000 NA
ENDBRANCH  23  24
ENDBRANCH  22  23
ENDBRANCH  20  22
ENDBRANCH   4  20
TORSDOF 8
ENDMDL
MODEL 7
REMARK VINA RESULT:      -7.8      4.549     10.122
REMARK  Name = 
REMARK  8 active torsions:
REMARK  status: ('A' for Active; 'I' for Inactive)
REMARK    1  A    between atoms: C_2  and  C_3
REMARK    2  A    between atoms: C_3  and  O_4
REMARK    3  A    between atoms: O_4  and  C_5
REMARK    4  A    between atoms: N_12  and  C_13
REMARK    5  A    between atoms: C_16  and  C_17
REMARK    6  A    between atoms: C_17  and  O_19
REMARK    7  A    between atoms: O_19  and  C_20
REMARK    8  A    between atoms: C_20  and  C_21
REMARK                            x       y       z     vdW  Elec       q    Type
REMARK                         _______ _______ _______ _____ _____    ______ ____
ROOT
ATOM      1  C   UNL     1       2.073   7.212  19.978  0.00  0.00    +0.000 A 
ATOM      2  C   UNL     1       1.347   7.884  20.964  0.00  0.00    +0.000 A 
ATOM      3  C   UNL     1       0.769   9.132  20.705  0.00  0.00    +0.000 A 
ATOM      4  C   UNL     1       0.906   9.733  19.452  0.00  0.00    +0.000 A 
ATOM      5  C   UNL     1       1.627   9.064  18.454  0.00  0.00    +0.000 A 
ATOM      6  C   UNL     1       2.215   7.815  18.722  0.00  0.00    +0.000 A 
ENDROOT
BRANCH   1   9
ATOM      7  O   UNL     1       0.869   4.542  20.202  0.00  0.00    +0.000 OA
ATOM      8  C   UNL     1       2.067   4.754  20.391  0.00  0.00    +0.000 C 
ATOM      9  N   UNL     1       2.710   5.968  20.205  0.00  0.00    +0.000 N 
ATOM     10  H   UNL     1       3.719   5.951  20.143  0.00  0.00    +0.000 HD
BRANCH   8  11
ATOM     11  C   UNL     1       2.969   3.634  20.910  0.00  0.00    +0.000 C 
BRANCH  11  12
ATOM     12  O   UNL     1       3.414   2.783  19.862  0.00  0.00    +0.000 OA
BRANCH  12  13
ATOM     13  C   UNL     1       4.210   3.375  18.913  0.00  0.00    +0.000 A 
ATOM     14  C   UNL     1       5.418   4.033  19.160  0.00  0.00    +0.000 A 
ATOM     15  C   UNL     1       6.140   4.608  18.109  0.00  0.00    +0.000 A 
ATOM     16  C   UNL     1       5.660   4.519  16.806  0.00  0.00    +0.000 A 
ATOM     17 CL   UNL     1       6.545   5.242  15.521  0.00  0.00    +0.000 Cl
ATOM     18  C   UNL     1       4.470   3.846  16.543  0.00  0.00    +0.000 A 
ATOM     19  C   UNL     1       3.753   3.268  17.595  0.00  0.00    +0.000 A 
ENDBRANCH  12  13
ENDBRANCH  11  12
ENDBRANCH   8  11
ENDBRANCH   1   9
BRANCH   4  20
ATOM     20  C   UNL     1       0.296  11.078  19.260  0.00  0.00    +0.000 C 
ATOM     21  O   UNL     1       0.825  12.111  19.641  0.00  0.00    +0.000 OA
BRANCH  20  22
ATOM     22  O   UNL     1      -0.878  10.985  18.598  0.00  0.00    +0.000 OA
BRANCH  22  23
ATOM     23  C   UNL     1      -1.559  12.225  18.341  0.00  0.00    +0.000 C 
BRANCH  23  24
ATOM     24  C   UNL     1      -2.875  12.230  19.091  0.00  0.00    +0.000 A 
ATOM     25  C   UNL     1      -2.946  12.701  20.349  0.00  0.00    +0.000 A 
ATOM     26  C   UNL     1      -4.247  12.699  21.054  0.00  0.00    +0.000 A 
ATOM     27  O   UNL     1      -4.321  13.118  22.205  0.00  0.00    +0.000 OA
ATOM     28  N   UNL     1      -5.291  12.200  20.317  0.00  0.00    +0.000 N 
ATOM     29  C   UNL     1      -6.595  12.109  20.751  0.00  0.00    +0.000 A 
ATOM     30  C   UNL     1      -7.432  11.585  19.851  0.00  0.00    +0.000 A 
ATOM     31  S   UNL     1      -6.603  11.163  18.376  0.00  0.00    +0.000 S 
ATOM     32  C   UNL     1      -5.081  11.738  19.038  0.00  0.00    +0.000 A 
ATOM     33  N   UNL     1      -3.959  11.718  18.406  0.00  0.00    +0.000 NA
ENDBRANCH  23  24
ENDBRANCH  22  23
ENDBRANCH  20  22
ENDBRANCH   4  20
TORSDOF 8
ENDMDL
MODEL 8
REMARK VINA RESULT:      -7.7      4.752     10.244
REMARK  Name = 
REMARK  8 active torsions:
REMARK  status: ('A' for Active; 'I' for Inactive)
REMARK    1  A    between atoms: C_2  and  C_3
REMARK    2  A    between atoms: C_3  and  O_4
REMARK    3  A    between atoms: O_4  and  C_5
REMARK    4  A    between atoms: N_12  and  C_13
REMARK    5  A    between atoms: C_16  and  C_17
REMARK    6  A    between atoms: C_17  and  O_19
REMARK    7  A    between atoms: O_19  and  C_20
REMARK    8  A    between atoms: C_20  and  C_21
REMARK                            x       y       z     vdW  Elec       q    Type
REMARK                         _______ _______ _______ _____ _____    ______ ____
ROOT
ATOM      1  C   UNL     1       2.167   7.458  19.672  0.00  0.00    +0.000 A 
ATOM      2  C   UNL     1       1.429   7.949  20.753  0.00  0.00    +0.000 A 
ATOM      3  C   UNL     1       0.703   9.140  20.645  0.00  0.00    +0.000 A 
ATOM      4  C   UNL     1       0.701   9.866  19.451  0.00  0.00    +0.000 A 
ATOM      5  C   UNL     1       1.432   9.380  18.360  0.00  0.00    +0.000 A 
ATOM      6  C   UNL     1       2.169   8.188  18.476  0.00  0.00    +0.000 A 
ENDROOT
BRANCH   1   9
ATOM      7  O   UNL     1       1.792   4.910  18.261  0.00  0.00    +0.000 OA
ATOM      8  C   UNL     1       2.660   5.079  19.119  0.00  0.00    +0.000 C 
ATOM      9  N   UNL     1       2.949   6.281  19.746  0.00  0.00    +0.000 N 
ATOM     10  H   UNL     1       3.836   6.349  20.229  0.00  0.00    +0.000 HD
BRANCH   8  11
ATOM     11  C   UNL     1       3.500   3.896  19.602  0.00  0.00    +0.000 C 
BRANCH  11  12
ATOM     12  O   UNL     1       4.544   3.581  18.692  0.00  0.00    +0.000 OA
BRANCH  12  13
ATOM     13  C   UNL     1       5.327   4.637  18.297  0.00  0.00    +0.000 A 
ATOM     14  C   UNL     1       5.169   5.370  17.117  0.00  0.00    +0.000 A 
ATOM     15  C   UNL     1       6.037   6.424  16.815  0.00  0.00    +0.000 A 
ATOM     16  C   UNL     1       7.061   6.755  17.698  0.00  0.00    +0.000 A 
ATOM     17 CL   UNL     1       8.134   8.043  17.313  0.00  0.00    +0.000 Cl
ATOM     18  C   UNL     1       7.215   6.049  18.888  0.00  0.00    +0.000 A 
ATOM     19  C   UNL     1       6.342   4.998  19.189  0.00  0.00    +0.000 A 
ENDBRANCH  12  13
ENDBRANCH  11  12
ENDBRANCH   8  11
ENDBRANCH   1   9
BRANCH   4  20
ATOM     20  C   UNL     1      -0.064  11.144  19.422  0.00  0.00    +0.000 C 
ATOM     21  O   UNL     1       0.469  12.242  19.461  0.00  0.00    +0.000 OA
BRANCH  20  22
ATOM     22  O   UNL     1      -1.391  10.910  19.320  0.00  0.00    +0.000 OA
BRANCH  22  23
ATOM     23  C   UNL     1      -2.125  11.792  18.454  0.00  0.00    +0.000 C 
BRANCH  23  24
ATOM     24  C   UNL     1      -3.554  11.891  18.948  0.00  0.00    +0.000 A 
ATOM     25  C   UNL     1      -4.564  11.355  18.239  0.00  0.00    +0.000 A 
ATOM     26  C   UNL     1      -5.948  11.461  18.751  0.00  0.00    +0.000 A 
ATOM     27  O   UNL     1      -6.878  10.984  18.107  0.00  0.00    +0.000 OA
ATOM     28  N   UNL     1      -6.060  12.120  19.949  0.00  0.00    +0.000 N 
ATOM     29  C   UNL     1      -7.240  12.333  20.627  0.00  0.00    +0.000 A 
ATOM     30  C   UNL     1      -7.094  13.003  21.775  0.00  0.00    +0.000 A 
ATOM     31  S   UNL     1      -5.425  13.417  22.065  0.00  0.00    +0.000 S 
ATOM     32  C   UNL     1      -4.944  12.633  20.568  0.00  0.00    +0.000 A 
ATOM     33  N   UNL     1      -3.732  12.563  20.141  0.00  0.00    +0.000 NA
ENDBRANCH  23  24
ENDBRANCH  22  23
ENDBRANCH  20  22
ENDBRANCH   4  20
TORSDOF 8
ENDMDL
MODEL 9
REMARK VINA RESULT:      -7.7      1.553      1.970
REMARK  Name = 
REMARK  8 active torsions:
REMARK  status: ('A' for Active; 'I' for Inactive)
REMARK    1  A    between atoms: C_2  and  C_3
REMARK    2  A    between atoms: C_3  and  O_4
REMARK    3  A    between atoms: O_4  and  C_5
REMARK    4  A    between atoms: N_12  and  C_13
REMARK    5  A    between atoms: C_16  and  C_17
REMARK    6  A    between atoms: C_17  and  O_19
REMARK    7  A    between atoms: O_19  and  C_20
REMARK    8  A    between atoms: C_20  and  C_21
REMARK                            x       y       z     vdW  Elec       q    Type
REMARK                         _______ _______ _______ _____ _____    ______ ____
ROOT
ATOM      1  C   UNL     1       1.803   6.580  20.090  0.00  0.00    +0.000 A 
ATOM      2  C   UNL     1       1.483   5.492  20.907  0.00  0.00    +0.000 A 
ATOM      3  C   UNL     1       1.291   4.218  20.362  0.00  0.00    +0.000 A 
ATOM      4  C   UNL     1       1.417   4.005  18.987  0.00  0.00    +0.000 A 
ATOM      5  C   UNL     1       1.743   5.088  18.161  0.00  0.00    +0.000 A 
ATOM      6  C   UNL     1       1.924   6.369  18.710  0.00  0.00    +0.000 A 
ENDROOT
BRANCH   1   9
ATOM      7  O   UNL     1      -0.107   8.225  21.598  0.00  0.00    +0.000 OA
ATOM      8  C   UNL     1       0.985   8.648  21.216  0.00  0.00    +0.000 C 
ATOM      9  N   UNL     1       1.965   7.895  20.589  0.00  0.00    +0.000 N 
ATOM     10  H   UNL     1       2.899   8.284  20.560  0.00  0.00    +0.000 HD
BRANCH   8  11
ATOM     11  C   UNL     1       1.334  10.126  21.385  0.00  0.00    +0.000 C 
BRANCH  11  12
ATOM     12  O   UNL     1       0.248  10.971  21.033  0.00  0.00    +0.000 OA
BRANCH  12  13
ATOM     13  C   UNL     1      -0.333  10.717  19.815  0.00  0.00    +0.000 A 
ATOM     14  C   UNL     1       0.290  10.090  18.732  0.00  0.00    +0.000 A 
ATOM     15  C   UNL     1      -0.403   9.891  17.534  0.00  0.00    +0.000 A 
ATOM     16  C   UNL     1      -1.724  10.313  17.417  0.00  0.00    +0.000 A 
ATOM     17 CL   UNL     1      -2.565  10.081  15.935  0.00  0.00    +0.000 Cl
ATOM     18  C   UNL     1      -2.364  10.917  18.496  0.00  0.00    +0.000 A 
ATOM     19  C   UNL     1      -1.670  11.109  19.695  0.00  0.00    +0.000 A 
ENDBRANCH  12  13
ENDBRANCH  11  12
ENDBRANCH   8  11
ENDBRANCH   1   9
BRANCH   4  20
ATOM     20  C   UNL     1       1.162   2.630  18.474  0.00  0.00    +0.000 C 
ATOM     21  O   UNL     1       0.164   1.986  18.758  0.00  0.00    +0.000 OA
BRANCH  20  22
ATOM     22  O   UNL     1       2.158   2.230  17.653  0.00  0.00    +0.000 OA
BRANCH  22  23
ATOM     23  C   UNL     1       3.394   1.865  18.288  0.00  0.00    +0.000 C 
BRANCH  23  24
ATOM     24  C   UNL     1       4.401   2.978  18.083  0.00  0.00    +0.000 A 
ATOM     25  C   UNL     1       4.985   3.578  19.136  0.00  0.00    +0.000 A 
ATOM     26  C   UNL     1       5.970   4.657  18.903  0.00  0.00    +0.000 A 
ATOM     27  O   UNL     1       6.502   5.217  19.858  0.00  0.00    +0.000 OA
ATOM     28  N   UNL     1       6.198   4.942  17.581  0.00  0.00    +0.000 N 
ATOM     29  C   UNL     1       7.078   5.895  17.117  0.00  0.00    +0.000 A 
ATOM     30  C   UNL     1       7.123   5.989  15.784  0.00  0.00    +0.000 A 
ATOM     31  S   UNL     1       6.030   4.862  15.026  0.00  0.00    +0.000 S 
ATOM     32  C   UNL     1       5.523   4.259  16.596  0.00  0.00    +0.000 A 
ATOM     33  N   UNL     1       4.655   3.324  16.770  0.00  0.00    +0.000 NA
ENDBRANCH  23  24
ENDBRANCH  22  23
ENDBRANCH  20  22
ENDBRANCH   4  20
TORSDOF 8
ENDMDL
