MODEL 1
REMARK VINA RESULT:      -5.4      0.000      0.000
REMARK  Name = 
REMARK  6 active torsions:
REMARK  status: ('A' for Active; 'I' for Inactive)
REMARK    1  A    between atoms: C_4  and  C_5
REMARK    2  A    between atoms: C_5  and  O_6
REMARK    3  A    between atoms: C_5  and  C_7
REMARK    4  A    between atoms: C_7  and  O_8
REMARK    5  A    between atoms: C_9  and  O_10
REMARK    6  A    between atoms: C_11  and  O_12
REMARK                            x       y       z     vdW  Elec       q    Type
REMARK                         _______ _______ _______ _____ _____    ______ ____
ROOT
ATOM      1  O   UNL     1       7.755   5.273  15.086  0.00  0.00    +0.000 OA
ATOM      2  C   UNL     1       6.771   5.461  15.785  0.00  0.00    +0.000 C 
ATOM      3  O   UNL     1       6.687   6.445  16.729  0.00  0.00    +0.000 OA
ATOM      4  C   UNL     1       5.674   6.073  17.675  0.00  0.00    +0.000 C 
ATOM      5  C   UNL     1       4.667   5.267  16.864  0.00  0.00    +0.000 C 
ATOM      6  C   UNL     1       5.495   4.631  15.756  0.00  0.00    +0.000 C 
ENDROOT
BRANCH   5   7
ATOM      7  O   UNL     1       3.935   4.327  17.639  0.00  0.00    +0.000 OA
ATOM      8  H   UNL     1       3.770   4.772  18.502  0.00  0.00    +0.000 HD
ENDBRANCH   5   7
BRANCH   6   9
ATOM      9  O   UNL     1       5.620   3.234  15.960  0.00  0.00    +0.000 OA
ATOM     10  H   UNL     1       5.582   2.806  15.085  0.00  0.00    +0.000 HD
ENDBRANCH   6   9
BRANCH   4  11
ATOM     11  C   UNL     1       6.323   5.326  18.852  0.00  0.00    +0.000 C 
BRANCH  11  12
ATOM     12  O   UNL     1       6.445   3.929  18.538  0.00  0.00    +0.000 OA
ATOM     13  H   UNL     1       5.541   3.562  18.475  0.00  0.00    +0.000 HD
ENDBRANCH  11  12
BRANCH  11  14
ATOM     14  C   UNL     1       7.709   5.907  19.190  0.00  0.00    +0.000 C 
BRANCH  14  15
ATOM     15  O   UNL     1       8.110   5.500  20.496  0.00  0.00    +0.000 OA
ATOM     16  H   UNL     1       9.072   5.638  20.575  0.00  0.00    +0.000 HD
ENDBRANCH  14  15
ENDBRANCH  11  14
ENDBRANCH   4  11
TORSDOF 6
ENDMDL
MODEL 2
REMARK VINA RESULT:      -5.3      3.680      5.404
REMARK  Name = 
REMARK  6 active torsions:
REMARK  status: ('A' for Active; 'I' for Inactive)
REMARK    1  A    between atoms: C_4  and  C_5
REMARK    2  A    between atoms: C_5  and  O_6
REMARK    3  A    between atoms: C_5  and  C_7
REMARK    4  A    between atoms: C_7  and  O_8
REMARK    5  A    between atoms: C_9  and  O_10
REMARK    6  A    between atoms: C_11  and  O_12
REMARK                            x       y       z     vdW  Elec       q    Type
REMARK                         _______ _______ _______ _____ _____    ______ ____
ROOT
ATOM      1  O   UNL     1       2.492   3.003  22.287  0.00  0.00    +0.000 OA
ATOM      2  C   UNL     1       2.486   2.806  21.081  0.00  0.00    +0.000 C 
ATOM      3  O   UNL     1       3.615   2.615  20.336  0.00  0.00    +0.000 OA
ATOM      4  C   UNL     1       3.309   2.928  18.969  0.00  0.00    +0.000 C 
ATOM      5  C   UNL     1       1.838   2.565  18.811  0.00  0.00    +0.000 C 
ATOM      6  C   UNL     1       1.245   2.771  20.198  0.00  0.00    +0.000 C 
ENDROOT
BRANCH   5   7
ATOM      7  O   UNL     1       1.176   3.306  17.794  0.00  0.00    +0.000 OA
ATOM      8  H   UNL     1       1.745   4.093  17.633  0.00  0.00    +0.000 HD
ENDBRANCH   5   7
BRANCH   6   9
ATOM      9  O   UNL     1       0.396   3.905  20.220  0.00  0.00    +0.000 OA
ATOM     10  H   UNL     1      -0.518   3.589  20.102  0.00  0.00    +0.000 HD
ENDBRANCH   6   9
BRANCH   4  11
ATOM     11  C   UNL     1       3.660   4.400  18.691  0.00  0.00    +0.000 C 
BRANCH  11  12
ATOM     12  O   UNL     1       2.686   5.260  19.305  0.00  0.00    +0.000 OA
ATOM     13  H   UNL     1       2.496   5.984  18.677  0.00  0.00    +0.000 HD
ENDBRANCH  11  12
BRANCH  11  14
ATOM     14  C   UNL     1       5.067   4.749  19.212  0.00  0.00    +0.000 C 
BRANCH  14  15
ATOM     15  O   UNL     1       5.972   3.682  18.942  0.00  0.00    +0.000 OA
ATOM     16  H   UNL     1       5.791   2.963  19.575  0.00  0.00    +0.000 HD
ENDBRANCH  14  15
ENDBRANCH  11  14
ENDBRANCH   4  11
TORSDOF 6
ENDMDL
MODEL 3
REMARK VINA RESULT:      -5.2      1.483      3.435
REMARK  Name = 
REMARK  6 active torsions:
REMARK  status: ('A' for Active; 'I' for Inactive)
REMARK    1  A    between atoms: C_4  and  C_5
REMARK    2  A    between atoms: C_5  and  O_6
REMARK    3  A    between atoms: C_5  and  C_7
REMARK    4  A    between atoms: C_7  and  O_8
REMARK    5  A    between atoms: C_9  and  O_10
REMARK    6  A    between atoms: C_11  and  O_12
REMARK                            x       y       z     vdW  Elec       q    Type
REMARK                         _______ _______ _______ _____ _____    ______ ____
ROOT
ATOM      1  O   UNL     1       3.404   3.498  17.117  0.00  0.00    +0.000 OA
ATOM      2  C   UNL     1       4.137   4.310  17.660  0.00  0.00    +0.000 C 
ATOM      3  O   UNL     1       4.588   5.450  17.058  0.00  0.00    +0.000 OA
ATOM      4  C   UNL     1       5.777   5.878  17.737  0.00  0.00    +0.000 C 
ATOM      5  C   UNL     1       5.580   5.425  19.178  0.00  0.00    +0.000 C 
ATOM      6  C   UNL     1       4.699   4.188  19.071  0.00  0.00    +0.000 C 
ENDROOT
BRANCH   5   7
ATOM      7  O   UNL     1       6.800   5.196  19.873  0.00  0.00    +0.000 OA
ATOM      8  H   UNL     1       7.119   4.320  19.557  0.00  0.00    +0.000 HD
ENDBRANCH   5   7
BRANCH   6   9
ATOM      9  O   UNL     1       5.433   3.017  19.382  0.00  0.00    +0.000 OA
ATOM     10  H   UNL     1       4.812   2.378  19.776  0.00  0.00    +0.000 HD
ENDBRANCH   6   9
BRANCH   4  11
ATOM     11  C   UNL     1       7.010   5.296  17.024  0.00  0.00    +0.000 C 
BRANCH  11  12
ATOM     12  O   UNL     1       7.460   4.115  17.709  0.00  0.00    +0.000 OA
ATOM     13  H   UNL     1       8.000   4.405  18.471  0.00  0.00    +0.000 HD
ENDBRANCH  11  12
BRANCH  11  14
ATOM     14  C   UNL     1       6.701   4.959  15.553  0.00  0.00    +0.000 C 
BRANCH  14  15
ATOM     15  O   UNL     1       7.772   5.382  14.714  0.00  0.00    +0.000 OA
ATOM     16  H   UNL     1       8.606   5.275  15.210  0.00  0.00    +0.000 HD
ENDBRANCH  14  15
ENDBRANCH  11  14
ENDBRANCH   4  11
TORSDOF 6
ENDMDL
MODEL 4
REMARK VINA RESULT:      -5.2      2.279      3.536
REMARK  Name = 
REMARK  6 active torsions:
REMARK  status: ('A' for Active; 'I' for Inactive)
REMARK    1  A    between atoms: C_4  and  C_5
REMARK    2  A    between atoms: C_5  and  O_6
REMARK    3  A    between atoms: C_5  and  C_7
REMARK    4  A    between atoms: C_7  and  O_8
REMARK    5  A    between atoms: C_9  and  O_10
REMARK    6  A    between atoms: C_11  and  O_12
REMARK                            x       y       z     vdW  Elec       q    Type
REMARK                         _______ _______ _______ _____ _____    ______ ____
ROOT
ATOM      1  O   UNL     1       7.826   4.395  18.301  0.00  0.00    +0.000 OA
ATOM      2  C   UNL     1       6.610   4.487  18.230  0.00  0.00    +0.000 C 
ATOM      3  O   UNL     1       5.786   4.526  19.320  0.00  0.00    +0.000 OA
ATOM      4  C   UNL     1       4.474   4.121  18.905  0.00  0.00    +0.000 C 
ATOM      5  C   UNL     1       4.369   4.579  17.456  0.00  0.00    +0.000 C 
ATOM      6  C   UNL     1       5.801   4.540  16.941  0.00  0.00    +0.000 C 
ENDROOT
BRANCH   5   7
ATOM      7  O   UNL     1       3.463   3.806  16.679  0.00  0.00    +0.000 OA
ATOM      8  H   UNL     1       3.965   3.000  16.420  0.00  0.00    +0.000 HD
ENDBRANCH   5   7
BRANCH   6   9
ATOM      9  O   UNL     1       5.975   3.480  16.017  0.00  0.00    +0.000 OA
ATOM     10  H   UNL     1       6.927   3.270  15.988  0.00  0.00    +0.000 HD
ENDBRANCH   6   9
BRANCH   4  11
ATOM     11  C   UNL     1       4.311   2.608  19.133  0.00  0.00    +0.000 C 
BRANCH  11  12
ATOM     12  O   UNL     1       5.191   2.173  20.182  0.00  0.00    +0.000 OA
ATOM     13  H   UNL     1       5.672   2.960  20.508  0.00  0.00    +0.000 HD
ENDBRANCH  11  12
BRANCH  11  14
ATOM     14  C   UNL     1       2.857   2.247  19.489  0.00  0.00    +0.000 C 
BRANCH  14  15
ATOM     15  O   UNL     1       2.195   1.689  18.356  0.00  0.00    +0.000 OA
ATOM     16  H   UNL     1       2.258   0.718  18.416  0.00  0.00    +0.000 HD
ENDBRANCH  14  15
ENDBRANCH  11  14
ENDBRANCH   4  11
TORSDOF 6
ENDMDL
MODEL 5
REMARK VINA RESULT:      -5.2      2.856      4.446
REMARK  Name = 
REMARK  6 active torsions:
REMARK  status: ('A' for Active; 'I' for Inactive)
REMARK    1  A    between atoms: C_4  and  C_5
REMARK    2  A    between atoms: C_5  and  O_6
REMARK    3  A    between atoms: C_5  and  C_7
REMARK    4  A    between atoms: C_7  and  O_8
REMARK    5  A    between atoms: C_9  and  O_10
REMARK    6  A    between atoms: C_11  and  O_12
REMARK                            x       y       z     vdW  Elec       q    Type
REMARK                         _______ _______ _______ _____ _____    ______ ____
ROOT
ATOM      1  O   UNL     1       0.864   2.955  18.097  0.00  0.00    +0.000 OA
ATOM      2  C   UNL     1       1.856   3.109  18.792  0.00  0.00    +0.000 C 
ATOM      3  O   UNL     1       2.321   4.329  19.195  0.00  0.00    +0.000 OA
ATOM      4  C   UNL     1       3.711   4.194  19.525  0.00  0.00    +0.000 C 
ATOM      5  C   UNL     1       3.847   2.765  20.036  0.00  0.00    +0.000 C 
ATOM      6  C   UNL     1       2.759   1.993  19.302  0.00  0.00    +0.000 C 
ENDROOT
BRANCH   5   7
ATOM      7  O   UNL     1       5.149   2.220  19.860  0.00  0.00    +0.000 OA
ATOM      8  H   UNL     1       5.513   2.668  19.062  0.00  0.00    +0.000 HD
ENDBRANCH   5   7
BRANCH   6   9
ATOM      9  O   UNL     1       3.323   1.119  18.340  0.00  0.00    +0.000 OA
ATOM     10  H   UNL     1       3.017   1.413  17.463  0.00  0.00    +0.000 HD
ENDBRANCH   6   9
BRANCH   4  11
ATOM     11  C   UNL     1       4.565   4.538  18.292  0.00  0.00    +0.000 C 
BRANCH  11  12
ATOM     12  O   UNL     1       3.878   5.499  17.473  0.00  0.00    +0.000 OA
ATOM     13  H   UNL     1       4.310   5.500  16.596  0.00  0.00    +0.000 HD
ENDBRANCH  11  12
BRANCH  11  14
ATOM     14  C   UNL     1       5.942   5.093  18.701  0.00  0.00    +0.000 C 
BRANCH  14  15
ATOM     15  O   UNL     1       6.968   4.162  18.364  0.00  0.00    +0.000 OA
ATOM     16  H   UNL     1       7.464   3.950  19.177  0.00  0.00    +0.000 HD
ENDBRANCH  14  15
ENDBRANCH  11  14
ENDBRANCH   4  11
TORSDOF 6
ENDMDL
MODEL 6
REMARK VINA RESULT:      -5.2      2.404      3.868
REMARK  Name = 
REMARK  6 active torsions:
REMARK  status: ('A' for Active; 'I' for Inactive)
REMARK    1  A    between atoms: C_4  and  C_5
REMARK    2  A    between atoms: C_5  and  O_6
REMARK    3  A    between atoms: C_5  and  C_7
REMARK    4  A    between atoms: C_7  and  O_8
REMARK    5  A    between atoms: C_9  and  O_10
REMARK    6  A    between atoms: C_11  and  O_12
REMARK                            x       y       z     vdW  Elec       q    Type
REMARK                         _______ _______ _______ _____ _____    ______ ____
ROOT
ATOM      1  O   UNL     1       1.492   3.834  17.341  0.00  0.00    +0.000 OA
ATOM      2  C   UNL     1       2.453   3.839  18.094  0.00  0.00    +0.000 C 
ATOM      3  O   UNL     1       3.271   4.919  18.276  0.00  0.00    +0.000 OA
ATOM      4  C   UNL     1       4.529   4.449  18.781  0.00  0.00    +0.000 C 
ATOM      5  C   UNL     1       4.177   3.212  19.599  0.00  0.00    +0.000 C 
ATOM      6  C   UNL     1       2.928   2.657  18.929  0.00  0.00    +0.000 C 
ENDROOT
BRANCH   5   7
ATOM      7  O   UNL     1       5.239   2.271  19.690  0.00  0.00    +0.000 OA
ATOM      8  H   UNL     1       4.845   1.407  19.433  0.00  0.00    +0.000 HD
ENDBRANCH   5   7
BRANCH   6   9
ATOM      9  O   UNL     1       3.216   1.450  18.246  0.00  0.00    +0.000 OA
ATOM     10  H   UNL     1       2.704   1.453  17.417  0.00  0.00    +0.000 HD
ENDBRANCH   6   9
BRANCH   4  11
ATOM     11  C   UNL     1       5.495   4.213  17.608  0.00  0.00    +0.000 C 
BRANCH  11  12
ATOM     12  O   UNL     1       4.994   4.854  16.424  0.00  0.00    +0.000 OA
ATOM     13  H   UNL     1       4.122   4.459  16.222  0.00  0.00    +0.000 HD
ENDBRANCH  11  12
BRANCH  11  14
ATOM     14  C   UNL     1       6.906   4.740  17.928  0.00  0.00    +0.000 C 
BRANCH  14  15
ATOM     15  O   UNL     1       7.867   4.129  17.070  0.00  0.00    +0.000 OA
ATOM     16  H   UNL     1       8.397   3.507  17.602  0.00  0.00    +0.000 HD
ENDBRANCH  14  15
ENDBRANCH  11  14
ENDBRANCH   4  11
TORSDOF 6
ENDMDL
MODEL 7
REMARK VINA RESULT:      -5.1      2.025      3.762
REMARK  Name = 
REMARK  6 active torsions:
REMARK  status: ('A' for Active; 'I' for Inactive)
REMARK    1  A    between atoms: C_4  and  C_5
REMARK    2  A    between atoms: C_5  and  O_6
REMARK    3  A    between atoms: C_5  and  C_7
REMARK    4  A    between atoms: C_7  and  O_8
REMARK    5  A    between atoms: C_9  and  O_10
REMARK    6  A    between atoms: C_11  and  O_12
REMARK                            x       y       z     vdW  Elec       q    Type
REMARK                         _______ _______ _______ _____ _____    ______ ____
ROOT
ATOM      1  O   UNL     1       7.456   5.515  20.230  0.00  0.00    +0.000 OA
ATOM      2  C   UNL     1       6.773   5.318  19.236  0.00  0.00    +0.000 C 
ATOM      3  O   UNL     1       5.409   5.256  19.251  0.00  0.00    +0.000 OA
ATOM      4  C   UNL     1       4.980   4.527  18.092  0.00  0.00    +0.000 C 
ATOM      5  C   UNL     1       6.034   4.830  17.035  0.00  0.00    +0.000 C 
ATOM      6  C   UNL     1       7.309   5.079  17.830  0.00  0.00    +0.000 C 
ENDROOT
BRANCH   5   7
ATOM      7  O   UNL     1       6.166   3.808  16.054  0.00  0.00    +0.000 OA
ATOM      8  H   UNL     1       7.096   3.494  16.129  0.00  0.00    +0.000 HD
ENDBRANCH   5   7
BRANCH   6   9
ATOM      9  O   UNL     1       8.228   4.016  17.654  0.00  0.00    +0.000 OA
ATOM     10  H   UNL     1       8.815   4.256  16.914  0.00  0.00    +0.000 HD
ENDBRANCH   6   9
BRANCH   4  11
ATOM     11  C   UNL     1       4.816   3.041  18.454  0.00  0.00    +0.000 C 
BRANCH  11  12
ATOM     12  O   UNL     1       4.811   2.883  19.883  0.00  0.00    +0.000 OA
ATOM     13  H   UNL     1       4.815   1.923  20.072  0.00  0.00    +0.000 HD
ENDBRANCH  11  12
BRANCH  11  14
ATOM     14  C   UNL     1       3.519   2.458  17.861  0.00  0.00    +0.000 C 
BRANCH  14  15
ATOM     15  O   UNL     1       3.209   1.213  18.482  0.00  0.00    +0.000 OA
ATOM     16  H   UNL     1       2.617   0.716  17.887  0.00  0.00    +0.000 HD
ENDBRANCH  14  15
ENDBRANCH  11  14
ENDBRANCH   4  11
TORSDOF 6
ENDMDL
MODEL 8
REMARK VINA RESULT:      -5.1      1.567      1.868
REMARK  Name = 
REMARK  6 active torsions:
REMARK  status: ('A' for Active; 'I' for Inactive)
REMARK    1  A    between atoms: C_4  and  C_5
REMARK    2  A    between atoms: C_5  and  O_6
REMARK    3  A    between atoms: C_5  and  C_7
REMARK    4  A    between atoms: C_7  and  O_8
REMARK    5  A    between atoms: C_9  and  O_10
REMARK    6  A    between atoms: C_11  and  O_12
REMARK                            x       y       z     vdW  Elec       q    Type
REMARK                         _______ _______ _______ _____ _____    ______ ____
ROOT
ATOM      1  O   UNL     1       5.263   6.089  15.171  0.00  0.00    +0.000 OA
ATOM      2  C   UNL     1       5.122   5.678  16.312  0.00  0.00    +0.000 C 
ATOM      3  O   UNL     1       5.249   6.462  17.424  0.00  0.00    +0.000 OA
ATOM      4  C   UNL     1       5.534   5.612  18.543  0.00  0.00    +0.000 C 
ATOM      5  C   UNL     1       4.826   4.302  18.222  0.00  0.00    +0.000 C 
ATOM      6  C   UNL     1       4.818   4.237  16.701  0.00  0.00    +0.000 C 
ENDROOT
BRANCH   5   7
ATOM      7  O   UNL     1       5.422   3.168  18.838  0.00  0.00    +0.000 OA
ATOM      8  H   UNL     1       5.509   2.498  18.121  0.00  0.00    +0.000 HD
ENDBRANCH   5   7
BRANCH   6   9
ATOM      9  O   UNL     1       5.706   3.235  16.236  0.00  0.00    +0.000 OA
ATOM     10  H   UNL     1       5.597   2.457  16.813  0.00  0.00    +0.000 HD
ENDBRANCH   6   9
BRANCH   4  11
ATOM     11  C   UNL     1       7.058   5.510  18.732  0.00  0.00    +0.000 C 
BRANCH  11  12
ATOM     12  O   UNL     1       7.571   4.396  17.983  0.00  0.00    +0.000 OA
ATOM     13  H   UNL     1       8.462   4.194  18.330  0.00  0.00    +0.000 HD
ENDBRANCH  11  12
BRANCH  11  14
ATOM     14  C   UNL     1       7.766   6.805  18.291  0.00  0.00    +0.000 C 
BRANCH  14  15
ATOM     15  O   UNL     1       7.864   6.853  16.869  0.00  0.00    +0.000 OA
ATOM     16  H   UNL     1       7.038   7.237  16.521  0.00  0.00    +0.000 HD
ENDBRANCH  14  15
ENDBRANCH  11  14
ENDBRANCH   4  11
TORSDOF 6
ENDMDL
MODEL 9
REMARK VINA RESULT:      -5.1      1.533      2.482
REMARK  Name = 
REMARK  6 active torsions:
REMARK  status: ('A' for Active; 'I' for Inactive)
REMARK    1  A    between atoms: C_4  and  C_5
REMARK    2  A    between atoms: C_5  and  O_6
REMARK    3  A    between atoms: C_5  and  C_7
REMARK    4  A    between atoms: C_7  and  O_8
REMARK    5  A    between atoms: C_9  and  O_10
REMARK    6  A    between atoms: C_11  and  O_12
REMARK                            x       y       z     vdW  Elec       q    Type
REMARK                         _______ _______ _______ _____ _____    ______ ____
ROOT
ATOM      1  O   UNL     1       7.431   7.400  17.080  0.00  0.00    +0.000 OA
ATOM      2  C   UNL     1       6.600   6.519  16.925  0.00  0.00    +0.000 C 
ATOM      3  O   UNL     1       5.458   6.412  17.668  0.00  0.00    +0.000 OA
ATOM      4  C   UNL     1       5.001   5.054  17.597  0.00  0.00    +0.000 C 
ATOM      5  C   UNL     1       5.442   4.571  16.222  0.00  0.00    +0.000 C 
ATOM      6  C   UNL     1       6.696   5.380  15.919  0.00  0.00    +0.000 C 
ENDROOT
BRANCH   5   7
ATOM      7  O   UNL     1       5.641   3.165  16.150  0.00  0.00    +0.000 OA
ATOM      8  H   UNL     1       5.334   2.903  15.252  0.00  0.00    +0.000 HD
ENDBRANCH   5   7
BRANCH   6   9
ATOM      9  O   UNL     1       7.850   4.559  15.971  0.00  0.00    +0.000 OA
ATOM     10  H   UNL     1       7.683   3.862  16.631  0.00  0.00    +0.000 HD
ENDBRANCH   6   9
BRANCH   4  11
ATOM     11  C   UNL     1       5.567   4.262  18.789  0.00  0.00    +0.000 C 
BRANCH  11  12
ATOM     12  O   UNL     1       6.090   5.168  19.775  0.00  0.00    +0.000 OA
ATOM     13  H   UNL     1       5.714   6.051  19.591  0.00  0.00    +0.000 HD
ENDBRANCH  11  12
BRANCH  11  14
ATOM     14  C   UNL     1       4.493   3.362  19.426  0.00  0.00    +0.000 C 
BRANCH  14  15
ATOM     15  O   UNL     1       5.089   2.179  19.954  0.00  0.00    +0.000 OA
ATOM     16  H   UNL     1       6.054   2.245  19.829  0.00  0.00    +0.000 HD
ENDBRANCH  14  15
ENDBRANCH  11  14
ENDBRANCH   4  11
TORSDOF 6
ENDMDL
