MODEL 1
REMARK VINA RESULT:      -5.3      0.000      0.000
REMARK  Name = 
REMARK  25 active torsions:
REMARK  status: ('A' for Active; 'I' for Inactive)
REMARK    1  A    between atoms: C_1  and  C_2
REMARK    2  A    between atoms: C_2  and  C_3
REMARK    3  A    between atoms: C_3  and  C_4
REMARK    4  A    between atoms: C_4  and  C_5
REMARK    5  A    between atoms: C_5  and  C_6
REMARK    6  A    between atoms: C_6  and  C_7
REMARK    7  A    between atoms: C_7  and  C_8
REMARK    8  A    between atoms: C_8  and  C_9
REMARK    9  A    between atoms: C_9  and  C_10
REMARK   10  A    between atoms: C_10  and  C_11
REMARK   11  A    between atoms: C_11  and  C_12
REMARK   12  A    between atoms: C_12  and  C_13
REMARK   13  A    between atoms: C_13  and  C_14
REMARK   14  A    between atoms: C_14  and  C_15
REMARK   15  A    between atoms: C_15  and  C_16
REMARK   16  A    between atoms: C_16  and  O_17
REMARK   17  A    between atoms: O_17  and  C_18
REMARK   18  A    between atoms: C_18  and  C_20
REMARK   19  A    between atoms: C_20  and  C_21
REMARK   20  A    between atoms: C_21  and  O_22
REMARK   21  A    between atoms: C_21  and  C_23
REMARK   22  A    between atoms: C_23  and  N_24
REMARK   23  A    between atoms: N_24  and  C_25
REMARK   24  A    between atoms: N_24  and  C_26
REMARK   25  A    between atoms: N_24  and  C_27
REMARK                            x       y       z     vdW  Elec       q    Type
REMARK                         _______ _______ _______ _____ _____    ______ ____
ROOT
ATOM      1  C   UNL     1       2.749   7.924  18.134  0.00  0.00    +0.000 C 
ENDROOT
BRANCH   1   2
ATOM      2  C   UNL     1       2.337   6.477  18.422  0.00  0.00    +0.000 C 
BRANCH   2   3
ATOM      3  C   UNL     1       2.269   6.198  19.919  0.00  0.00    +0.000 C 
BRANCH   3   4
ATOM      4  C   UNL     1       1.666   4.836  20.221  0.00  0.00    +0.000 C 
BRANCH   4   5
ATOM      5  C   UNL     1       1.477   4.083  18.911  0.00  0.00    +0.000 C 
BRANCH   5   6
ATOM      6  C   UNL     1       1.874   2.629  19.058  0.00  0.00    +0.000 C 
BRANCH   6   7
ATOM      7  C   UNL     1       2.765   2.206  17.897  0.00  0.00    +0.000 C 
BRANCH   7   8
ATOM      8  C   UNL     1       3.070   3.410  17.023  0.00  0.00    +0.000 C 
BRANCH   8   9
ATOM      9  C   UNL     1       4.562   3.722  17.010  0.00  0.00    +0.000 C 
BRANCH   9  10
ATOM     10  C   UNL     1       4.880   4.934  16.133  0.00  0.00    +0.000 C 
BRANCH  10  11
ATOM     11  C   UNL     1       6.370   5.146  15.852  0.00  0.00    +0.000 C 
BRANCH  11  12
ATOM     12  C   UNL     1       6.900   4.454  14.590  0.00  0.00    +0.000 C 
BRANCH  12  14
ATOM     13  C   UNL     1       6.357   3.500  12.294  0.00  0.00    +0.000 C 
ATOM     14  C   UNL     1       5.822   3.882  13.666  0.00  0.00    +0.000 C 
ENDBRANCH  12  14
ENDBRANCH  11  12
ENDBRANCH  10  11
ENDBRANCH   9  10
ENDBRANCH   8   9
ENDBRANCH   7   8
ENDBRANCH   6   7
ENDBRANCH   5   6
ENDBRANCH   4   5
ENDBRANCH   3   4
ENDBRANCH   2   3
ENDBRANCH   1   2
BRANCH   1  15
ATOM     15  C   UNL     1       1.550   8.818  17.817  0.00  0.00    +0.000 C 
BRANCH  15  16
ATOM     16  C   UNL     1       1.362   9.924  18.846  0.00  0.00    +0.000 C 
BRANCH  16  17
ATOM     17  O   UNL     1       1.057   9.326  20.121  0.00  0.00    +0.000 OA
BRANCH  17  18
ATOM     18  C   UNL     1       0.639  10.183  21.096  0.00  0.00    +0.000 C 
ATOM     19  O   UNL     1       1.068  10.246  22.236  0.00  0.00    +0.000 OA
BRANCH  18  20
ATOM     20  C   UNL     1      -0.412  11.117  20.548  0.00  0.00    +0.000 C 
BRANCH  20  21
ATOM     21  C   UNL     1      -0.537  12.332  21.468  0.00  0.00    +0.000 C 
BRANCH  21  22
ATOM     22  O   UNL     1       0.745  12.942  21.644  0.00  0.00    +0.000 OA
ATOM     23  H   UNL     1       1.256  12.468  22.324  0.00  0.00    +0.000 HD
ENDBRANCH  21  22
BRANCH  21  24
ATOM     24  C   UNL     1      -1.525  13.376  20.884  0.00  0.00    +0.000 C 
BRANCH  24  25
ATOM     25  N   UNL     1      -2.954  13.340  21.491  0.00  0.00    +0.000 N 
ATOM     26  C   UNL     1      -3.009  12.444  22.723  0.00  0.00    +0.000 C 
ATOM     27  C   UNL     1      -3.453  14.734  21.876  0.00  0.00    +0.000 C 
ATOM     28  C   UNL     1      -3.905  12.777  20.435  0.00  0.00    +0.000 C 
ENDBRANCH  24  25
ENDBRANCH  21  24
ENDBRANCH  20  21
ENDBRANCH  18  20
ENDBRANCH  17  18
ENDBRANCH  16  17
ENDBRANCH  15  16
ENDBRANCH   1  15
TORSDOF 21
ENDMDL
MODEL 2
REMARK VINA RESULT:      -5.3      6.053      7.970
REMARK  Name = 
REMARK  25 active torsions:
REMARK  status: ('A' for Active; 'I' for Inactive)
REMARK    1  A    between atoms: C_1  and  C_2
REMARK    2  A    between atoms: C_2  and  C_3
REMARK    3  A    between atoms: C_3  and  C_4
REMARK    4  A    between atoms: C_4  and  C_5
REMARK    5  A    between atoms: C_5  and  C_6
REMARK    6  A    between atoms: C_6  and  C_7
REMARK    7  A    between atoms: C_7  and  C_8
REMARK    8  A    between atoms: C_8  and  C_9
REMARK    9  A    between atoms: C_9  and  C_10
REMARK   10  A    between atoms: C_10  and  C_11
REMARK   11  A    between atoms: C_11  and  C_12
REMARK   12  A    between atoms: C_12  and  C_13
REMARK   13  A    between atoms: C_13  and  C_14
REMARK   14  A    between atoms: C_14  and  C_15
REMARK   15  A    between atoms: C_15  and  C_16
REMARK   16  A    between atoms: C_16  and  O_17
REMARK   17  A    between atoms: O_17  and  C_18
REMARK   18  A    between atoms: C_18  and  C_20
REMARK   19  A    between atoms: C_20  and  C_21
REMARK   20  A    between atoms: C_21  and  O_22
REMARK   21  A    between atoms: C_21  and  C_23
REMARK   22  A    between atoms: C_23  and  N_24
REMARK   23  A    between atoms: N_24  and  C_25
REMARK   24  A    between atoms: N_24  and  C_26
REMARK   25  A    between atoms: N_24  and  C_27
REMARK                            x       y       z     vdW  Elec       q    Type
REMARK                         _______ _______ _______ _____ _____    ______ ____
ROOT
ATOM      1  C   UNL     1       6.110   7.370  17.077  0.00  0.00    +0.000 C 
ENDROOT
BRANCH   1   2
ATOM      2  C   UNL     1       4.903   6.749  17.784  0.00  0.00    +0.000 C 
BRANCH   2   3
ATOM      3  C   UNL     1       3.610   7.479  17.439  0.00  0.00    +0.000 C 
BRANCH   3   4
ATOM      4  C   UNL     1       2.609   7.444  18.582  0.00  0.00    +0.000 C 
BRANCH   4   5
ATOM      5  C   UNL     1       2.277   5.991  18.896  0.00  0.00    +0.000 C 
BRANCH   5   6
ATOM      6  C   UNL     1       2.006   5.804  20.374  0.00  0.00    +0.000 C 
BRANCH   6   7
ATOM      7  C   UNL     1       2.056   4.326  20.736  0.00  0.00    +0.000 C 
BRANCH   7   8
ATOM      8  C   UNL     1       0.786   3.642  20.260  0.00  0.00    +0.000 C 
BRANCH   8   9
ATOM      9  C   UNL     1       1.050   2.770  19.038  0.00  0.00    +0.000 C 
BRANCH   9  10
ATOM     10  C   UNL     1       2.270   1.870  19.237  0.00  0.00    +0.000 C 
BRANCH  10  11
ATOM     11  C   UNL     1       3.247   1.848  18.059  0.00  0.00    +0.000 C 
BRANCH  11  12
ATOM     12  C   UNL     1       4.157   3.077  17.946  0.00  0.00    +0.000 C 
BRANCH  12  14
ATOM     13  C   UNL     1       5.554   3.746  15.926  0.00  0.00    +0.000 C 
ATOM     14  C   UNL     1       4.176   3.744  16.568  0.00  0.00    +0.000 C 
ENDBRANCH  12  14
ENDBRANCH  11  12
ENDBRANCH  10  11
ENDBRANCH   9  10
ENDBRANCH   8   9
ENDBRANCH   7   8
ENDBRANCH   6   7
ENDBRANCH   5   6
ENDBRANCH   4   5
ENDBRANCH   3   4
ENDBRANCH   2   3
ENDBRANCH   1   2
BRANCH   1  15
ATOM     15  C   UNL     1       7.435   6.780  17.560  0.00  0.00    +0.000 C 
BRANCH  15  16
ATOM     16  C   UNL     1       8.227   7.757  18.419  0.00  0.00    +0.000 C 
BRANCH  16  17
ATOM     17  O   UNL     1       8.269   9.034  17.753  0.00  0.00    +0.000 OA
BRANCH  17  18
ATOM     18  C   UNL     1       8.761  10.072  18.487  0.00  0.00    +0.000 C 
ATOM     19  O   UNL     1       9.382   9.987  19.534  0.00  0.00    +0.000 OA
BRANCH  18  20
ATOM     20  C   UNL     1       8.486  11.379  17.786  0.00  0.00    +0.000 C 
BRANCH  20  21
ATOM     21  C   UNL     1       9.590  12.380  18.131  0.00  0.00    +0.000 C 
BRANCH  21  22
ATOM     22  O   UNL     1       9.928  13.149  16.973  0.00  0.00    +0.000 OA
ATOM     23  H   UNL     1      10.709  13.703  17.150  0.00  0.00    +0.000 HD
ENDBRANCH  21  22
BRANCH  21  24
ATOM     24  C   UNL     1       9.142  13.336  19.268  0.00  0.00    +0.000 C 
BRANCH  24  25
ATOM     25  N   UNL     1      10.273  13.789  20.230  0.00  0.00    +0.000 N 
ATOM     26  C   UNL     1      10.792  15.174  19.860  0.00  0.00    +0.000 C 
ATOM     27  C   UNL     1       9.816  13.810  21.689  0.00  0.00    +0.000 C 
ATOM     28  C   UNL     1      11.424  12.790  20.114  0.00  0.00    +0.000 C 
ENDBRANCH  24  25
ENDBRANCH  21  24
ENDBRANCH  20  21
ENDBRANCH  18  20
ENDBRANCH  17  18
ENDBRANCH  16  17
ENDBRANCH  15  16
ENDBRANCH   1  15
TORSDOF 21
ENDMDL
MODEL 3
REMARK VINA RESULT:      -5.3      1.823      2.791
REMARK  Name = 
REMARK  25 active torsions:
REMARK  status: ('A' for Active; 'I' for Inactive)
REMARK    1  A    between atoms: C_1  and  C_2
REMARK    2  A    between atoms: C_2  and  C_3
REMARK    3  A    between atoms: C_3  and  C_4
REMARK    4  A    between atoms: C_4  and  C_5
REMARK    5  A    between atoms: C_5  and  C_6
REMARK    6  A    between atoms: C_6  and  C_7
REMARK    7  A    between atoms: C_7  and  C_8
REMARK    8  A    between atoms: C_8  and  C_9
REMARK    9  A    between atoms: C_9  and  C_10
REMARK   10  A    between atoms: C_10  and  C_11
REMARK   11  A    between atoms: C_11  and  C_12
REMARK   12  A    between atoms: C_12  and  C_13
REMARK   13  A    between atoms: C_13  and  C_14
REMARK   14  A    between atoms: C_14  and  C_15
REMARK   15  A    between atoms: C_15  and  C_16
REMARK   16  A    between atoms: C_16  and  O_17
REMARK   17  A    between atoms: O_17  and  C_18
REMARK   18  A    between atoms: C_18  and  C_20
REMARK   19  A    between atoms: C_20  and  C_21
REMARK   20  A    between atoms: C_21  and  O_22
REMARK   21  A    between atoms: C_21  and  C_23
REMARK   22  A    between atoms: C_23  and  N_24
REMARK   23  A    between atoms: N_24  and  C_25
REMARK   24  A    between atoms: N_24  and  C_26
REMARK   25  A    between atoms: N_24  and  C_27
REMARK                            x       y       z     vdW  Elec       q    Type
REMARK                         _______ _______ _______ _____ _____    ______ ____
ROOT
ATOM      1  C   UNL     1       1.838   5.802  20.144  0.00  0.00    +0.000 C 
ENDROOT
BRANCH   1   2
ATOM      2  C   UNL     1       1.131   4.450  20.271  0.00  0.00    +0.000 C 
BRANCH   2   3
ATOM      3  C   UNL     1       2.039   3.396  20.896  0.00  0.00    +0.000 C 
BRANCH   3   4
ATOM      4  C   UNL     1       2.188   2.171  20.011  0.00  0.00    +0.000 C 
BRANCH   4   5
ATOM      5  C   UNL     1       2.163   2.613  18.554  0.00  0.00    +0.000 C 
BRANCH   5   6
ATOM      6  C   UNL     1       3.508   2.387  17.895  0.00  0.00    +0.000 C 
BRANCH   6   7
ATOM      7  C   UNL     1       4.460   3.526  18.238  0.00  0.00    +0.000 C 
BRANCH   7   8
ATOM      8  C   UNL     1       4.756   4.336  16.987  0.00  0.00    +0.000 C 
BRANCH   8   9
ATOM      9  C   UNL     1       5.686   3.580  16.044  0.00  0.00    +0.000 C 
BRANCH   9  10
ATOM     10  C   UNL     1       6.651   4.522  15.324  0.00  0.00    +0.000 C 
BRANCH  10  11
ATOM     11  C   UNL     1       6.699   4.349  13.804  0.00  0.00    +0.000 C 
BRANCH  11  12
ATOM     12  C   UNL     1       5.347   4.062  13.138  0.00  0.00    +0.000 C 
BRANCH  12  14
ATOM     13  C   UNL     1       4.101   3.072  11.152  0.00  0.00    +0.000 C 
ATOM     14  C   UNL     1       5.407   3.126  11.929  0.00  0.00    +0.000 C 
ENDBRANCH  12  14
ENDBRANCH  11  12
ENDBRANCH  10  11
ENDBRANCH   9  10
ENDBRANCH   8   9
ENDBRANCH   7   8
ENDBRANCH   6   7
ENDBRANCH   5   6
ENDBRANCH   4   5
ENDBRANCH   3   4
ENDBRANCH   2   3
ENDBRANCH   1   2
BRANCH   1  15
ATOM     15  C   UNL     1       2.101   6.186  18.688  0.00  0.00    +0.000 C 
BRANCH  15  16
ATOM     16  C   UNL     1       2.628   7.608  18.548  0.00  0.00    +0.000 C 
BRANCH  16  17
ATOM     17  O   UNL     1       1.623   8.415  17.902  0.00  0.00    +0.000 OA
BRANCH  17  18
ATOM     18  C   UNL     1       1.715   9.759  18.110  0.00  0.00    +0.000 C 
ATOM     19  O   UNL     1       2.415  10.541  17.488  0.00  0.00    +0.000 OA
BRANCH  18  20
ATOM     20  C   UNL     1       0.762  10.181  19.201  0.00  0.00    +0.000 C 
BRANCH  20  21
ATOM     21  C   UNL     1      -0.381  10.992  18.588  0.00  0.00    +0.000 C 
BRANCH  21  22
ATOM     22  O   UNL     1      -0.778  10.408  17.344  0.00  0.00    +0.000 OA
ATOM     23  H   UNL     1      -0.317   9.562  17.203  0.00  0.00    +0.000 HD
ENDBRANCH  21  22
BRANCH  21  24
ATOM     24  C   UNL     1      -1.603  11.044  19.542  0.00  0.00    +0.000 C 
BRANCH  24  25
ATOM     25  N   UNL     1      -1.786  12.385  20.303  0.00  0.00    +0.000 N 
ATOM     26  C   UNL     1      -3.254  12.793  20.360  0.00  0.00    +0.000 C 
ATOM     27  C   UNL     1      -1.241  12.318  21.731  0.00  0.00    +0.000 C 
ATOM     28  C   UNL     1      -1.008  13.466  19.554  0.00  0.00    +0.000 C 
ENDBRANCH  24  25
ENDBRANCH  21  24
ENDBRANCH  20  21
ENDBRANCH  18  20
ENDBRANCH  17  18
ENDBRANCH  16  17
ENDBRANCH  15  16
ENDBRANCH   1  15
TORSDOF 21
ENDMDL
MODEL 4
REMARK VINA RESULT:      -5.2      2.511      3.397
REMARK  Name = 
REMARK  25 active torsions:
REMARK  status: ('A' for Active; 'I' for Inactive)
REMARK    1  A    between atoms: C_1  and  C_2
REMARK    2  A    between atoms: C_2  and  C_3
REMARK    3  A    between atoms: C_3  and  C_4
REMARK    4  A    between atoms: C_4  and  C_5
REMARK    5  A    between atoms: C_5  and  C_6
REMARK    6  A    between atoms: C_6  and  C_7
REMARK    7  A    between atoms: C_7  and  C_8
REMARK    8  A    between atoms: C_8  and  C_9
REMARK    9  A    between atoms: C_9  and  C_10
REMARK   10  A    between atoms: C_10  and  C_11
REMARK   11  A    between atoms: C_11  and  C_12
REMARK   12  A    between atoms: C_12  and  C_13
REMARK   13  A    between atoms: C_13  and  C_14
REMARK   14  A    between atoms: C_14  and  C_15
REMARK   15  A    between atoms: C_15  and  C_16
REMARK   16  A    between atoms: C_16  and  O_17
REMARK   17  A    between atoms: O_17  and  C_18
REMARK   18  A    between atoms: C_18  and  C_20
REMARK   19  A    between atoms: C_20  and  C_21
REMARK   20  A    between atoms: C_21  and  O_22
REMARK   21  A    between atoms: C_21  and  C_23
REMARK   22  A    between atoms: C_23  and  N_24
REMARK   23  A    between atoms: N_24  and  C_25
REMARK   24  A    between atoms: N_24  and  C_26
REMARK   25  A    between atoms: N_24  and  C_27
REMARK                            x       y       z     vdW  Elec       q    Type
REMARK                         _______ _______ _______ _____ _____    ______ ____
ROOT
ATOM      1  C   UNL     1       3.327   6.754  18.921  0.00  0.00    +0.000 C 
ENDROOT
BRANCH   1   2
ATOM      2  C   UNL     1       2.040   5.933  19.047  0.00  0.00    +0.000 C 
BRANCH   2   3
ATOM      3  C   UNL     1       1.703   5.635  20.504  0.00  0.00    +0.000 C 
BRANCH   3   4
ATOM      4  C   UNL     1       1.136   4.238  20.686  0.00  0.00    +0.000 C 
BRANCH   4   5
ATOM      5  C   UNL     1       1.814   3.301  19.696  0.00  0.00    +0.000 C 
BRANCH   5   6
ATOM      6  C   UNL     1       2.969   2.569  20.346  0.00  0.00    +0.000 C 
BRANCH   6   7
ATOM      7  C   UNL     1       3.989   2.154  19.293  0.00  0.00    +0.000 C 
BRANCH   7   8
ATOM      8  C   UNL     1       4.605   3.391  18.665  0.00  0.00    +0.000 C 
BRANCH   8   9
ATOM      9  C   UNL     1       4.264   3.490  17.182  0.00  0.00    +0.000 C 
BRANCH   9  10
ATOM     10  C   UNL     1       5.070   4.586  16.486  0.00  0.00    +0.000 C 
BRANCH  10  11
ATOM     11  C   UNL     1       6.455   4.841  17.087  0.00  0.00    +0.000 C 
BRANCH  11  12
ATOM     12  C   UNL     1       6.991   6.267  16.906  0.00  0.00    +0.000 C 
BRANCH  12  14
ATOM     13  C   UNL     1       8.111   8.306  17.936  0.00  0.00    +0.000 C 
ATOM     14  C   UNL     1       7.622   6.884  18.157  0.00  0.00    +0.000 C 
ENDBRANCH  12  14
ENDBRANCH  11  12
ENDBRANCH  10  11
ENDBRANCH   9  10
ENDBRANCH   8   9
ENDBRANCH   7   8
ENDBRANCH   6   7
ENDBRANCH   5   6
ENDBRANCH   4   5
ENDBRANCH   3   4
ENDBRANCH   2   3
ENDBRANCH   1   2
BRANCH   1  15
ATOM     15  C   UNL     1       3.201   7.877  17.891  0.00  0.00    +0.000 C 
BRANCH  15  16
ATOM     16  C   UNL     1       1.776   8.401  17.774  0.00  0.00    +0.000 C 
BRANCH  16  17
ATOM     17  O   UNL     1       1.679   9.649  18.489  0.00  0.00    +0.000 OA
BRANCH  17  18
ATOM     18  C   UNL     1       0.880   9.640  19.594  0.00  0.00    +0.000 C 
ATOM     19  O   UNL     1       1.071   9.007  20.620  0.00  0.00    +0.000 OA
BRANCH  18  20
ATOM     20  C   UNL     1      -0.274  10.593  19.406  0.00  0.00    +0.000 C 
BRANCH  20  21
ATOM     21  C   UNL     1       0.246  11.909  18.827  0.00  0.00    +0.000 C 
BRANCH  21  22
ATOM     22  O   UNL     1      -0.719  12.458  17.925  0.00  0.00    +0.000 OA
ATOM     23  H   UNL     1      -1.338  13.038  18.402  0.00  0.00    +0.000 HD
ENDBRANCH  21  22
BRANCH  21  24
ATOM     24  C   UNL     1       0.540  12.938  19.950  0.00  0.00    +0.000 C 
BRANCH  24  25
ATOM     25  N   UNL     1       1.611  14.005  19.601  0.00  0.00    +0.000 N 
ATOM     26  C   UNL     1       2.582  13.490  18.545  0.00  0.00    +0.000 C 
ATOM     27  C   UNL     1       0.986  15.307  19.097  0.00  0.00    +0.000 C 
ATOM     28  C   UNL     1       2.397  14.324  20.873  0.00  0.00    +0.000 C 
ENDBRANCH  24  25
ENDBRANCH  21  24
ENDBRANCH  20  21
ENDBRANCH  18  20
ENDBRANCH  17  18
ENDBRANCH  16  17
ENDBRANCH  15  16
ENDBRANCH   1  15
TORSDOF 21
ENDMDL
MODEL 5
REMARK VINA RESULT:      -5.2      2.020      3.755
REMARK  Name = 
REMARK  25 active torsions:
REMARK  status: ('A' for Active; 'I' for Inactive)
REMARK    1  A    between atoms: C_1  and  C_2
REMARK    2  A    between atoms: C_2  and  C_3
REMARK    3  A    between atoms: C_3  and  C_4
REMARK    4  A    between atoms: C_4  and  C_5
REMARK    5  A    between atoms: C_5  and  C_6
REMARK    6  A    between atoms: C_6  and  C_7
REMARK    7  A    between atoms: C_7  and  C_8
REMARK    8  A    between atoms: C_8  and  C_9
REMARK    9  A    between atoms: C_9  and  C_10
REMARK   10  A    between atoms: C_10  and  C_11
REMARK   11  A    between atoms: C_11  and  C_12
REMARK   12  A    between atoms: C_12  and  C_13
REMARK   13  A    between atoms: C_13  and  C_14
REMARK   14  A    between atoms: C_14  and  C_15
REMARK   15  A    between atoms: C_15  and  C_16
REMARK   16  A    between atoms: C_16  and  O_17
REMARK   17  A    between atoms: O_17  and  C_18
REMARK   18  A    between atoms: C_18  and  C_20
REMARK   19  A    between atoms: C_20  and  C_21
REMARK   20  A    between atoms: C_21  and  O_22
REMARK   21  A    between atoms: C_21  and  C_23
REMARK   22  A    between atoms: C_23  and  N_24
REMARK   23  A    between atoms: N_24  and  C_25
REMARK   24  A    between atoms: N_24  and  C_26
REMARK   25  A    between atoms: N_24  and  C_27
REMARK                            x       y       z     vdW  Elec       q    Type
REMARK                         _______ _______ _______ _____ _____    ______ ____
ROOT
ATOM      1  C   UNL     1       1.116   4.304  20.064  0.00  0.00    +0.000 C 
ENDROOT
BRANCH   1   2
ATOM      2  C   UNL     1       1.704   2.966  20.521  0.00  0.00    +0.000 C 
BRANCH   2   3
ATOM      3  C   UNL     1       1.669   1.925  19.407  0.00  0.00    +0.000 C 
BRANCH   3   4
ATOM      4  C   UNL     1       2.904   1.987  18.526  0.00  0.00    +0.000 C 
BRANCH   4   5
ATOM      5  C   UNL     1       4.065   2.531  19.347  0.00  0.00    +0.000 C 
BRANCH   5   6
ATOM      6  C   UNL     1       4.653   3.769  18.703  0.00  0.00    +0.000 C 
BRANCH   6   7
ATOM      7  C   UNL     1       3.854   4.148  17.463  0.00  0.00    +0.000 C 
BRANCH   7   8
ATOM      8  C   UNL     1       4.665   3.834  16.218  0.00  0.00    +0.000 C 
BRANCH   8   9
ATOM      9  C   UNL     1       5.137   5.109  15.528  0.00  0.00    +0.000 C 
BRANCH   9  10
ATOM     10  C   UNL     1       6.624   5.046  15.177  0.00  0.00    +0.000 C 
BRANCH  10  11
ATOM     11  C   UNL     1       7.568   5.437  16.316  0.00  0.00    +0.000 C 
BRANCH  11  12
ATOM     12  C   UNL     1       7.193   6.726  17.059  0.00  0.00    +0.000 C 
BRANCH  12  14
ATOM     13  C   UNL     1       7.806   5.659  19.287  0.00  0.00    +0.000 C 
ATOM     14  C   UNL     1       7.867   6.907  18.421  0.00  0.00    +0.000 C 
ENDBRANCH  12  14
ENDBRANCH  11  12
ENDBRANCH  10  11
ENDBRANCH   9  10
ENDBRANCH   8   9
ENDBRANCH   7   8
ENDBRANCH   6   7
ENDBRANCH   5   6
ENDBRANCH   4   5
ENDBRANCH   3   4
ENDBRANCH   2   3
ENDBRANCH   1   2
BRANCH   1  15
ATOM     15  C   UNL     1       1.777   5.496  20.755  0.00  0.00    +0.000 C 
BRANCH  15  16
ATOM     16  C   UNL     1       2.372   6.486  19.763  0.00  0.00    +0.000 C 
BRANCH  16  17
ATOM     17  O   UNL     1       1.502   7.632  19.670  0.00  0.00    +0.000 OA
BRANCH  17  18
ATOM     18  C   UNL     1       1.923   8.633  18.847  0.00  0.00    +0.000 C 
ATOM     19  O   UNL     1       2.526   8.498  17.794  0.00  0.00    +0.000 OA
BRANCH  18  20
ATOM     20  C   UNL     1       1.478   9.969  19.387  0.00  0.00    +0.000 C 
BRANCH  20  21
ATOM     21  C   UNL     1       0.320  10.497  18.537  0.00  0.00    +0.000 C 
BRANCH  21  22
ATOM     22  O   UNL     1       0.042   9.582  17.473  0.00  0.00    +0.000 OA
ATOM     23  H   UNL     1       0.870   9.279  17.061  0.00  0.00    +0.000 HD
ENDBRANCH  21  22
BRANCH  21  24
ATOM     24  C   UNL     1      -0.958  10.691  19.394  0.00  0.00    +0.000 C 
BRANCH  24  25
ATOM     25  N   UNL     1      -1.757  11.989  19.099  0.00  0.00    +0.000 N 
ATOM     26  C   UNL     1      -2.286  12.617  20.383  0.00  0.00    +0.000 C 
ATOM     27  C   UNL     1      -0.915  13.028  18.356  0.00  0.00    +0.000 C 
ATOM     28  C   UNL     1      -2.944  11.625  18.208  0.00  0.00    +0.000 C 
ENDBRANCH  24  25
ENDBRANCH  21  24
ENDBRANCH  20  21
ENDBRANCH  18  20
ENDBRANCH  17  18
ENDBRANCH  16  17
ENDBRANCH  15  16
ENDBRANCH   1  15
TORSDOF 21
ENDMDL
MODEL 6
REMARK VINA RESULT:      -5.2      2.405      4.662
REMARK  Name = 
REMARK  25 active torsions:
REMARK  status: ('A' for Active; 'I' for Inactive)
REMARK    1  A    between atoms: C_1  and  C_2
REMARK    2  A    between atoms: C_2  and  C_3
REMARK    3  A    between atoms: C_3  and  C_4
REMARK    4  A    between atoms: C_4  and  C_5
REMARK    5  A    between atoms: C_5  and  C_6
REMARK    6  A    between atoms: C_6  and  C_7
REMARK    7  A    between atoms: C_7  and  C_8
REMARK    8  A    between atoms: C_8  and  C_9
REMARK    9  A    between atoms: C_9  and  C_10
REMARK   10  A    between atoms: C_10  and  C_11
REMARK   11  A    between atoms: C_11  and  C_12
REMARK   12  A    between atoms: C_12  and  C_13
REMARK   13  A    between atoms: C_13  and  C_14
REMARK   14  A    between atoms: C_14  and  C_15
REMARK   15  A    between atoms: C_15  and  C_16
REMARK   16  A    between atoms: C_16  and  O_17
REMARK   17  A    between atoms: O_17  and  C_18
REMARK   18  A    between atoms: C_18  and  C_20
REMARK   19  A    between atoms: C_20  and  C_21
REMARK   20  A    between atoms: C_21  and  O_22
REMARK   21  A    between atoms: C_21  and  C_23
REMARK   22  A    between atoms: C_23  and  N_24
REMARK   23  A    between atoms: N_24  and  C_25
REMARK   24  A    between atoms: N_24  and  C_26
REMARK   25  A    between atoms: N_24  and  C_27
REMARK                            x       y       z     vdW  Elec       q    Type
REMARK                         _______ _______ _______ _____ _____    ______ ____
ROOT
ATOM      1  C   UNL     1       2.108   7.168  20.450  0.00  0.00    +0.000 C 
ENDROOT
BRANCH   1   2
ATOM      2  C   UNL     1       2.110   6.731  18.983  0.00  0.00    +0.000 C 
BRANCH   2   3
ATOM      3  C   UNL     1       2.565   7.855  18.060  0.00  0.00    +0.000 C 
BRANCH   3   4
ATOM      4  C   UNL     1       3.965   7.621  17.520  0.00  0.00    +0.000 C 
BRANCH   4   5
ATOM      5  C   UNL     1       4.024   6.235  16.894  0.00  0.00    +0.000 C 
BRANCH   5   6
ATOM      6  C   UNL     1       5.449   5.729  16.827  0.00  0.00    +0.000 C 
BRANCH   6   7
ATOM      7  C   UNL     1       5.516   4.278  17.283  0.00  0.00    +0.000 C 
BRANCH   7   8
ATOM      8  C   UNL     1       4.517   4.050  18.404  0.00  0.00    +0.000 C 
BRANCH   8   9
ATOM      9  C   UNL     1       3.893   2.661  18.318  0.00  0.00    +0.000 C 
BRANCH   9  10
ATOM     10  C   UNL     1       2.596   2.671  17.509  0.00  0.00    +0.000 C 
BRANCH  10  11
ATOM     11  C   UNL     1       1.456   3.474  18.140  0.00  0.00    +0.000 C 
BRANCH  11  12
ATOM     12  C   UNL     1       0.839   2.851  19.398  0.00  0.00    +0.000 C 
BRANCH  12  14
ATOM     13  C   UNL     1       2.110   2.989  21.599  0.00  0.00    +0.000 C 
ATOM     14  C   UNL     1       1.075   3.636  20.691  0.00  0.00    +0.000 C 
ENDBRANCH  12  14
ENDBRANCH  11  12
ENDBRANCH  10  11
ENDBRANCH   9  10
ENDBRANCH   8   9
ENDBRANCH   7   8
ENDBRANCH   6   7
ENDBRANCH   5   6
ENDBRANCH   4   5
ENDBRANCH   3   4
ENDBRANCH   2   3
ENDBRANCH   1   2
BRANCH   1  15
ATOM     15  C   UNL     1       0.799   7.846  20.854  0.00  0.00    +0.000 C 
BRANCH  15  16
ATOM     16  C   UNL     1       0.969   9.339  21.099  0.00  0.00    +0.000 C 
BRANCH  16  17
ATOM     17  O   UNL     1      -0.169  10.034  20.550  0.00  0.00    +0.000 OA
BRANCH  17  18
ATOM     18  C   UNL     1      -0.268  11.356  20.868  0.00  0.00    +0.000 C 
ATOM     19  O   UNL     1      -0.076  11.853  21.966  0.00  0.00    +0.000 OA
BRANCH  18  20
ATOM     20  C   UNL     1      -0.594  12.162  19.634  0.00  0.00    +0.000 C 
BRANCH  20  21
ATOM     21  C   UNL     1      -1.970  11.750  19.111  0.00  0.00    +0.000 C 
BRANCH  21  22
ATOM     22  O   UNL     1      -2.973  12.623  19.639  0.00  0.00    +0.000 OA
ATOM     23  H   UNL     1      -2.562  13.421  20.017  0.00  0.00    +0.000 HD
ENDBRANCH  21  22
BRANCH  21  24
ATOM     24  C   UNL     1      -2.016  11.797  17.561  0.00  0.00    +0.000 C 
BRANCH  24  25
ATOM     25  N   UNL     1      -3.101  10.900  16.907  0.00  0.00    +0.000 N 
ATOM     26  C   UNL     1      -4.454  11.600  16.877  0.00  0.00    +0.000 C 
ATOM     27  C   UNL     1      -2.729  10.490  15.481  0.00  0.00    +0.000 C 
ATOM     28  C   UNL     1      -3.230   9.625  17.742  0.00  0.00    +0.000 C 
ENDBRANCH  24  25
ENDBRANCH  21  24
ENDBRANCH  20  21
ENDBRANCH  18  20
ENDBRANCH  17  18
ENDBRANCH  16  17
ENDBRANCH  15  16
ENDBRANCH   1  15
TORSDOF 21
ENDMDL
MODEL 7
REMARK VINA RESULT:      -5.2      2.372      3.126
REMARK  Name = 
REMARK  25 active torsions:
REMARK  status: ('A' for Active; 'I' for Inactive)
REMARK    1  A    between atoms: C_1  and  C_2
REMARK    2  A    between atoms: C_2  and  C_3
REMARK    3  A    between atoms: C_3  and  C_4
REMARK    4  A    between atoms: C_4  and  C_5
REMARK    5  A    between atoms: C_5  and  C_6
REMARK    6  A    between atoms: C_6  and  C_7
REMARK    7  A    between atoms: C_7  and  C_8
REMARK    8  A    between atoms: C_8  and  C_9
REMARK    9  A    between atoms: C_9  and  C_10
REMARK   10  A    between atoms: C_10  and  C_11
REMARK   11  A    between atoms: C_11  and  C_12
REMARK   12  A    between atoms: C_12  and  C_13
REMARK   13  A    between atoms: C_13  and  C_14
REMARK   14  A    between atoms: C_14  and  C_15
REMARK   15  A    between atoms: C_15  and  C_16
REMARK   16  A    between atoms: C_16  and  O_17
REMARK   17  A    between atoms: O_17  and  C_18
REMARK   18  A    between atoms: C_18  and  C_20
REMARK   19  A    between atoms: C_20  and  C_21
REMARK   20  A    between atoms: C_21  and  O_22
REMARK   21  A    between atoms: C_21  and  C_23
REMARK   22  A    between atoms: C_23  and  N_24
REMARK   23  A    between atoms: N_24  and  C_25
REMARK   24  A    between atoms: N_24  and  C_26
REMARK   25  A    between atoms: N_24  and  C_27
REMARK                            x       y       z     vdW  Elec       q    Type
REMARK                         _______ _______ _______ _____ _____    ______ ____
ROOT
ATOM      1  C   UNL     1       2.442   8.022  18.856  0.00  0.00    +0.000 C 
ENDROOT
BRANCH   1   2
ATOM      2  C   UNL     1       2.224   6.527  19.108  0.00  0.00    +0.000 C 
BRANCH   2   3
ATOM      3  C   UNL     1       1.875   6.246  20.565  0.00  0.00    +0.000 C 
BRANCH   3   4
ATOM      4  C   UNL     1       2.109   4.793  20.941  0.00  0.00    +0.000 C 
BRANCH   4   5
ATOM      5  C   UNL     1       0.941   3.961  20.428  0.00  0.00    +0.000 C 
BRANCH   5   6
ATOM      6  C   UNL     1       1.408   2.596  19.968  0.00  0.00    +0.000 C 
BRANCH   6   7
ATOM      7  C   UNL     1       1.161   2.432  18.473  0.00  0.00    +0.000 C 
BRANCH   7   8
ATOM      8  C   UNL     1       2.239   3.166  17.695  0.00  0.00    +0.000 C 
BRANCH   8   9
ATOM      9  C   UNL     1       3.621   2.592  17.985  0.00  0.00    +0.000 C 
BRANCH   9  10
ATOM     10  C   UNL     1       4.607   3.677  18.418  0.00  0.00    +0.000 C 
BRANCH  10  11
ATOM     11  C   UNL     1       5.022   4.645  17.307  0.00  0.00    +0.000 C 
BRANCH  11  12
ATOM     12  C   UNL     1       5.440   6.041  17.783  0.00  0.00    +0.000 C 
BRANCH  12  14
ATOM     13  C   UNL     1       7.822   6.759  18.321  0.00  0.00    +0.000 C 
ATOM     14  C   UNL     1       6.781   6.537  17.235  0.00  0.00    +0.000 C 
ENDBRANCH  12  14
ENDBRANCH  11  12
ENDBRANCH  10  11
ENDBRANCH   9  10
ENDBRANCH   8   9
ENDBRANCH   7   8
ENDBRANCH   6   7
ENDBRANCH   5   6
ENDBRANCH   4   5
ENDBRANCH   3   4
ENDBRANCH   2   3
ENDBRANCH   1   2
BRANCH   1  15
ATOM     15  C   UNL     1       1.602   8.544  17.691  0.00  0.00    +0.000 C 
BRANCH  15  16
ATOM     16  C   UNL     1       0.989   9.907  17.983  0.00  0.00    +0.000 C 
BRANCH  16  17
ATOM     17  O   UNL     1       1.567  10.427  19.197  0.00  0.00    +0.000 OA
BRANCH  17  18
ATOM     18  C   UNL     1       0.757  11.226  19.948  0.00  0.00    +0.000 C 
ATOM     19  O   UNL     1       0.826  11.398  21.154  0.00  0.00    +0.000 OA
BRANCH  18  20
ATOM     20  C   UNL     1      -0.229  11.944  19.059  0.00  0.00    +0.000 C 
BRANCH  20  21
ATOM     21  C   UNL     1      -1.651  11.542  19.455  0.00  0.00    +0.000 C 
BRANCH  21  22
ATOM     22  O   UNL     1      -1.960  12.063  20.751  0.00  0.00    +0.000 OA
ATOM     23  H   UNL     1      -2.184  13.009  20.692  0.00  0.00    +0.000 HD
ENDBRANCH  21  22
BRANCH  21  24
ATOM     24  C   UNL     1      -2.687  12.073  18.430  0.00  0.00    +0.000 C 
BRANCH  24  25
ATOM     25  N   UNL     1      -3.263  11.003  17.464  0.00  0.00    +0.000 N 
ATOM     26  C   UNL     1      -4.781  11.106  17.366  0.00  0.00    +0.000 C 
ATOM     27  C   UNL     1      -2.673  11.117  16.057  0.00  0.00    +0.000 C 
ATOM     28  C   UNL     1      -2.902   9.623  18.013  0.00  0.00    +0.000 C 
ENDBRANCH  24  25
ENDBRANCH  21  24
ENDBRANCH  20  21
ENDBRANCH  18  20
ENDBRANCH  17  18
ENDBRANCH  16  17
ENDBRANCH  15  16
ENDBRANCH   1  15
TORSDOF 21
ENDMDL
MODEL 8
REMARK VINA RESULT:      -5.2      2.749      3.693
REMARK  Name = 
REMARK  25 active torsions:
REMARK  status: ('A' for Active; 'I' for Inactive)
REMARK    1  A    between atoms: C_1  and  C_2
REMARK    2  A    between atoms: C_2  and  C_3
REMARK    3  A    between atoms: C_3  and  C_4
REMARK    4  A    between atoms: C_4  and  C_5
REMARK    5  A    between atoms: C_5  and  C_6
REMARK    6  A    between atoms: C_6  and  C_7
REMARK    7  A    between atoms: C_7  and  C_8
REMARK    8  A    between atoms: C_8  and  C_9
REMARK    9  A    between atoms: C_9  and  C_10
REMARK   10  A    between atoms: C_10  and  C_11
REMARK   11  A    between atoms: C_11  and  C_12
REMARK   12  A    between atoms: C_12  and  C_13
REMARK   13  A    between atoms: C_13  and  C_14
REMARK   14  A    between atoms: C_14  and  C_15
REMARK   15  A    between atoms: C_15  and  C_16
REMARK   16  A    between atoms: C_16  and  O_17
REMARK   17  A    between atoms: O_17  and  C_18
REMARK   18  A    between atoms: C_18  and  C_20
REMARK   19  A    between atoms: C_20  and  C_21
REMARK   20  A    between atoms: C_21  and  O_22
REMARK   21  A    between atoms: C_21  and  C_23
REMARK   22  A    between atoms: C_23  and  N_24
REMARK   23  A    between atoms: N_24  and  C_25
REMARK   24  A    between atoms: N_24  and  C_26
REMARK   25  A    between atoms: N_24  and  C_27
REMARK                            x       y       z     vdW  Elec       q    Type
REMARK                         _______ _______ _______ _____ _____    ______ ____
ROOT
ATOM      1  C   UNL     1       2.147   6.546  18.300  0.00  0.00    +0.000 C 
ENDROOT
BRANCH   1   2
ATOM      2  C   UNL     1       2.409   6.650  19.805  0.00  0.00    +0.000 C 
BRANCH   2   3
ATOM      3  C   UNL     1       1.793   5.481  20.566  0.00  0.00    +0.000 C 
BRANCH   3   4
ATOM      4  C   UNL     1       2.559   4.188  20.347  0.00  0.00    +0.000 C 
BRANCH   4   5
ATOM      5  C   UNL     1       1.586   3.117  19.873  0.00  0.00    +0.000 C 
BRANCH   5   6
ATOM      6  C   UNL     1       1.825   2.773  18.417  0.00  0.00    +0.000 C 
BRANCH   6   7
ATOM      7  C   UNL     1       3.310   2.868  18.091  0.00  0.00    +0.000 C 
BRANCH   7   8
ATOM      8  C   UNL     1       3.509   3.753  16.873  0.00  0.00    +0.000 C 
BRANCH   8   9
ATOM      9  C   UNL     1       4.938   3.665  16.350  0.00  0.00    +0.000 C 
BRANCH   9  10
ATOM     10  C   UNL     1       5.354   4.940  15.617  0.00  0.00    +0.000 C 
BRANCH  10  11
ATOM     11  C   UNL     1       6.430   5.765  16.327  0.00  0.00    +0.000 C 
BRANCH  11  12
ATOM     12  C   UNL     1       5.986   6.424  17.638  0.00  0.00    +0.000 C 
BRANCH  12  14
ATOM     13  C   UNL     1       7.803   5.745  19.285  0.00  0.00    +0.000 C 
ATOM     14  C   UNL     1       6.334   5.642  18.907  0.00  0.00    +0.000 C 
ENDBRANCH  12  14
ENDBRANCH  11  12
ENDBRANCH  10  11
ENDBRANCH   9  10
ENDBRANCH   8   9
ENDBRANCH   7   8
ENDBRANCH   6   7
ENDBRANCH   5   6
ENDBRANCH   4   5
ENDBRANCH   3   4
ENDBRANCH   2   3
ENDBRANCH   1   2
BRANCH   1  15
ATOM     15  C   UNL     1       2.460   7.849  17.564  0.00  0.00    +0.000 C 
BRANCH  15  16
ATOM     16  C   UNL     1       2.054   9.080  18.364  0.00  0.00    +0.000 C 
BRANCH  16  17
ATOM     17  O   UNL     1       0.805   9.579  17.846  0.00  0.00    +0.000 OA
BRANCH  17  18
ATOM     18  C   UNL     1       0.052  10.312  18.715  0.00  0.00    +0.000 C 
ATOM     19  O   UNL     1      -1.138  10.162  18.945  0.00  0.00    +0.000 OA
BRANCH  18  20
ATOM     20  C   UNL     1       0.917  11.323  19.425  0.00  0.00    +0.000 C 
BRANCH  20  21
ATOM     21  C   UNL     1       0.973  12.609  18.600  0.00  0.00    +0.000 C 
BRANCH  21  22
ATOM     22  O   UNL     1      -0.179  12.695  17.755  0.00  0.00    +0.000 OA
ATOM     23  H   UNL     1      -0.413  11.815  17.410  0.00  0.00    +0.000 HD
ENDBRANCH  21  22
BRANCH  21  24
ATOM     24  C   UNL     1       1.030  13.859  19.516  0.00  0.00    +0.000 C 
BRANCH  24  25
ATOM     25  N   UNL     1       2.426  14.529  19.629  0.00  0.00    +0.000 N 
ATOM     26  C   UNL     1       2.304  16.039  19.796  0.00  0.00    +0.000 C 
ATOM     27  C   UNL     1       3.242  13.970  20.797  0.00  0.00    +0.000 C 
ATOM     28  C   UNL     1       3.197  14.241  18.340  0.00  0.00    +0.000 C 
ENDBRANCH  24  25
ENDBRANCH  21  24
ENDBRANCH  20  21
ENDBRANCH  18  20
ENDBRANCH  17  18
ENDBRANCH  16  17
ENDBRANCH  15  16
ENDBRANCH   1  15
TORSDOF 21
ENDMDL
MODEL 9
REMARK VINA RESULT:      -5.2      7.580     11.242
REMARK  Name = 
REMARK  25 active torsions:
REMARK  status: ('A' for Active; 'I' for Inactive)
REMARK    1  A    between atoms: C_1  and  C_2
REMARK    2  A    between atoms: C_2  and  C_3
REMARK    3  A    between atoms: C_3  and  C_4
REMARK    4  A    between atoms: C_4  and  C_5
REMARK    5  A    between atoms: C_5  and  C_6
REMARK    6  A    between atoms: C_6  and  C_7
REMARK    7  A    between atoms: C_7  and  C_8
REMARK    8  A    between atoms: C_8  and  C_9
REMARK    9  A    between atoms: C_9  and  C_10
REMARK   10  A    between atoms: C_10  and  C_11
REMARK   11  A    between atoms: C_11  and  C_12
REMARK   12  A    between atoms: C_12  and  C_13
REMARK   13  A    between atoms: C_13  and  C_14
REMARK   14  A    between atoms: C_14  and  C_15
REMARK   15  A    between atoms: C_15  and  C_16
REMARK   16  A    between atoms: C_16  and  O_17
REMARK   17  A    between atoms: O_17  and  C_18
REMARK   18  A    between atoms: C_18  and  C_20
REMARK   19  A    between atoms: C_20  and  C_21
REMARK   20  A    between atoms: C_21  and  O_22
REMARK   21  A    between atoms: C_21  and  C_23
REMARK   22  A    between atoms: C_23  and  N_24
REMARK   23  A    between atoms: N_24  and  C_25
REMARK   24  A    between atoms: N_24  and  C_26
REMARK   25  A    between atoms: N_24  and  C_27
REMARK                            x       y       z     vdW  Elec       q    Type
REMARK                         _______ _______ _______ _____ _____    ______ ____
ROOT
ATOM      1  C   UNL     1       8.903   9.594  19.123  0.00  0.00    +0.000 C 
ENDROOT
BRANCH   1   2
ATOM      2  C   UNL     1       9.255  11.071  19.314  0.00  0.00    +0.000 C 
BRANCH   2   3
ATOM      3  C   UNL     1       9.764  11.701  18.022  0.00  0.00    +0.000 C 
BRANCH   3   4
ATOM      4  C   UNL     1      11.264  11.526  17.852  0.00  0.00    +0.000 C 
BRANCH   4   5
ATOM      5  C   UNL     1      11.902  12.900  17.698  0.00  0.00    +0.000 C 
BRANCH   5   6
ATOM      6  C   UNL     1      11.853  13.669  19.002  0.00  0.00    +0.000 C 
BRANCH   6   7
ATOM      7  C   UNL     1      11.523  15.133  18.738  0.00  0.00    +0.000 C 
BRANCH   7   8
ATOM      8  C   UNL     1      10.593  15.237  17.541  0.00  0.00    +0.000 C 
BRANCH   8   9
ATOM      9  C   UNL     1       9.138  15.360  17.978  0.00  0.00    +0.000 C 
BRANCH   9  10
ATOM     10  C   UNL     1       8.967  16.386  19.099  0.00  0.00    +0.000 C 
BRANCH  10  11
ATOM     11  C   UNL     1       8.193  15.879  20.318  0.00  0.00    +0.000 C 
BRANCH  11  12
ATOM     12  C   UNL     1       8.304  14.372  20.579  0.00  0.00    +0.000 C 
BRANCH  12  14
ATOM     13  C   UNL     1       9.770  15.141  22.512  0.00  0.00    +0.000 C 
ATOM     14  C   UNL     1       9.330  13.973  21.643  0.00  0.00    +0.000 C 
ENDBRANCH  12  14
ENDBRANCH  11  12
ENDBRANCH  10  11
ENDBRANCH   9  10
ENDBRANCH   8   9
ENDBRANCH   7   8
ENDBRANCH   6   7
ENDBRANCH   5   6
ENDBRANCH   4   5
ENDBRANCH   3   4
ENDBRANCH   2   3
ENDBRANCH   1   2
BRANCH   1  15
ATOM     15  C   UNL     1       8.011   9.362  17.903  0.00  0.00    +0.000 C 
BRANCH  15  16
ATOM     16  C   UNL     1       8.089   7.930  17.392  0.00  0.00    +0.000 C 
BRANCH  16  17
ATOM     17  O   UNL     1       6.756   7.472  17.086  0.00  0.00    +0.000 OA
BRANCH  17  18
ATOM     18  C   UNL     1       6.646   6.162  16.725  0.00  0.00    +0.000 C 
ATOM     19  O   UNL     1       7.477   5.288  16.911  0.00  0.00    +0.000 OA
BRANCH  18  20
ATOM     20  C   UNL     1       5.295   5.908  16.103  0.00  0.00    +0.000 C 
BRANCH  20  21
ATOM     21  C   UNL     1       4.569   4.821  16.897  0.00  0.00    +0.000 C 
BRANCH  21  22
ATOM     22  O   UNL     1       5.331   3.610  16.870  0.00  0.00    +0.000 OA
ATOM     23  H   UNL     1       6.181   3.754  16.418  0.00  0.00    +0.000 HD
ENDBRANCH  21  22
BRANCH  21  24
ATOM     24  C   UNL     1       4.352   5.256  18.370  0.00  0.00    +0.000 C 
BRANCH  24  25
ATOM     25  N   UNL     1       2.973   4.875  18.972  0.00  0.00    +0.000 N 
ATOM     26  C   UNL     1       2.401   6.012  19.809  0.00  0.00    +0.000 C 
ATOM     27  C   UNL     1       1.955   4.502  17.892  0.00  0.00    +0.000 C 
ATOM     28  C   UNL     1       3.167   3.655  19.873  0.00  0.00    +0.000 C 
ENDBRANCH  24  25
ENDBRANCH  21  24
ENDBRANCH  20  21
ENDBRANCH  18  20
ENDBRANCH  17  18
ENDBRANCH  16  17
ENDBRANCH  15  16
ENDBRANCH   1  15
TORSDOF 21
ENDMDL
