MODEL 1
REMARK VINA RESULT:      -8.3      0.000      0.000
REMARK  Name = 
REMARK  13 active torsions:
REMARK  status: ('A' for Active; 'I' for Inactive)
REMARK    1  A    between atoms: C_1  and  N_2
REMARK    2  A    between atoms: N_2  and  C_3
REMARK    3  A    between atoms: N_2  and  C_4
REMARK    4  A    between atoms: N_7  and  C_8
REMARK    5  A    between atoms: C_8  and  C_9
REMARK    6  A    between atoms: C_9  and  C_10
REMARK    7  A    between atoms: C_10  and  C_11
REMARK    8  A    between atoms: C_11  and  O_12
REMARK    9  A    between atoms: O_12  and  C_13
REMARK   10  A    between atoms: C_16  and  C_17
REMARK   11  A    between atoms: N_19  and  C_20
REMARK   12  A    between atoms: C_20  and  C_21
REMARK   13  A    between atoms: C_21  and  C_22
REMARK                            x       y       z     vdW  Elec       q    Type
REMARK                         _______ _______ _______ _____ _____    ______ ____
ROOT
ATOM      1  C   UNL     1       7.932   7.451  18.267  0.00  0.00    +0.000 A 
ATOM      2  C   UNL     1       6.995   7.599  17.250  0.00  0.00    +0.000 A 
ATOM      3  C   UNL     1       6.119   6.532  16.922  0.00  0.00    +0.000 A 
ATOM      4  C   UNL     1       6.146   5.288  17.592  0.00  0.00    +0.000 A 
ATOM      5  C   UNL     1       7.096   5.153  18.609  0.00  0.00    +0.000 A 
ATOM      6  C   UNL     1       7.979   6.217  18.930  0.00  0.00    +0.000 A 
ENDROOT
BRANCH   4   7
ATOM      7  C   UNL     1       5.160   4.197  17.154  0.00  0.00    +0.000 C 
ATOM      8  O   UNL     1       4.833   4.141  15.975  0.00  0.00    +0.000 OA
ATOM      9  N   UNL     1       4.630   3.321  18.104  0.00  0.00    +0.000 N 
ATOM     10  H   UNL     1       4.780   3.536  19.077  0.00  0.00    +0.000 HD
BRANCH   9  11
ATOM     11  C   UNL     1       3.467   2.431  17.831  0.00  0.00    +0.000 C 
BRANCH  11  12
ATOM     12  C   UNL     1       2.068   2.914  18.288  0.00  0.00    +0.000 C 
BRANCH  12  13
ATOM     13  C   UNL     1       2.101   4.112  19.230  0.00  0.00    +0.000 A 
ATOM     14  C   UNL     1       1.838   3.958  20.584  0.00  0.00    +0.000 A 
ATOM     15  N   UNL     1       2.218   5.118  21.192  0.00  0.00    +0.000 N 
ATOM     16  C   UNL     1       2.007   6.128  20.288  0.00  0.00    +0.000 A 
ATOM     17  C   UNL     1       1.687   7.471  20.500  0.00  0.00    +0.000 A 
ATOM     18  C   UNL     1       1.764   8.314  19.399  0.00  0.00    +0.000 A 
ATOM     19  C   UNL     1       2.290   7.839  18.197  0.00  0.00    +0.000 A 
ATOM     20  C   UNL     1       2.570   6.464  18.002  0.00  0.00    +0.000 A 
ATOM     21  C   UNL     1       2.285   5.551  19.043  0.00  0.00    +0.000 A 
ATOM     22  H   UNL     1       2.979   5.158  21.857  0.00  0.00    +0.000 HD
ENDBRANCH  12  13
ENDBRANCH  11  12
ENDBRANCH   9  11
ENDBRANCH   4   7
BRANCH   1  23
ATOM     23  O   UNL     1       8.874   8.376  18.652  0.00  0.00    +0.000 OA
BRANCH  23  24
ATOM     24  C   UNL     1       8.639   9.757  18.346  0.00  0.00    +0.000 C 
BRANCH  24  25
ATOM     25  C   UNL     1       9.353  10.674  19.367  0.00  0.00    +0.000 C 
BRANCH  25  26
ATOM     26  C   UNL     1      10.734  11.209  18.954  0.00  0.00    +0.000 C 
BRANCH  26  27
ATOM     27  C   UNL     1      10.692  12.102  17.723  0.00  0.00    +0.000 C 
BRANCH  27  31
ATOM     28  C   UNL     1      10.514  16.298  18.519  0.00  0.00    +0.000 A 
ATOM     29  C   UNL     1      11.692  15.574  18.642  0.00  0.00    +0.000 A 
ATOM     30  C   UNL     1      11.696  14.196  18.445  0.00  0.00    +0.000 A 
ATOM     31  N   UNL     1      10.599  13.526  18.110  0.00  0.00    +0.000 N 
ATOM     32  C   UNL     1       9.416  14.176  18.017  0.00  0.00    +0.000 A 
ATOM     33  C   UNL     1       9.371  15.561  18.229  0.00  0.00    +0.000 A 
BRANCH  28  35
ATOM     34  C   UNL     1      10.411  18.526  17.462  0.00  0.00    +0.000 C 
ATOM     35  N   UNL     1      10.498  17.685  18.662  0.00  0.00    +0.000 N 
ATOM     36  C   UNL     1      10.085  18.314  19.917  0.00  0.00    +0.000 C 
ENDBRANCH  28  35
ENDBRANCH  27  31
ENDBRANCH  26  27
ENDBRANCH  25  26
ENDBRANCH  24  25
ENDBRANCH  23  24
ENDBRANCH   1  23
TORSDOF 11
ENDMDL
MODEL 2
REMARK VINA RESULT:      -8.1      6.331     10.259
REMARK  Name = 
REMARK  13 active torsions:
REMARK  status: ('A' for Active; 'I' for Inactive)
REMARK    1  A    between atoms: C_1  and  N_2
REMARK    2  A    between atoms: N_2  and  C_3
REMARK    3  A    between atoms: N_2  and  C_4
REMARK    4  A    between atoms: N_7  and  C_8
REMARK    5  A    between atoms: C_8  and  C_9
REMARK    6  A    between atoms: C_9  and  C_10
REMARK    7  A    between atoms: C_10  and  C_11
REMARK    8  A    between atoms: C_11  and  O_12
REMARK    9  A    between atoms: O_12  and  C_13
REMARK   10  A    between atoms: C_16  and  C_17
REMARK   11  A    between atoms: N_19  and  C_20
REMARK   12  A    between atoms: C_20  and  C_21
REMARK   13  A    between atoms: C_21  and  C_22
REMARK                            x       y       z     vdW  Elec       q    Type
REMARK                         _______ _______ _______ _____ _____    ______ ____
ROOT
ATOM      1  C   UNL     1       2.594   7.475  18.603  0.00  0.00    +0.000 A 
ATOM      2  C   UNL     1       2.029   8.717  18.334  0.00  0.00    +0.000 A 
ATOM      3  C   UNL     1       1.213   9.357  19.301  0.00  0.00    +0.000 A 
ATOM      4  C   UNL     1       0.932   8.787  20.563  0.00  0.00    +0.000 A 
ATOM      5  C   UNL     1       1.504   7.536  20.818  0.00  0.00    +0.000 A 
ATOM      6  C   UNL     1       2.312   6.891  19.846  0.00  0.00    +0.000 A 
ENDROOT
BRANCH   4   7
ATOM      7  C   UNL     1       0.030   9.559  21.535  0.00  0.00    +0.000 C 
ATOM      8  O   UNL     1      -0.589   8.931  22.385  0.00  0.00    +0.000 OA
ATOM      9  N   UNL     1      -0.098  10.944  21.407  0.00  0.00    +0.000 N 
ATOM     10  H   UNL     1       0.274  11.377  20.577  0.00  0.00    +0.000 HD
BRANCH   9  11
ATOM     11  C   UNL     1      -1.153  11.731  22.104  0.00  0.00    +0.000 C 
BRANCH  11  12
ATOM     12  C   UNL     1      -1.771  12.935  21.349  0.00  0.00    +0.000 C 
BRANCH  12  13
ATOM     13  C   UNL     1      -2.708  12.541  20.214  0.00  0.00    +0.000 A 
ATOM     14  C   UNL     1      -4.065  12.825  20.283  0.00  0.00    +0.000 A 
ATOM     15  N   UNL     1      -4.573  12.619  19.034  0.00  0.00    +0.000 N 
ATOM     16  C   UNL     1      -3.837  11.611  18.467  0.00  0.00    +0.000 A 
ATOM     17  C   UNL     1      -4.207  10.651  17.521  0.00  0.00    +0.000 A 
ATOM     18  C   UNL     1      -3.183   9.901  16.959  0.00  0.00    +0.000 A 
ATOM     19  C   UNL     1      -1.854  10.226  17.230  0.00  0.00    +0.000 A 
ATOM     20  C   UNL     1      -1.511  11.178  18.222  0.00  0.00    +0.000 A 
ATOM     21  C   UNL     1      -2.542  11.794  18.968  0.00  0.00    +0.000 A 
ATOM     22  H   UNL     1      -4.956  13.370  18.474  0.00  0.00    +0.000 HD
ENDBRANCH  12  13
ENDBRANCH  11  12
ENDBRANCH   9  11
ENDBRANCH   4   7
BRANCH   1  23
ATOM     23  O   UNL     1       3.356   6.720  17.743  0.00  0.00    +0.000 OA
BRANCH  23  24
ATOM     24  C   UNL     1       4.073   7.390  16.698  0.00  0.00    +0.000 C 
BRANCH  24  25
ATOM     25  C   UNL     1       5.231   6.509  16.175  0.00  0.00    +0.000 C 
BRANCH  25  26
ATOM     26  C   UNL     1       6.316   6.130  17.197  0.00  0.00    +0.000 C 
BRANCH  26  27
ATOM     27  C   UNL     1       6.538   4.629  17.311  0.00  0.00    +0.000 C 
BRANCH  27  31
ATOM     28  C   UNL     1       2.984   3.028  19.069  0.00  0.00    +0.000 A 
ATOM     29  C   UNL     1       3.955   3.673  19.824  0.00  0.00    +0.000 A 
ATOM     30  C   UNL     1       5.132   4.116  19.229  0.00  0.00    +0.000 A 
ATOM     31  N   UNL     1       5.367   3.971  17.930  0.00  0.00    +0.000 N 
ATOM     32  C   UNL     1       4.473   3.315  17.154  0.00  0.00    +0.000 A 
ATOM     33  C   UNL     1       3.284   2.837  17.725  0.00  0.00    +0.000 A 
BRANCH  28  35
ATOM     34  C   UNL     1       1.546   2.854  21.066  0.00  0.00    +0.000 C 
ATOM     35  N   UNL     1       1.777   2.622  19.635  0.00  0.00    +0.000 N 
ATOM     36  C   UNL     1       0.580   2.431  18.815  0.00  0.00    +0.000 C 
ENDBRANCH  28  35
ENDBRANCH  27  31
ENDBRANCH  26  27
ENDBRANCH  25  26
ENDBRANCH  24  25
ENDBRANCH  23  24
ENDBRANCH   1  23
TORSDOF 11
ENDMDL
MODEL 3
REMARK VINA RESULT:      -7.9      2.614      9.272
REMARK  Name = 
REMARK  13 active torsions:
REMARK  status: ('A' for Active; 'I' for Inactive)
REMARK    1  A    between atoms: C_1  and  N_2
REMARK    2  A    between atoms: N_2  and  C_3
REMARK    3  A    between atoms: N_2  and  C_4
REMARK    4  A    between atoms: N_7  and  C_8
REMARK    5  A    between atoms: C_8  and  C_9
REMARK    6  A    between atoms: C_9  and  C_10
REMARK    7  A    between atoms: C_10  and  C_11
REMARK    8  A    between atoms: C_11  and  O_12
REMARK    9  A    between atoms: O_12  and  C_13
REMARK   10  A    between atoms: C_16  and  C_17
REMARK   11  A    between atoms: N_19  and  C_20
REMARK   12  A    between atoms: C_20  and  C_21
REMARK   13  A    between atoms: C_21  and  C_22
REMARK                            x       y       z     vdW  Elec       q    Type
REMARK                         _______ _______ _______ _____ _____    ______ ____
ROOT
ATOM      1  C   UNL     1       3.977   3.386  18.562  0.00  0.00    +0.000 A 
ATOM      2  C   UNL     1       5.023   3.802  19.378  0.00  0.00    +0.000 A 
ATOM      3  C   UNL     1       5.937   4.788  18.926  0.00  0.00    +0.000 A 
ATOM      4  C   UNL     1       5.843   5.390  17.651  0.00  0.00    +0.000 A 
ATOM      5  C   UNL     1       4.789   4.959  16.839  0.00  0.00    +0.000 A 
ATOM      6  C   UNL     1       3.881   3.965  17.288  0.00  0.00    +0.000 A 
ENDROOT
BRANCH   4   7
ATOM      7  C   UNL     1       6.890   6.440  17.256  0.00  0.00    +0.000 C 
ATOM      8  O   UNL     1       7.442   6.337  16.167  0.00  0.00    +0.000 OA
ATOM      9  N   UNL     1       7.218   7.461  18.151  0.00  0.00    +0.000 N 
ATOM     10  H   UNL     1       6.881   7.383  19.097  0.00  0.00    +0.000 HD
BRANCH   9  11
ATOM     11  C   UNL     1       8.407   8.342  17.979  0.00  0.00    +0.000 C 
BRANCH  11  12
ATOM     12  C   UNL     1       8.183   9.874  18.048  0.00  0.00    +0.000 C 
BRANCH  12  13
ATOM     13  C   UNL     1       9.221  10.616  18.881  0.00  0.00    +0.000 A 
ATOM     14  C   UNL     1       9.095  10.701  20.261  0.00  0.00    +0.000 A 
ATOM     15  N   UNL     1      10.288  11.160  20.736  0.00  0.00    +0.000 N 
ATOM     16  C   UNL     1      10.809  11.986  19.772  0.00  0.00    +0.000 A 
ATOM     17  C   UNL     1      11.642  13.100  19.899  0.00  0.00    +0.000 A 
ATOM     18  C   UNL     1      12.198  13.601  18.729  0.00  0.00    +0.000 A 
ATOM     19  C   UNL     1      12.036  12.906  17.530  0.00  0.00    +0.000 A 
ATOM     20  C   UNL     1      11.154  11.802  17.426  0.00  0.00    +0.000 A 
ATOM     21  C   UNL     1      10.404  11.413  18.560  0.00  0.00    +0.000 A 
ATOM     22  H   UNL     1      10.888  10.600  21.328  0.00  0.00    +0.000 HD
ENDBRANCH  12  13
ENDBRANCH  11  12
ENDBRANCH   9  11
ENDBRANCH   4   7
BRANCH   1  23
ATOM     23  O   UNL     1       3.055   2.407  18.848  0.00  0.00    +0.000 OA
BRANCH  23  24
ATOM     24  C   UNL     1       1.811   2.795  19.445  0.00  0.00    +0.000 C 
BRANCH  24  25
ATOM     25  C   UNL     1       2.038   3.864  20.539  0.00  0.00    +0.000 C 
BRANCH  25  26
ATOM     26  C   UNL     1       1.446   5.257  20.266  0.00  0.00    +0.000 C 
BRANCH  26  27
ATOM     27  C   UNL     1       2.502   6.320  20.002  0.00  0.00    +0.000 C 
BRANCH  27  31
ATOM     28  C   UNL     1       0.982  10.283  19.488  0.00  0.00    +0.000 A 
ATOM     29  C   UNL     1       0.909   9.617  20.705  0.00  0.00    +0.000 A 
ATOM     30  C   UNL     1       1.348   8.301  20.816  0.00  0.00    +0.000 A 
ATOM     31  N   UNL     1       1.873   7.642  19.789  0.00  0.00    +0.000 N 
ATOM     32  C   UNL     1       1.931   8.228  18.571  0.00  0.00    +0.000 A 
ATOM     33  C   UNL     1       1.478   9.547  18.418  0.00  0.00    +0.000 A 
BRANCH  28  35
ATOM     34  C   UNL     1      -0.403  12.157  20.300  0.00  0.00    +0.000 C 
ATOM     35  N   UNL     1       0.594  11.617  19.368  0.00  0.00    +0.000 N 
ATOM     36  C   UNL     1       1.453  12.600  18.707  0.00  0.00    +0.000 C 
ENDBRANCH  28  35
ENDBRANCH  27  31
ENDBRANCH  26  27
ENDBRANCH  25  26
ENDBRANCH  24  25
ENDBRANCH  23  24
ENDBRANCH   1  23
TORSDOF 11
ENDMDL
MODEL 4
REMARK VINA RESULT:      -7.7      6.234     10.082
REMARK  Name = 
REMARK  13 active torsions:
REMARK  status: ('A' for Active; 'I' for Inactive)
REMARK    1  A    between atoms: C_1  and  N_2
REMARK    2  A    between atoms: N_2  and  C_3
REMARK    3  A    between atoms: N_2  and  C_4
REMARK    4  A    between atoms: N_7  and  C_8
REMARK    5  A    between atoms: C_8  and  C_9
REMARK    6  A    between atoms: C_9  and  C_10
REMARK    7  A    between atoms: C_10  and  C_11
REMARK    8  A    between atoms: C_11  and  O_12
REMARK    9  A    between atoms: O_12  and  C_13
REMARK   10  A    between atoms: C_16  and  C_17
REMARK   11  A    between atoms: N_19  and  C_20
REMARK   12  A    between atoms: C_20  and  C_21
REMARK   13  A    between atoms: C_21  and  C_22
REMARK                            x       y       z     vdW  Elec       q    Type
REMARK                         _______ _______ _______ _____ _____    ______ ____
ROOT
ATOM      1  C   UNL     1       2.787   7.369  18.227  0.00  0.00    +0.000 A 
ATOM      2  C   UNL     1       2.579   6.913  19.524  0.00  0.00    +0.000 A 
ATOM      3  C   UNL     1       1.761   7.648  20.420  0.00  0.00    +0.000 A 
ATOM      4  C   UNL     1       1.126   8.858  20.059  0.00  0.00    +0.000 A 
ATOM      5  C   UNL     1       1.348   9.307  18.752  0.00  0.00    +0.000 A 
ATOM      6  C   UNL     1       2.174   8.576  17.859  0.00  0.00    +0.000 A 
ENDROOT
BRANCH   4   7
ATOM      7  C   UNL     1       0.269   9.581  21.107  0.00  0.00    +0.000 C 
ATOM      8  O   UNL     1      -0.501   8.919  21.792  0.00  0.00    +0.000 OA
ATOM      9  N   UNL     1       0.354  10.969  21.231  0.00  0.00    +0.000 N 
ATOM     10  H   UNL     1       0.851  11.477  20.517  0.00  0.00    +0.000 HD
BRANCH   9  11
ATOM     11  C   UNL     1      -0.629  11.777  22.005  0.00  0.00    +0.000 C 
BRANCH  11  12
ATOM     12  C   UNL     1      -1.776  12.462  21.218  0.00  0.00    +0.000 C 
BRANCH  12  13
ATOM     13  C   UNL     1      -1.661  12.320  19.705  0.00  0.00    +0.000 A 
ATOM     14  C   UNL     1      -1.163  13.359  18.930  0.00  0.00    +0.000 A 
ATOM     15  N   UNL     1      -0.919  12.842  17.692  0.00  0.00    +0.000 N 
ATOM     16  C   UNL     1      -1.850  11.856  17.482  0.00  0.00    +0.000 A 
ATOM     17  C   UNL     1      -2.427  11.404  16.293  0.00  0.00    +0.000 A 
ATOM     18  C   UNL     1      -3.168  10.232  16.364  0.00  0.00    +0.000 A 
ATOM     19  C   UNL     1      -3.181   9.489  17.544  0.00  0.00    +0.000 A 
ATOM     20  C   UNL     1      -2.619   9.993  18.744  0.00  0.00    +0.000 A 
ATOM     21  C   UNL     1      -2.054  11.288  18.746  0.00  0.00    +0.000 A 
ATOM     22  H   UNL     1       0.014  12.774  17.306  0.00  0.00    +0.000 HD
ENDBRANCH  12  13
ENDBRANCH  11  12
ENDBRANCH   9  11
ENDBRANCH   4   7
BRANCH   1  23
ATOM     23  O   UNL     1       3.592   6.790  17.276  0.00  0.00    +0.000 OA
BRANCH  23  24
ATOM     24  C   UNL     1       4.846   7.415  16.970  0.00  0.00    +0.000 C 
BRANCH  24  25
ATOM     25  C   UNL     1       5.904   6.359  16.577  0.00  0.00    +0.000 C 
BRANCH  25  26
ATOM     26  C   UNL     1       5.469   5.310  15.540  0.00  0.00    +0.000 C 
BRANCH  26  27
ATOM     27  C   UNL     1       5.631   3.877  16.027  0.00  0.00    +0.000 C 
BRANCH  27  31
ATOM     28  C   UNL     1       2.854   3.379  19.239  0.00  0.00    +0.000 A 
ATOM     29  C   UNL     1       4.215   3.538  19.459  0.00  0.00    +0.000 A 
ATOM     30  C   UNL     1       5.098   3.624  18.387  0.00  0.00    +0.000 A 
ATOM     31  N   UNL     1       4.684   3.587  17.125  0.00  0.00    +0.000 N 
ATOM     32  C   UNL     1       3.373   3.393  16.853  0.00  0.00    +0.000 A 
ATOM     33  C   UNL     1       2.458   3.282  17.910  0.00  0.00    +0.000 A 
BRANCH  28  35
ATOM     34  C   UNL     1       2.368   3.836  21.615  0.00  0.00    +0.000 C 
ATOM     35  N   UNL     1       1.948   3.342  20.298  0.00  0.00    +0.000 N 
ATOM     36  C   UNL     1       0.505   3.296  20.061  0.00  0.00    +0.000 C 
ENDBRANCH  28  35
ENDBRANCH  27  31
ENDBRANCH  26  27
ENDBRANCH  25  26
ENDBRANCH  24  25
ENDBRANCH  23  24
ENDBRANCH   1  23
TORSDOF 11
ENDMDL
MODEL 5
REMARK VINA RESULT:      -7.7      6.531     10.362
REMARK  Name = 
REMARK  13 active torsions:
REMARK  status: ('A' for Active; 'I' for Inactive)
REMARK    1  A    between atoms: C_1  and  N_2
REMARK    2  A    between atoms: N_2  and  C_3
REMARK    3  A    between atoms: N_2  and  C_4
REMARK    4  A    between atoms: N_7  and  C_8
REMARK    5  A    between atoms: C_8  and  C_9
REMARK    6  A    between atoms: C_9  and  C_10
REMARK    7  A    between atoms: C_10  and  C_11
REMARK    8  A    between atoms: C_11  and  O_12
REMARK    9  A    between atoms: O_12  and  C_13
REMARK   10  A    between atoms: C_16  and  C_17
REMARK   11  A    between atoms: N_19  and  C_20
REMARK   12  A    between atoms: C_20  and  C_21
REMARK   13  A    between atoms: C_21  and  C_22
REMARK                            x       y       z     vdW  Elec       q    Type
REMARK                         _______ _______ _______ _____ _____    ______ ____
ROOT
ATOM      1  C   UNL     1       1.004   9.019  19.982  0.00  0.00    +0.000 A 
ATOM      2  C   UNL     1       1.557   7.819  20.414  0.00  0.00    +0.000 A 
ATOM      3  C   UNL     1       2.516   7.143  19.617  0.00  0.00    +0.000 A 
ATOM      4  C   UNL     1       2.955   7.635  18.367  0.00  0.00    +0.000 A 
ATOM      5  C   UNL     1       2.388   8.842  17.943  0.00  0.00    +0.000 A 
ATOM      6  C   UNL     1       1.421   9.512  18.737  0.00  0.00    +0.000 A 
ENDROOT
BRANCH   4   7
ATOM      7  C   UNL     1       3.990   6.821  17.579  0.00  0.00    +0.000 C 
ATOM      8  O   UNL     1       4.106   7.026  16.377  0.00  0.00    +0.000 OA
ATOM      9  N   UNL     1       4.746   5.845  18.233  0.00  0.00    +0.000 N 
ATOM     10  H   UNL     1       4.473   5.586  19.167  0.00  0.00    +0.000 HD
BRANCH   9  11
ATOM     11  C   UNL     1       5.554   4.824  17.510  0.00  0.00    +0.000 C 
BRANCH  11  12
ATOM     12  C   UNL     1       4.867   3.481  17.156  0.00  0.00    +0.000 C 
BRANCH  12  13
ATOM     13  C   UNL     1       3.512   3.281  17.825  0.00  0.00    +0.000 A 
ATOM     14  C   UNL     1       2.336   3.549  17.138  0.00  0.00    +0.000 A 
ATOM     15  N   UNL     1       1.321   3.015  17.876  0.00  0.00    +0.000 N 
ATOM     16  C   UNL     1       1.698   3.100  19.192  0.00  0.00    +0.000 A 
ATOM     17  C   UNL     1       0.919   3.239  20.343  0.00  0.00    +0.000 A 
ATOM     18  C   UNL     1       1.564   3.064  21.560  0.00  0.00    +0.000 A 
ATOM     19  C   UNL     1       2.885   2.616  21.587  0.00  0.00    +0.000 A 
ATOM     20  C   UNL     1       3.660   2.521  20.405  0.00  0.00    +0.000 A 
ATOM     21  C   UNL     1       3.086   2.912  19.174  0.00  0.00    +0.000 A 
ATOM     22  H   UNL     1       0.752   2.248  17.541  0.00  0.00    +0.000 HD
ENDBRANCH  12  13
ENDBRANCH  11  12
ENDBRANCH   9  11
ENDBRANCH   4   7
BRANCH   1  23
ATOM     23  O   UNL     1       0.032   9.750  20.622  0.00  0.00    +0.000 OA
BRANCH  23  24
ATOM     24  C   UNL     1      -0.369   9.347  21.938  0.00  0.00    +0.000 C 
BRANCH  24  25
ATOM     25  C   UNL     1      -0.899  10.555  22.744  0.00  0.00    +0.000 C 
BRANCH  25  26
ATOM     26  C   UNL     1      -0.758  11.934  22.079  0.00  0.00    +0.000 C 
BRANCH  26  27
ATOM     27  C   UNL     1      -1.389  13.060  22.886  0.00  0.00    +0.000 C 
BRANCH  27  31
ATOM     28  C   UNL     1      -5.626  12.773  23.380  0.00  0.00    +0.000 A 
ATOM     29  C   UNL     1      -4.753  12.718  24.458  0.00  0.00    +0.000 A 
ATOM     30  C   UNL     1      -3.377  12.741  24.252  0.00  0.00    +0.000 A 
ATOM     31  N   UNL     1      -2.844  12.843  23.039  0.00  0.00    +0.000 N 
ATOM     32  C   UNL     1      -3.648  12.860  21.951  0.00  0.00    +0.000 A 
ATOM     33  C   UNL     1      -5.039  12.817  22.121  0.00  0.00    +0.000 A 
BRANCH  28  35
ATOM     34  C   UNL     1      -7.619  13.986  24.186  0.00  0.00    +0.000 C 
ATOM     35  N   UNL     1      -7.008  12.803  23.568  0.00  0.00    +0.000 N 
ATOM     36  C   UNL     1      -7.900  11.963  22.768  0.00  0.00    +0.000 C 
ENDBRANCH  28  35
ENDBRANCH  27  31
ENDBRANCH  26  27
ENDBRANCH  25  26
ENDBRANCH  24  25
ENDBRANCH  23  24
ENDBRANCH   1  23
TORSDOF 11
ENDMDL
MODEL 6
REMARK VINA RESULT:      -7.7      6.098     10.497
REMARK  Name = 
REMARK  13 active torsions:
REMARK  status: ('A' for Active; 'I' for Inactive)
REMARK    1  A    between atoms: C_1  and  N_2
REMARK    2  A    between atoms: N_2  and  C_3
REMARK    3  A    between atoms: N_2  and  C_4
REMARK    4  A    between atoms: N_7  and  C_8
REMARK    5  A    between atoms: C_8  and  C_9
REMARK    6  A    between atoms: C_9  and  C_10
REMARK    7  A    between atoms: C_10  and  C_11
REMARK    8  A    between atoms: C_11  and  O_12
REMARK    9  A    between atoms: O_12  and  C_13
REMARK   10  A    between atoms: C_16  and  C_17
REMARK   11  A    between atoms: N_19  and  C_20
REMARK   12  A    between atoms: C_20  and  C_21
REMARK   13  A    between atoms: C_21  and  C_22
REMARK                            x       y       z     vdW  Elec       q    Type
REMARK                         _______ _______ _______ _____ _____    ______ ____
ROOT
ATOM      1  C   UNL     1       2.248   7.014  19.772  0.00  0.00    +0.000 A 
ATOM      2  C   UNL     1       2.331   7.599  18.513  0.00  0.00    +0.000 A 
ATOM      3  C   UNL     1       1.774   8.882  18.282  0.00  0.00    +0.000 A 
ATOM      4  C   UNL     1       1.117   9.624  19.290  0.00  0.00    +0.000 A 
ATOM      5  C   UNL     1       1.037   9.021  20.550  0.00  0.00    +0.000 A 
ATOM      6  C   UNL     1       1.587   7.733  20.778  0.00  0.00    +0.000 A 
ENDROOT
BRANCH   4   7
ATOM      7  C   UNL     1       0.540  11.000  18.932  0.00  0.00    +0.000 C 
ATOM      8  O   UNL     1       1.304  11.870  18.532  0.00  0.00    +0.000 OA
ATOM      9  N   UNL     1      -0.824  11.245  19.105  0.00  0.00    +0.000 N 
ATOM     10  H   UNL     1      -1.363  10.566  19.617  0.00  0.00    +0.000 HD
BRANCH   9  11
ATOM     11  C   UNL     1      -1.416  12.611  19.062  0.00  0.00    +0.000 C 
BRANCH  11  12
ATOM     12  C   UNL     1      -1.806  13.270  20.409  0.00  0.00    +0.000 C 
BRANCH  12  13
ATOM     13  C   UNL     1      -3.225  12.958  20.866  0.00  0.00    +0.000 A 
ATOM     14  C   UNL     1      -4.287  13.013  19.973  0.00  0.00    +0.000 A 
ATOM     15  N   UNL     1      -5.348  12.419  20.589  0.00  0.00    +0.000 N 
ATOM     16  C   UNL     1      -5.217  12.665  21.932  0.00  0.00    +0.000 A 
ATOM     17  C   UNL     1      -6.196  12.802  22.920  0.00  0.00    +0.000 A 
ATOM     18  C   UNL     1      -5.757  12.817  24.237  0.00  0.00    +0.000 A 
ATOM     19  C   UNL     1      -4.420  12.546  24.526  0.00  0.00    +0.000 A 
ATOM     20  C   UNL     1      -3.444  12.449  23.502  0.00  0.00    +0.000 A 
ATOM     21  C   UNL     1      -3.836  12.655  22.160  0.00  0.00    +0.000 A 
ATOM     22  H   UNL     1      -5.762  11.559  20.250  0.00  0.00    +0.000 HD
ENDBRANCH  12  13
ENDBRANCH  11  12
ENDBRANCH   9  11
ENDBRANCH   4   7
BRANCH   1  23
ATOM     23  O   UNL     1       2.694   5.761  20.123  0.00  0.00    +0.000 OA
BRANCH  23  24
ATOM     24  C   UNL     1       1.985   5.045  21.142  0.00  0.00    +0.000 C 
BRANCH  24  25
ATOM     25  C   UNL     1       1.172   3.881  20.530  0.00  0.00    +0.000 C 
BRANCH  25  26
ATOM     26  C   UNL     1       1.941   2.576  20.264  0.00  0.00    +0.000 C 
BRANCH  26  27
ATOM     27  C   UNL     1       2.203   2.321  18.786  0.00  0.00    +0.000 C 
BRANCH  27  31
ATOM     28  C   UNL     1       5.563   4.472  17.252  0.00  0.00    +0.000 A 
ATOM     29  C   UNL     1       5.566   3.907  18.521  0.00  0.00    +0.000 A 
ATOM     30  C   UNL     1       4.428   3.278  19.014  0.00  0.00    +0.000 A 
ATOM     31  N   UNL     1       3.314   3.165  18.298  0.00  0.00    +0.000 N 
ATOM     32  C   UNL     1       3.243   3.732  17.071  0.00  0.00    +0.000 A 
ATOM     33  C   UNL     1       4.366   4.393  16.551  0.00  0.00    +0.000 A 
BRANCH  28  35
ATOM     34  C   UNL     1       7.067   4.794  15.322  0.00  0.00    +0.000 C 
ATOM     35  N   UNL     1       6.709   5.063  16.720  0.00  0.00    +0.000 N 
ATOM     36  C   UNL     1       7.280   6.275  17.306  0.00  0.00    +0.000 C 
ENDBRANCH  28  35
ENDBRANCH  27  31
ENDBRANCH  26  27
ENDBRANCH  25  26
ENDBRANCH  24  25
ENDBRANCH  23  24
ENDBRANCH   1  23
TORSDOF 11
ENDMDL
MODEL 7
REMARK VINA RESULT:      -7.6      6.042     10.178
REMARK  Name = 
REMARK  13 active torsions:
REMARK  status: ('A' for Active; 'I' for Inactive)
REMARK    1  A    between atoms: C_1  and  N_2
REMARK    2  A    between atoms: N_2  and  C_3
REMARK    3  A    between atoms: N_2  and  C_4
REMARK    4  A    between atoms: N_7  and  C_8
REMARK    5  A    between atoms: C_8  and  C_9
REMARK    6  A    between atoms: C_9  and  C_10
REMARK    7  A    between atoms: C_10  and  C_11
REMARK    8  A    between atoms: C_11  and  O_12
REMARK    9  A    between atoms: O_12  and  C_13
REMARK   10  A    between atoms: C_16  and  C_17
REMARK   11  A    between atoms: N_19  and  C_20
REMARK   12  A    between atoms: C_20  and  C_21
REMARK   13  A    between atoms: C_21  and  C_22
REMARK                            x       y       z     vdW  Elec       q    Type
REMARK                         _______ _______ _______ _____ _____    ______ ____
ROOT
ATOM      1  C   UNL     1       2.240   6.025  20.413  0.00  0.00    +0.000 A 
ATOM      2  C   UNL     1       2.680   6.450  19.164  0.00  0.00    +0.000 A 
ATOM      3  C   UNL     1       2.302   7.723  18.666  0.00  0.00    +0.000 A 
ATOM      4  C   UNL     1       1.475   8.613  19.389  0.00  0.00    +0.000 A 
ATOM      5  C   UNL     1       1.037   8.170  20.642  0.00  0.00    +0.000 A 
ATOM      6  C   UNL     1       1.408   6.893  21.136  0.00  0.00    +0.000 A 
ENDROOT
BRANCH   4   7
ATOM      7  C   UNL     1       1.118   9.963  18.755  0.00  0.00    +0.000 C 
ATOM      8  O   UNL     1       1.927  10.490  18.001  0.00  0.00    +0.000 OA
ATOM      9  N   UNL     1      -0.094  10.579  19.076  0.00  0.00    +0.000 N 
ATOM     10  H   UNL     1      -0.626  10.200  19.843  0.00  0.00    +0.000 HD
BRANCH   9  11
ATOM     11  C   UNL     1      -0.398  11.999  18.744  0.00  0.00    +0.000 C 
BRANCH  11  12
ATOM     12  C   UNL     1      -1.698  12.612  19.324  0.00  0.00    +0.000 C 
BRANCH  12  13
ATOM     13  C   UNL     1      -2.976  12.004  18.759  0.00  0.00    +0.000 A 
ATOM     14  C   UNL     1      -2.974  11.361  17.529  0.00  0.00    +0.000 A 
ATOM     15  N   UNL     1      -4.158  10.692  17.433  0.00  0.00    +0.000 N 
ATOM     16  C   UNL     1      -5.087  11.428  18.123  0.00  0.00    +0.000 A 
ATOM     17  C   UNL     1      -6.464  11.553  17.921  0.00  0.00    +0.000 A 
ATOM     18  C   UNL     1      -7.187  12.188  18.922  0.00  0.00    +0.000 A 
ATOM     19  C   UNL     1      -6.562  12.525  20.123  0.00  0.00    +0.000 A 
ATOM     20  C   UNL     1      -5.158  12.421  20.283  0.00  0.00    +0.000 A 
ATOM     21  C   UNL     1      -4.373  11.986  19.191  0.00  0.00    +0.000 A 
ATOM     22  H   UNL     1      -4.209   9.682  17.396  0.00  0.00    +0.000 HD
ENDBRANCH  12  13
ENDBRANCH  11  12
ENDBRANCH   9  11
ENDBRANCH   4   7
BRANCH   1  23
ATOM     23  O   UNL     1       2.483   4.804  20.994  0.00  0.00    +0.000 OA
BRANCH  23  24
ATOM     24  C   UNL     1       1.432   3.829  21.000  0.00  0.00    +0.000 C 
BRANCH  24  25
ATOM     25  C   UNL     1       0.838   3.654  19.583  0.00  0.00    +0.000 C 
BRANCH  25  26
ATOM     26  C   UNL     1       1.344   2.448  18.775  0.00  0.00    +0.000 C 
BRANCH  26  27
ATOM     27  C   UNL     1       2.784   2.070  19.093  0.00  0.00    +0.000 C 
BRANCH  27  31
ATOM     28  C   UNL     1       5.710   4.552  17.206  0.00  0.00    +0.000 A 
ATOM     29  C   UNL     1       5.786   4.214  18.551  0.00  0.00    +0.000 A 
ATOM     30  C   UNL     1       4.776   3.465  19.148  0.00  0.00    +0.000 A 
ATOM     31  N   UNL     1       3.726   3.022  18.465  0.00  0.00    +0.000 N 
ATOM     32  C   UNL     1       3.581   3.356  17.162  0.00  0.00    +0.000 A 
ATOM     33  C   UNL     1       4.570   4.128  16.534  0.00  0.00    +0.000 A 
BRANCH  28  35
ATOM     34  C   UNL     1       6.990   5.027  15.151  0.00  0.00    +0.000 C 
ATOM     35  N   UNL     1       6.735   5.258  16.578  0.00  0.00    +0.000 N 
ATOM     36  C   UNL     1       7.229   6.523  17.122  0.00  0.00    +0.000 C 
ENDBRANCH  28  35
ENDBRANCH  27  31
ENDBRANCH  26  27
ENDBRANCH  25  26
ENDBRANCH  24  25
ENDBRANCH  23  24
ENDBRANCH   1  23
TORSDOF 11
ENDMDL
MODEL 8
REMARK VINA RESULT:      -7.5      5.871     10.160
REMARK  Name = 
REMARK  13 active torsions:
REMARK  status: ('A' for Active; 'I' for Inactive)
REMARK    1  A    between atoms: C_1  and  N_2
REMARK    2  A    between atoms: N_2  and  C_3
REMARK    3  A    between atoms: N_2  and  C_4
REMARK    4  A    between atoms: N_7  and  C_8
REMARK    5  A    between atoms: C_8  and  C_9
REMARK    6  A    between atoms: C_9  and  C_10
REMARK    7  A    between atoms: C_10  and  C_11
REMARK    8  A    between atoms: C_11  and  O_12
REMARK    9  A    between atoms: O_12  and  C_13
REMARK   10  A    between atoms: C_16  and  C_17
REMARK   11  A    between atoms: N_19  and  C_20
REMARK   12  A    between atoms: C_20  and  C_21
REMARK   13  A    between atoms: C_21  and  C_22
REMARK                            x       y       z     vdW  Elec       q    Type
REMARK                         _______ _______ _______ _____ _____    ______ ____
ROOT
ATOM      1  C   UNL     1       2.605   8.240  18.114  0.00  0.00    +0.000 A 
ATOM      2  C   UNL     1       2.532   7.395  19.216  0.00  0.00    +0.000 A 
ATOM      3  C   UNL     1       1.655   7.691  20.290  0.00  0.00    +0.000 A 
ATOM      4  C   UNL     1       0.825   8.835  20.306  0.00  0.00    +0.000 A 
ATOM      5  C   UNL     1       0.912   9.679  19.193  0.00  0.00    +0.000 A 
ATOM      6  C   UNL     1       1.797   9.386  18.123  0.00  0.00    +0.000 A 
ENDROOT
BRANCH   4   7
ATOM      7  C   UNL     1      -0.082   9.069  21.522  0.00  0.00    +0.000 C 
ATOM      8  O   UNL     1      -0.881   8.195  21.834  0.00  0.00    +0.000 OA
ATOM      9  N   UNL     1      -0.007  10.277  22.219  0.00  0.00    +0.000 N 
ATOM     10  H   UNL     1       0.522  11.028  21.804  0.00  0.00    +0.000 HD
BRANCH   9  11
ATOM     11  C   UNL     1      -1.027  10.705  23.215  0.00  0.00    +0.000 C 
BRANCH  11  12
ATOM     12  C   UNL     1      -1.807  12.014  22.930  0.00  0.00    +0.000 C 
BRANCH  12  13
ATOM     13  C   UNL     1      -1.647  12.535  21.507  0.00  0.00    +0.000 A 
ATOM     14  C   UNL     1      -2.717  12.525  20.623  0.00  0.00    +0.000 A 
ATOM     15  N   UNL     1      -2.354  13.296  19.559  0.00  0.00    +0.000 N 
ATOM     16  C   UNL     1      -0.996  13.161  19.416  0.00  0.00    +0.000 A 
ATOM     17  C   UNL     1      -0.203  13.234  18.268  0.00  0.00    +0.000 A 
ATOM     18  C   UNL     1       1.171  13.290  18.461  0.00  0.00    +0.000 A 
ATOM     19  C   UNL     1       1.687  13.425  19.750  0.00  0.00    +0.000 A 
ATOM     20  C   UNL     1       0.860  13.309  20.895  0.00  0.00    +0.000 A 
ATOM     21  C   UNL     1      -0.515  13.027  20.724  0.00  0.00    +0.000 A 
ATOM     22  H   UNL     1      -2.823  14.163  19.332  0.00  0.00    +0.000 HD
ENDBRANCH  12  13
ENDBRANCH  11  12
ENDBRANCH   9  11
ENDBRANCH   4   7
BRANCH   1  23
ATOM     23  O   UNL     1       3.444   8.105  17.033  0.00  0.00    +0.000 OA
BRANCH  23  24
ATOM     24  C   UNL     1       4.004   6.814  16.761  0.00  0.00    +0.000 C 
BRANCH  24  25
ATOM     25  C   UNL     1       5.548   6.886  16.706  0.00  0.00    +0.000 C 
BRANCH  25  26
ATOM     26  C   UNL     1       6.276   5.601  16.280  0.00  0.00    +0.000 C 
BRANCH  26  27
ATOM     27  C   UNL     1       6.681   4.720  17.454  0.00  0.00    +0.000 C 
BRANCH  27  31
ATOM     28  C   UNL     1       3.082   3.096  19.095  0.00  0.00    +0.000 A 
ATOM     29  C   UNL     1       3.970   3.843  19.858  0.00  0.00    +0.000 A 
ATOM     30  C   UNL     1       5.166   4.293  19.309  0.00  0.00    +0.000 A 
ATOM     31  N   UNL     1       5.497   4.058  18.044  0.00  0.00    +0.000 N 
ATOM     32  C   UNL     1       4.688   3.301  17.266  0.00  0.00    +0.000 A 
ATOM     33  C   UNL     1       3.484   2.814  17.794  0.00  0.00    +0.000 A 
BRANCH  28  35
ATOM     34  C   UNL     1       1.591   2.845  21.045  0.00  0.00    +0.000 C 
ATOM     35  N   UNL     1       1.856   2.679  19.611  0.00  0.00    +0.000 N 
ATOM     36  C   UNL     1       0.679   2.542  18.753  0.00  0.00    +0.000 C 
ENDBRANCH  28  35
ENDBRANCH  27  31
ENDBRANCH  26  27
ENDBRANCH  25  26
ENDBRANCH  24  25
ENDBRANCH  23  24
ENDBRANCH   1  23
TORSDOF 11
ENDMDL
MODEL 9
REMARK VINA RESULT:      -7.4      4.095      6.640
REMARK  Name = 
REMARK  13 active torsions:
REMARK  status: ('A' for Active; 'I' for Inactive)
REMARK    1  A    between atoms: C_1  and  N_2
REMARK    2  A    between atoms: N_2  and  C_3
REMARK    3  A    between atoms: N_2  and  C_4
REMARK    4  A    between atoms: N_7  and  C_8
REMARK    5  A    between atoms: C_8  and  C_9
REMARK    6  A    between atoms: C_9  and  C_10
REMARK    7  A    between atoms: C_10  and  C_11
REMARK    8  A    between atoms: C_11  and  O_12
REMARK    9  A    between atoms: O_12  and  C_13
REMARK   10  A    between atoms: C_16  and  C_17
REMARK   11  A    between atoms: N_19  and  C_20
REMARK   12  A    between atoms: C_20  and  C_21
REMARK   13  A    between atoms: C_21  and  C_22
REMARK                            x       y       z     vdW  Elec       q    Type
REMARK                         _______ _______ _______ _____ _____    ______ ____
ROOT
ATOM      1  C   UNL     1       1.249   9.813  19.190  0.00  0.00    +0.000 A 
ATOM      2  C   UNL     1       1.768   9.208  18.051  0.00  0.00    +0.000 A 
ATOM      3  C   UNL     1       2.180   7.851  18.085  0.00  0.00    +0.000 A 
ATOM      4  C   UNL     1       2.092   7.053  19.248  0.00  0.00    +0.000 A 
ATOM      5  C   UNL     1       1.572   7.677  20.388  0.00  0.00    +0.000 A 
ATOM      6  C   UNL     1       1.169   9.037  20.356  0.00  0.00    +0.000 A 
ENDROOT
BRANCH   4   7
ATOM      7  C   UNL     1       2.573   5.598  19.181  0.00  0.00    +0.000 C 
ATOM      8  O   UNL     1       3.183   5.137  20.138  0.00  0.00    +0.000 OA
ATOM      9  N   UNL     1       2.344   4.846  18.026  0.00  0.00    +0.000 N 
ATOM     10  H   UNL     1       2.017   5.332  17.206  0.00  0.00    +0.000 HD
BRANCH   9  11
ATOM     11  C   UNL     1       3.015   3.544  17.758  0.00  0.00    +0.000 C 
BRANCH  11  12
ATOM     12  C   UNL     1       4.276   3.555  16.858  0.00  0.00    +0.000 C 
BRANCH  12  13
ATOM     13  C   UNL     1       5.037   4.875  16.872  0.00  0.00    +0.000 A 
ATOM     14  C   UNL     1       5.010   5.723  15.773  0.00  0.00    +0.000 A 
ATOM     15  N   UNL     1       5.528   6.915  16.184  0.00  0.00    +0.000 N 
ATOM     16  C   UNL     1       6.463   6.631  17.147  0.00  0.00    +0.000 A 
ATOM     17  C   UNL     1       7.629   7.317  17.496  0.00  0.00    +0.000 A 
ATOM     18  C   UNL     1       8.259   6.922  18.669  0.00  0.00    +0.000 A 
ATOM     19  C   UNL     1       7.643   5.993  19.509  0.00  0.00    +0.000 A 
ATOM     20  C   UNL     1       6.481   5.287  19.109  0.00  0.00    +0.000 A 
ATOM     21  C   UNL     1       5.950   5.515  17.819  0.00  0.00    +0.000 A 
ATOM     22  H   UNL     1       4.977   7.763  16.220  0.00  0.00    +0.000 HD
ENDBRANCH  12  13
ENDBRANCH  11  12
ENDBRANCH   9  11
ENDBRANCH   4   7
BRANCH   1  23
ATOM     23  O   UNL     1       0.863  11.126  19.315  0.00  0.00    +0.000 OA
BRANCH  23  24
ATOM     24  C   UNL     1      -0.491  11.473  18.996  0.00  0.00    +0.000 C 
BRANCH  24  25
ATOM     25  C   UNL     1      -0.583  12.939  18.514  0.00  0.00    +0.000 C 
BRANCH  25  26
ATOM     26  C   UNL     1      -0.192  14.020  19.536  0.00  0.00    +0.000 C 
BRANCH  26  27
ATOM     27  C   UNL     1       0.310  15.304  18.893  0.00  0.00    +0.000 C 
BRANCH  27  31
ATOM     28  C   UNL     1       4.583  15.302  19.025  0.00  0.00    +0.000 A 
ATOM     29  C   UNL     1       3.816  14.627  19.965  0.00  0.00    +0.000 A 
ATOM     30  C   UNL     1       2.428  14.711  19.933  0.00  0.00    +0.000 A 
ATOM     31  N   UNL     1       1.782  15.405  19.002  0.00  0.00    +0.000 N 
ATOM     32  C   UNL     1       2.481  16.115  18.086  0.00  0.00    +0.000 A 
ATOM     33  C   UNL     1       3.882  16.070  18.102  0.00  0.00    +0.000 A 
BRANCH  28  35
ATOM     34  C   UNL     1       6.691  15.024  20.279  0.00  0.00    +0.000 C 
ATOM     35  N   UNL     1       5.974  15.191  19.009  0.00  0.00    +0.000 N 
ATOM     36  C   UNL     1       6.686  14.755  17.808  0.00  0.00    +0.000 C 
ENDBRANCH  28  35
ENDBRANCH  27  31
ENDBRANCH  26  27
ENDBRANCH  25  26
ENDBRANCH  24  25
ENDBRANCH  23  24
ENDBRANCH   1  23
TORSDOF 11
ENDMDL
