MODEL 1
REMARK VINA RESULT:      -9.3      0.000      0.000
REMARK  Name = 
REMARK  13 active torsions:
REMARK  status: ('A' for Active; 'I' for Inactive)
REMARK    1  A    between atoms: C_1  and  C_2
REMARK    2  A    between atoms: N_4  and  C_5
REMARK    3  A    between atoms: C_8  and  C_9
REMARK    4  A    between atoms: N_14  and  C_15
REMARK    5  A    between atoms: C_19  and  N_20
REMARK    6  A    between atoms: C_21  and  C_23
REMARK    7  A    between atoms: C_23  and  C_24
REMARK    8  A    between atoms: C_24  and  C_25
REMARK    9  A    between atoms: C_25  and  C_26
REMARK   10  A    between atoms: C_26  and  C_27
REMARK   11  A    between atoms: C_27  and  C_28
REMARK   12  A    between atoms: C_28  and  C_29
REMARK   13  A    between atoms: N_31  and  O_32
REMARK                            x       y       z     vdW  Elec       q    Type
REMARK                         _______ _______ _______ _____ _____    ______ ____
ROOT
ATOM      1  C   UNL     1       1.553   8.953  19.853  0.00  0.00    +0.000 A 
ATOM      2  C   UNL     1       1.928   9.099  18.508  0.00  0.00    +0.000 A 
ATOM      3  C   UNL     1       2.569   8.085  17.810  0.00  0.00    +0.000 A 
ATOM      4  C   UNL     1       2.813   6.878  18.444  0.00  0.00    +0.000 A 
ATOM      5  C   UNL     1       2.400   6.666  19.765  0.00  0.00    +0.000 A 
ATOM      6  C   UNL     1       1.747   7.701  20.456  0.00  0.00    +0.000 A 
ENDROOT
BRANCH   1  12
ATOM      7  C   UNL     1      -1.982  11.169  18.966  0.00  0.00    +0.000 A 
ATOM      8  C   UNL     1      -2.409  12.165  19.815  0.00  0.00    +0.000 A 
ATOM      9  C   UNL     1      -1.627  12.392  20.922  0.00  0.00    +0.000 A 
ATOM     10  N   UNL     1      -0.494  11.714  21.191  0.00  0.00    +0.000 NA
ATOM     11  C   UNL     1      -0.165  10.736  20.338  0.00  0.00    +0.000 A 
ATOM     12  N   UNL     1       1.023  10.034  20.581  0.00  0.00    +0.000 N 
ATOM     13  N   UNL     1      -0.888  10.449  19.244  0.00  0.00    +0.000 NA
ATOM     14  H   UNL     1       1.655  10.622  21.099  0.00  0.00    +0.000 HD
BRANCH   7  18
ATOM     15  C   UNL     1      -3.885  10.376  15.168  0.00  0.00    +0.000 A 
ATOM     16  C   UNL     1      -4.412  11.298  16.069  0.00  0.00    +0.000 A 
ATOM     17  C   UNL     1      -3.797  11.540  17.299  0.00  0.00    +0.000 A 
ATOM     18  C   UNL     1      -2.633  10.862  17.677  0.00  0.00    +0.000 A 
ATOM     19  C   UNL     1      -2.101   9.933  16.760  0.00  0.00    +0.000 A 
ATOM     20  C   UNL     1      -2.727   9.676  15.526  0.00  0.00    +0.000 A 
BRANCH  15  24
ATOM     21  C   UNL     1      -4.692   9.622  11.563  0.00  0.00    +0.000 C 
ATOM     22  C   UNL     1      -3.805   9.708  12.772  0.00  0.00    +0.000 C 
ATOM     23  O   UNL     1      -2.615   9.428  12.679  0.00  0.00    +0.000 OA
ATOM     24  N   UNL     1      -4.480  10.116  13.913  0.00  0.00    +0.000 N 
ATOM     25  H   UNL     1      -5.489  10.147  13.870  0.00  0.00    +0.000 HD
ENDBRANCH  15  24
ENDBRANCH   7  18
ENDBRANCH   1  12
BRANCH   5  26
ATOM     26  N   UNL     1       2.641   5.437  20.427  0.00  0.00    +0.000 N 
ATOM     27  C   UNL     1       1.666   4.498  20.716  0.00  0.00    +0.000 C 
ATOM     28  O   UNL     1       0.471   4.577  20.452  0.00  0.00    +0.000 OA
ATOM     29  H   UNL     1       3.606   5.193  20.593  0.00  0.00    +0.000 HD
BRANCH  27  30
ATOM     30  C   UNL     1       2.183   3.256  21.400  0.00  0.00    +0.000 C 
BRANCH  30  31
ATOM     31  C   UNL     1       2.702   2.298  20.328  0.00  0.00    +0.000 C 
BRANCH  31  32
ATOM     32  C   UNL     1       1.735   2.105  19.166  0.00  0.00    +0.000 C 
BRANCH  32  33
ATOM     33  C   UNL     1       2.407   2.305  17.807  0.00  0.00    +0.000 C 
BRANCH  33  34
ATOM     34  C   UNL     1       3.884   2.630  17.976  0.00  0.00    +0.000 C 
BRANCH  34  35
ATOM     35  C   UNL     1       4.252   3.929  17.265  0.00  0.00    +0.000 C 
BRANCH  35  36
ATOM     36  C   UNL     1       5.667   4.348  17.598  0.00  0.00    +0.000 C 
ATOM     37  O   UNL     1       5.975   5.064  18.546  0.00  0.00    +0.000 OA
ATOM     38  N   UNL     1       6.608   3.837  16.742  0.00  0.00    +0.000 N 
ATOM     39  H   UNL     1       6.403   3.409  15.846  0.00  0.00    +0.000 HD
BRANCH  38  40
ATOM     40  O   UNL     1       7.938   4.255  16.970  0.00  0.00    +0.000 OA
ATOM     41  H   UNL     1       8.223   3.657  17.698  0.00  0.00    +0.000 HD
ENDBRANCH  38  40
ENDBRANCH  35  36
ENDBRANCH  34  35
ENDBRANCH  33  34
ENDBRANCH  32  33
ENDBRANCH  31  32
ENDBRANCH  30  31
ENDBRANCH  27  30
ENDBRANCH   5  26
TORSDOF 12
ENDMDL
MODEL 2
REMARK VINA RESULT:      -9.3      5.502      8.617
REMARK  Name = 
REMARK  13 active torsions:
REMARK  status: ('A' for Active; 'I' for Inactive)
REMARK    1  A    between atoms: C_1  and  C_2
REMARK    2  A    between atoms: N_4  and  C_5
REMARK    3  A    between atoms: C_8  and  C_9
REMARK    4  A    between atoms: N_14  and  C_15
REMARK    5  A    between atoms: C_19  and  N_20
REMARK    6  A    between atoms: C_21  and  C_23
REMARK    7  A    between atoms: C_23  and  C_24
REMARK    8  A    between atoms: C_24  and  C_25
REMARK    9  A    between atoms: C_25  and  C_26
REMARK   10  A    between atoms: C_26  and  C_27
REMARK   11  A    between atoms: C_27  and  C_28
REMARK   12  A    between atoms: C_28  and  C_29
REMARK   13  A    between atoms: N_31  and  O_32
REMARK                            x       y       z     vdW  Elec       q    Type
REMARK                         _______ _______ _______ _____ _____    ______ ____
ROOT
ATOM      1  C   UNL     1       5.530   4.193  17.602  0.00  0.00    +0.000 A 
ATOM      2  C   UNL     1       5.613   3.516  16.375  0.00  0.00    +0.000 A 
ATOM      3  C   UNL     1       6.169   4.105  15.248  0.00  0.00    +0.000 A 
ATOM      4  C   UNL     1       6.693   5.383  15.343  0.00  0.00    +0.000 A 
ATOM      5  C   UNL     1       6.689   6.071  16.561  0.00  0.00    +0.000 A 
ATOM      6  C   UNL     1       6.127   5.458  17.695  0.00  0.00    +0.000 A 
ENDROOT
BRANCH   1  12
ATOM      7  C   UNL     1       2.330   5.943  19.813  0.00  0.00    +0.000 A 
ATOM      8  C   UNL     1       1.716   5.239  20.824  0.00  0.00    +0.000 A 
ATOM      9  C   UNL     1       2.208   3.979  21.066  0.00  0.00    +0.000 A 
ATOM     10  N   UNL     1       3.238   3.433  20.391  0.00  0.00    +0.000 NA
ATOM     11  C   UNL     1       3.758   4.166  19.397  0.00  0.00    +0.000 A 
ATOM     12  N   UNL     1       4.847   3.631  18.697  0.00  0.00    +0.000 N 
ATOM     13  N   UNL     1       3.319   5.398  19.095  0.00  0.00    +0.000 NA
ATOM     14  H   UNL     1       5.338   2.985  19.291  0.00  0.00    +0.000 HD
BRANCH   7  18
ATOM     15  C   UNL     1       1.333  10.018  18.773  0.00  0.00    +0.000 A 
ATOM     16  C   UNL     1       1.958   9.166  17.866  0.00  0.00    +0.000 A 
ATOM     17  C   UNL     1       2.287   7.854  18.213  0.00  0.00    +0.000 A 
ATOM     18  C   UNL     1       2.008   7.347  19.487  0.00  0.00    +0.000 A 
ATOM     19  C   UNL     1       1.372   8.212  20.401  0.00  0.00    +0.000 A 
ATOM     20  C   UNL     1       1.052   9.539  20.058  0.00  0.00    +0.000 A 
BRANCH  15  24
ATOM     21  C   UNL     1       0.604  13.717  18.687  0.00  0.00    +0.000 C 
ATOM     22  C   UNL     1       1.187  12.454  19.257  0.00  0.00    +0.000 C 
ATOM     23  O   UNL     1       1.772  12.483  20.334  0.00  0.00    +0.000 OA
ATOM     24  N   UNL     1       0.981  11.347  18.447  0.00  0.00    +0.000 N 
ATOM     25  H   UNL     1       0.631  11.512  17.514  0.00  0.00    +0.000 HD
ENDBRANCH  15  24
ENDBRANCH   7  18
ENDBRANCH   1  12
BRANCH   5  26
ATOM     26  N   UNL     1       7.223   7.379  16.675  0.00  0.00    +0.000 N 
ATOM     27  C   UNL     1       7.975   7.828  17.746  0.00  0.00    +0.000 C 
ATOM     28  O   UNL     1       8.292   7.184  18.741  0.00  0.00    +0.000 OA
ATOM     29  H   UNL     1       7.137   7.976  15.866  0.00  0.00    +0.000 HD
BRANCH  27  30
ATOM     30  C   UNL     1       8.455   9.253  17.615  0.00  0.00    +0.000 C 
BRANCH  30  31
ATOM     31  C   UNL     1       8.904   9.737  18.993  0.00  0.00    +0.000 C 
BRANCH  31  32
ATOM     32  C   UNL     1       9.374  11.186  19.004  0.00  0.00    +0.000 C 
BRANCH  32  33
ATOM     33  C   UNL     1      10.758  11.347  19.635  0.00  0.00    +0.000 C 
BRANCH  33  34
ATOM     34  C   UNL     1      11.511  12.508  19.000  0.00  0.00    +0.000 C 
BRANCH  34  35
ATOM     35  C   UNL     1      10.968  12.829  17.611  0.00  0.00    +0.000 C 
BRANCH  35  36
ATOM     36  C   UNL     1      10.727  14.314  17.454  0.00  0.00    +0.000 C 
ATOM     37  O   UNL     1      10.368  15.059  18.360  0.00  0.00    +0.000 OA
ATOM     38  N   UNL     1      10.962  14.778  16.185  0.00  0.00    +0.000 N 
ATOM     39  H   UNL     1      11.068  14.192  15.365  0.00  0.00    +0.000 HD
BRANCH  38  40
ATOM     40  O   UNL     1      10.683  16.146  15.970  0.00  0.00    +0.000 OA
ATOM     41  H   UNL     1      11.085  16.568  16.764  0.00  0.00    +0.000 HD
ENDBRANCH  38  40
ENDBRANCH  35  36
ENDBRANCH  34  35
ENDBRANCH  33  34
ENDBRANCH  32  33
ENDBRANCH  31  32
ENDBRANCH  30  31
ENDBRANCH  27  30
ENDBRANCH   5  26
TORSDOF 12
ENDMDL
MODEL 3
REMARK VINA RESULT:      -9.2      5.160      8.436
REMARK  Name = 
REMARK  13 active torsions:
REMARK  status: ('A' for Active; 'I' for Inactive)
REMARK    1  A    between atoms: C_1  and  C_2
REMARK    2  A    between atoms: N_4  and  C_5
REMARK    3  A    between atoms: C_8  and  C_9
REMARK    4  A    between atoms: N_14  and  C_15
REMARK    5  A    between atoms: C_19  and  N_20
REMARK    6  A    between atoms: C_21  and  C_23
REMARK    7  A    between atoms: C_23  and  C_24
REMARK    8  A    between atoms: C_24  and  C_25
REMARK    9  A    between atoms: C_25  and  C_26
REMARK   10  A    between atoms: C_26  and  C_27
REMARK   11  A    between atoms: C_27  and  C_28
REMARK   12  A    between atoms: C_28  and  C_29
REMARK   13  A    between atoms: N_31  and  O_32
REMARK                            x       y       z     vdW  Elec       q    Type
REMARK                         _______ _______ _______ _____ _____    ______ ____
ROOT
ATOM      1  C   UNL     1       5.436   4.128  17.522  0.00  0.00    +0.000 A 
ATOM      2  C   UNL     1       5.467   3.556  16.241  0.00  0.00    +0.000 A 
ATOM      3  C   UNL     1       5.944   4.250  15.137  0.00  0.00    +0.000 A 
ATOM      4  C   UNL     1       6.439   5.532  15.309  0.00  0.00    +0.000 A 
ATOM      5  C   UNL     1       6.485   6.119  16.579  0.00  0.00    +0.000 A 
ATOM      6  C   UNL     1       6.005   5.399  17.687  0.00  0.00    +0.000 A 
ENDROOT
BRANCH   1  12
ATOM      7  C   UNL     1       2.324   5.597  20.042  0.00  0.00    +0.000 A 
ATOM      8  C   UNL     1       1.787   4.794  21.023  0.00  0.00    +0.000 A 
ATOM      9  C   UNL     1       2.324   3.534  21.133  0.00  0.00    +0.000 A 
ATOM     10  N   UNL     1       3.327   3.076  20.359  0.00  0.00    +0.000 NA
ATOM     11  C   UNL     1       3.770   3.902  19.403  0.00  0.00    +0.000 A 
ATOM     12  N   UNL     1       4.831   3.459  18.602  0.00  0.00    +0.000 N 
ATOM     13  N   UNL     1       3.285   5.141  19.228  0.00  0.00    +0.000 NA
ATOM     14  H   UNL     1       5.372   2.781  19.113  0.00  0.00    +0.000 HD
BRANCH   7  18
ATOM     15  C   UNL     1       1.168   9.711  19.400  0.00  0.00    +0.000 A 
ATOM     16  C   UNL     1       1.753   8.953  18.390  0.00  0.00    +0.000 A 
ATOM     17  C   UNL     1       2.133   7.627  18.609  0.00  0.00    +0.000 A 
ATOM     18  C   UNL     1       1.950   7.012  19.851  0.00  0.00    +0.000 A 
ATOM     19  C   UNL     1       1.353   7.783  20.871  0.00  0.00    +0.000 A 
ATOM     20  C   UNL     1       0.982   9.123  20.657  0.00  0.00    +0.000 A 
BRANCH  15  24
ATOM     21  C   UNL     1      -0.511  12.947  18.435  0.00  0.00    +0.000 C 
ATOM     22  C   UNL     1      -0.414  11.456  18.597  0.00  0.00    +0.000 C 
ATOM     23  O   UNL     1      -1.328  10.738  18.206  0.00  0.00    +0.000 OA
ATOM     24  N   UNL     1       0.764  11.051  19.206  0.00  0.00    +0.000 N 
ATOM     25  H   UNL     1       1.342  11.768  19.623  0.00  0.00    +0.000 HD
ENDBRANCH  15  24
ENDBRANCH   7  18
ENDBRANCH   1  12
BRANCH   5  26
ATOM     26  N   UNL     1       6.991   7.428  16.771  0.00  0.00    +0.000 N 
ATOM     27  C   UNL     1       7.850   7.795  17.792  0.00  0.00    +0.000 C 
ATOM     28  O   UNL     1       8.300   7.066  18.669  0.00  0.00    +0.000 OA
ATOM     29  H   UNL     1       6.793   8.102  16.045  0.00  0.00    +0.000 HD
BRANCH  27  30
ATOM     30  C   UNL     1       8.269   9.245  17.760  0.00  0.00    +0.000 C 
BRANCH  30  31
ATOM     31  C   UNL     1       8.926   9.584  19.099  0.00  0.00    +0.000 C 
BRANCH  31  32
ATOM     32  C   UNL     1       9.379  11.035  19.203  0.00  0.00    +0.000 C 
BRANCH  32  33
ATOM     33  C   UNL     1      10.844  11.161  19.622  0.00  0.00    +0.000 C 
BRANCH  33  34
ATOM     34  C   UNL     1      11.471  12.415  19.028  0.00  0.00    +0.000 C 
BRANCH  34  35
ATOM     35  C   UNL     1      10.815  12.789  17.702  0.00  0.00    +0.000 C 
BRANCH  35  36
ATOM     36  C   UNL     1      10.277  14.202  17.743  0.00  0.00    +0.000 C 
ATOM     37  O   UNL     1      10.932  15.185  18.076  0.00  0.00    +0.000 OA
ATOM     38  N   UNL     1       8.966  14.304  17.355  0.00  0.00    +0.000 N 
ATOM     39  H   UNL     1       8.329  13.521  17.259  0.00  0.00    +0.000 HD
BRANCH  38  40
ATOM     40  O   UNL     1       8.397  15.593  17.443  0.00  0.00    +0.000 OA
ATOM     41  H   UNL     1       8.250  15.690  18.413  0.00  0.00    +0.000 HD
ENDBRANCH  38  40
ENDBRANCH  35  36
ENDBRANCH  34  35
ENDBRANCH  33  34
ENDBRANCH  32  33
ENDBRANCH  31  32
ENDBRANCH  30  31
ENDBRANCH  27  30
ENDBRANCH   5  26
TORSDOF 12
ENDMDL
MODEL 4
REMARK VINA RESULT:      -9.1      0.622      1.055
REMARK  Name = 
REMARK  13 active torsions:
REMARK  status: ('A' for Active; 'I' for Inactive)
REMARK    1  A    between atoms: C_1  and  C_2
REMARK    2  A    between atoms: N_4  and  C_5
REMARK    3  A    between atoms: C_8  and  C_9
REMARK    4  A    between atoms: N_14  and  C_15
REMARK    5  A    between atoms: C_19  and  N_20
REMARK    6  A    between atoms: C_21  and  C_23
REMARK    7  A    between atoms: C_23  and  C_24
REMARK    8  A    between atoms: C_24  and  C_25
REMARK    9  A    between atoms: C_25  and  C_26
REMARK   10  A    between atoms: C_26  and  C_27
REMARK   11  A    between atoms: C_27  and  C_28
REMARK   12  A    between atoms: C_28  and  C_29
REMARK   13  A    between atoms: N_31  and  O_32
REMARK                            x       y       z     vdW  Elec       q    Type
REMARK                         _______ _______ _______ _____ _____    ______ ____
ROOT
ATOM      1  C   UNL     1       1.533   9.045  19.852  0.00  0.00    +0.000 A 
ATOM      2  C   UNL     1       1.894   9.262  18.513  0.00  0.00    +0.000 A 
ATOM      3  C   UNL     1       2.562   8.300  17.767  0.00  0.00    +0.000 A 
ATOM      4  C   UNL     1       2.849   7.076  18.347  0.00  0.00    +0.000 A 
ATOM      5  C   UNL     1       2.452   6.793  19.659  0.00  0.00    +0.000 A 
ATOM      6  C   UNL     1       1.771   7.775  20.398  0.00  0.00    +0.000 A 
ENDROOT
BRANCH   1  12
ATOM      7  C   UNL     1      -2.031  11.241  19.037  0.00  0.00    +0.000 A 
ATOM      8  C   UNL     1      -2.487  12.182  19.932  0.00  0.00    +0.000 A 
ATOM      9  C   UNL     1      -1.724  12.363  21.060  0.00  0.00    +0.000 A 
ATOM     10  N   UNL     1      -0.581  11.693  21.308  0.00  0.00    +0.000 NA
ATOM     11  C   UNL     1      -0.224  10.768  20.408  0.00  0.00    +0.000 A 
ATOM     12  N   UNL     1       0.974  10.076  20.630  0.00  0.00    +0.000 N 
ATOM     13  N   UNL     1      -0.928  10.527  19.291  0.00  0.00    +0.000 NA
ATOM     14  H   UNL     1       1.589  10.646  21.187  0.00  0.00    +0.000 HD
BRANCH   7  18
ATOM     15  C   UNL     1      -3.869  10.407  15.216  0.00  0.00    +0.000 A 
ATOM     16  C   UNL     1      -2.652   9.837  15.579  0.00  0.00    +0.000 A 
ATOM     17  C   UNL     1      -2.060  10.120  16.811  0.00  0.00    +0.000 A 
ATOM     18  C   UNL     1      -2.660  10.992  17.725  0.00  0.00    +0.000 A 
ATOM     19  C   UNL     1      -3.895  11.565  17.355  0.00  0.00    +0.000 A 
ATOM     20  C   UNL     1      -4.487  11.292  16.107  0.00  0.00    +0.000 A 
BRANCH  15  24
ATOM     21  C   UNL     1      -4.770   9.635  11.637  0.00  0.00    +0.000 C 
ATOM     22  C   UNL     1      -3.848   9.742  12.818  0.00  0.00    +0.000 C 
ATOM     23  O   UNL     1      -2.655   9.490  12.688  0.00  0.00    +0.000 OA
ATOM     24  N   UNL     1      -4.497  10.134  13.980  0.00  0.00    +0.000 N 
ATOM     25  H   UNL     1      -5.507  10.141  13.968  0.00  0.00    +0.000 HD
ENDBRANCH  15  24
ENDBRANCH   7  18
ENDBRANCH   1  12
BRANCH   5  26
ATOM     26  N   UNL     1       2.736   5.544  20.265  0.00  0.00    +0.000 N 
ATOM     27  C   UNL     1       1.782   4.597  20.593  0.00  0.00    +0.000 C 
ATOM     28  O   UNL     1       0.572   4.683  20.415  0.00  0.00    +0.000 OA
ATOM     29  H   UNL     1       3.710   5.295  20.356  0.00  0.00    +0.000 HD
BRANCH  27  30
ATOM     30  C   UNL     1       2.343   3.335  21.201  0.00  0.00    +0.000 C 
BRANCH  30  31
ATOM     31  C   UNL     1       2.074   2.177  20.239  0.00  0.00    +0.000 C 
BRANCH  31  32
ATOM     32  C   UNL     1       3.129   2.035  19.149  0.00  0.00    +0.000 C 
BRANCH  32  33
ATOM     33  C   UNL     1       2.734   2.751  17.857  0.00  0.00    +0.000 C 
BRANCH  33  34
ATOM     34  C   UNL     1       3.934   2.904  16.934  0.00  0.00    +0.000 C 
BRANCH  34  35
ATOM     35  C   UNL     1       4.585   4.276  17.090  0.00  0.00    +0.000 C 
BRANCH  35  36
ATOM     36  C   UNL     1       6.069   4.208  16.802  0.00  0.00    +0.000 C 
ATOM     37  O   UNL     1       6.558   4.183  15.677  0.00  0.00    +0.000 OA
ATOM     38  N   UNL     1       6.847   4.191  17.930  0.00  0.00    +0.000 N 
ATOM     39  H   UNL     1       6.504   4.015  18.868  0.00  0.00    +0.000 HD
BRANCH  38  40
ATOM     40  O   UNL     1       8.237   4.057  17.716  0.00  0.00    +0.000 OA
ATOM     41  H   UNL     1       8.574   3.894  18.627  0.00  0.00    +0.000 HD
ENDBRANCH  38  40
ENDBRANCH  35  36
ENDBRANCH  34  35
ENDBRANCH  33  34
ENDBRANCH  32  33
ENDBRANCH  31  32
ENDBRANCH  30  31
ENDBRANCH  27  30
ENDBRANCH   5  26
TORSDOF 12
ENDMDL
MODEL 5
REMARK VINA RESULT:      -9.1      5.292      8.491
REMARK  Name = 
REMARK  13 active torsions:
REMARK  status: ('A' for Active; 'I' for Inactive)
REMARK    1  A    between atoms: C_1  and  C_2
REMARK    2  A    between atoms: N_4  and  C_5
REMARK    3  A    between atoms: C_8  and  C_9
REMARK    4  A    between atoms: N_14  and  C_15
REMARK    5  A    between atoms: C_19  and  N_20
REMARK    6  A    between atoms: C_21  and  C_23
REMARK    7  A    between atoms: C_23  and  C_24
REMARK    8  A    between atoms: C_24  and  C_25
REMARK    9  A    between atoms: C_25  and  C_26
REMARK   10  A    between atoms: C_26  and  C_27
REMARK   11  A    between atoms: C_27  and  C_28
REMARK   12  A    between atoms: C_28  and  C_29
REMARK   13  A    between atoms: N_31  and  O_32
REMARK                            x       y       z     vdW  Elec       q    Type
REMARK                         _______ _______ _______ _____ _____    ______ ____
ROOT
ATOM      1  C   UNL     1       5.920   4.362  17.655  0.00  0.00    +0.000 A 
ATOM      2  C   UNL     1       6.139   3.802  16.386  0.00  0.00    +0.000 A 
ATOM      3  C   UNL     1       6.667   4.542  15.337  0.00  0.00    +0.000 A 
ATOM      4  C   UNL     1       7.025   5.861  15.556  0.00  0.00    +0.000 A 
ATOM      5  C   UNL     1       6.883   6.443  16.820  0.00  0.00    +0.000 A 
ATOM      6  C   UNL     1       6.352   5.678  17.874  0.00  0.00    +0.000 A 
ENDROOT
BRANCH   1  12
ATOM      7  C   UNL     1       2.483   5.567  19.873  0.00  0.00    +0.000 A 
ATOM      8  C   UNL     1       1.914   4.715  20.792  0.00  0.00    +0.000 A 
ATOM      9  C   UNL     1       2.528   3.495  20.944  0.00  0.00    +0.000 A 
ATOM     10  N   UNL     1       3.631   3.121  20.267  0.00  0.00    +0.000 NA
ATOM     11  C   UNL     1       4.103   3.990  19.364  0.00  0.00    +0.000 A 
ATOM     12  N   UNL     1       5.265   3.636  18.666  0.00  0.00    +0.000 N 
ATOM     13  N   UNL     1       3.547   5.194  19.152  0.00  0.00    +0.000 NA
ATOM     14  H   UNL     1       5.802   2.991  19.222  0.00  0.00    +0.000 HD
BRANCH   7  18
ATOM     15  C   UNL     1       1.203   9.659  19.328  0.00  0.00    +0.000 A 
ATOM     16  C   UNL     1       1.031   8.997  20.541  0.00  0.00    +0.000 A 
ATOM     17  C   UNL     1       1.437   7.671  20.705  0.00  0.00    +0.000 A 
ATOM     18  C   UNL     1       2.026   6.955  19.658  0.00  0.00    +0.000 A 
ATOM     19  C   UNL     1       2.202   7.631  18.433  0.00  0.00    +0.000 A 
ATOM     20  C   UNL     1       1.781   8.962  18.260  0.00  0.00    +0.000 A 
BRANCH  15  24
ATOM     21  C   UNL     1      -0.529  12.904  18.499  0.00  0.00    +0.000 C 
ATOM     22  C   UNL     1      -0.447  11.421  18.725  0.00  0.00    +0.000 C 
ATOM     23  O   UNL     1      -1.437  10.719  18.547  0.00  0.00    +0.000 OA
ATOM     24  N   UNL     1       0.810  11.003  19.134  0.00  0.00    +0.000 N 
ATOM     25  H   UNL     1       1.474  11.716  19.399  0.00  0.00    +0.000 HD
ENDBRANCH  15  24
ENDBRANCH   7  18
ENDBRANCH   1  12
BRANCH   5  26
ATOM     26  N   UNL     1       7.247   7.791  17.060  0.00  0.00    +0.000 N 
ATOM     27  C   UNL     1       8.094   8.207  18.073  0.00  0.00    +0.000 C 
ATOM     28  O   UNL     1       8.651   7.494  18.901  0.00  0.00    +0.000 OA
ATOM     29  H   UNL     1       6.951   8.470  16.374  0.00  0.00    +0.000 HD
BRANCH  27  30
ATOM     30  C   UNL     1       8.349   9.694  18.098  0.00  0.00    +0.000 C 
BRANCH  30  31
ATOM     31  C   UNL     1       9.533   9.962  19.028  0.00  0.00    +0.000 C 
BRANCH  31  32
ATOM     32  C   UNL     1       9.212  10.938  20.153  0.00  0.00    +0.000 C 
BRANCH  32  33
ATOM     33  C   UNL     1      10.386  11.865  20.475  0.00  0.00    +0.000 C 
BRANCH  33  34
ATOM     34  C   UNL     1      11.584  11.547  19.592  0.00  0.00    +0.000 C 
BRANCH  34  35
ATOM     35  C   UNL     1      12.173  12.813  18.978  0.00  0.00    +0.000 C 
BRANCH  35  36
ATOM     36  C   UNL     1      11.262  13.370  17.906  0.00  0.00    +0.000 C 
ATOM     37  O   UNL     1      10.913  12.756  16.903  0.00  0.00    +0.000 OA
ATOM     38  N   UNL     1      10.834  14.648  18.158  0.00  0.00    +0.000 N 
ATOM     39  H   UNL     1      11.235  15.266  18.854  0.00  0.00    +0.000 HD
BRANCH  38  40
ATOM     40  O   UNL     1      10.037  15.238  17.152  0.00  0.00    +0.000 OA
ATOM     41  H   UNL     1      10.334  16.177  17.175  0.00  0.00    +0.000 HD
ENDBRANCH  38  40
ENDBRANCH  35  36
ENDBRANCH  34  35
ENDBRANCH  33  34
ENDBRANCH  32  33
ENDBRANCH  31  32
ENDBRANCH  30  31
ENDBRANCH  27  30
ENDBRANCH   5  26
TORSDOF 12
ENDMDL
MODEL 6
REMARK VINA RESULT:      -9.0      5.466      8.777
REMARK  Name = 
REMARK  13 active torsions:
REMARK  status: ('A' for Active; 'I' for Inactive)
REMARK    1  A    between atoms: C_1  and  C_2
REMARK    2  A    between atoms: N_4  and  C_5
REMARK    3  A    between atoms: C_8  and  C_9
REMARK    4  A    between atoms: N_14  and  C_15
REMARK    5  A    between atoms: C_19  and  N_20
REMARK    6  A    between atoms: C_21  and  C_23
REMARK    7  A    between atoms: C_23  and  C_24
REMARK    8  A    between atoms: C_24  and  C_25
REMARK    9  A    between atoms: C_25  and  C_26
REMARK   10  A    between atoms: C_26  and  C_27
REMARK   11  A    between atoms: C_27  and  C_28
REMARK   12  A    between atoms: C_28  and  C_29
REMARK   13  A    between atoms: N_31  and  O_32
REMARK                            x       y       z     vdW  Elec       q    Type
REMARK                         _______ _______ _______ _____ _____    ______ ____
ROOT
ATOM      1  C   UNL     1       5.615   4.168  17.556  0.00  0.00    +0.000 A 
ATOM      2  C   UNL     1       5.733   3.572  16.290  0.00  0.00    +0.000 A 
ATOM      3  C   UNL     1       6.224   4.268  15.194  0.00  0.00    +0.000 A 
ATOM      4  C   UNL     1       6.646   5.576  15.358  0.00  0.00    +0.000 A 
ATOM      5  C   UNL     1       6.605   6.191  16.615  0.00  0.00    +0.000 A 
ATOM      6  C   UNL     1       6.111   5.471  17.717  0.00  0.00    +0.000 A 
ENDROOT
BRANCH   1  12
ATOM      7  C   UNL     1       2.380   5.566  19.958  0.00  0.00    +0.000 A 
ATOM      8  C   UNL     1       1.836   4.757  20.930  0.00  0.00    +0.000 A 
ATOM      9  C   UNL     1       2.406   3.515  21.071  0.00  0.00    +0.000 A 
ATOM     10  N   UNL     1       3.447   3.080  20.334  0.00  0.00    +0.000 NA
ATOM     11  C   UNL     1       3.896   3.910  19.384  0.00  0.00    +0.000 A 
ATOM     12  N   UNL     1       4.995   3.492  18.622  0.00  0.00    +0.000 N 
ATOM     13  N   UNL     1       3.379   5.132  19.181  0.00  0.00    +0.000 NA
ATOM     14  H   UNL     1       5.539   2.836  19.158  0.00  0.00    +0.000 HD
BRANCH   7  18
ATOM     15  C   UNL     1       1.232   9.697  19.413  0.00  0.00    +0.000 A 
ATOM     16  C   UNL     1       0.965   9.017  20.598  0.00  0.00    +0.000 A 
ATOM     17  C   UNL     1       1.330   7.679  20.762  0.00  0.00    +0.000 A 
ATOM     18  C   UNL     1       1.970   6.968  19.741  0.00  0.00    +0.000 A 
ATOM     19  C   UNL     1       2.241   7.662  18.544  0.00  0.00    +0.000 A 
ATOM     20  C   UNL     1       1.862   9.006  18.371  0.00  0.00    +0.000 A 
BRANCH  15  24
ATOM     21  C   UNL     1       0.500  13.385  19.696  0.00  0.00    +0.000 C 
ATOM     22  C   UNL     1       1.078  12.072  20.141  0.00  0.00    +0.000 C 
ATOM     23  O   UNL     1       1.650  11.990  21.222  0.00  0.00    +0.000 OA
ATOM     24  N   UNL     1       0.882  11.052  19.220  0.00  0.00    +0.000 N 
ATOM     25  H   UNL     1       0.543  11.312  18.305  0.00  0.00    +0.000 HD
ENDBRANCH  15  24
ENDBRANCH   7  18
ENDBRANCH   1  12
BRANCH   5  26
ATOM     26  N   UNL     1       7.034   7.528  16.799  0.00  0.00    +0.000 N 
ATOM     27  C   UNL     1       7.851   7.954  17.832  0.00  0.00    +0.000 C 
ATOM     28  O   UNL     1       8.322   7.261  18.728  0.00  0.00    +0.000 OA
ATOM     29  H   UNL     1       6.816   8.181  16.061  0.00  0.00    +0.000 HD
BRANCH  27  30
ATOM     30  C   UNL     1       8.192   9.423  17.789  0.00  0.00    +0.000 C 
BRANCH  30  31
ATOM     31  C   UNL     1       9.054   9.752  19.009  0.00  0.00    +0.000 C 
BRANCH  31  32
ATOM     32  C   UNL     1      10.169  10.748  18.714  0.00  0.00    +0.000 C 
BRANCH  32  33
ATOM     33  C   UNL     1      10.554  11.574  19.942  0.00  0.00    +0.000 C 
BRANCH  33  34
ATOM     34  C   UNL     1      12.010  12.011  19.865  0.00  0.00    +0.000 C 
BRANCH  34  35
ATOM     35  C   UNL     1      12.127  13.515  19.639  0.00  0.00    +0.000 C 
BRANCH  35  36
ATOM     36  C   UNL     1      11.782  13.877  18.211  0.00  0.00    +0.000 C 
ATOM     37  O   UNL     1      12.331  13.400  17.222  0.00  0.00    +0.000 OA
ATOM     38  N   UNL     1      10.769  14.794  18.104  0.00  0.00    +0.000 N 
ATOM     39  H   UNL     1      10.417  15.359  18.869  0.00  0.00    +0.000 HD
BRANCH  38  40
ATOM     40  O   UNL     1      10.458  15.217  16.793  0.00  0.00    +0.000 OA
ATOM     41  H   UNL     1      11.268  14.962  16.294  0.00  0.00    +0.000 HD
ENDBRANCH  38  40
ENDBRANCH  35  36
ENDBRANCH  34  35
ENDBRANCH  33  34
ENDBRANCH  32  33
ENDBRANCH  31  32
ENDBRANCH  30  31
ENDBRANCH  27  30
ENDBRANCH   5  26
TORSDOF 12
ENDMDL
MODEL 7
REMARK VINA RESULT:      -8.8      5.124      8.424
REMARK  Name = 
REMARK  13 active torsions:
REMARK  status: ('A' for Active; 'I' for Inactive)
REMARK    1  A    between atoms: C_1  and  C_2
REMARK    2  A    between atoms: N_4  and  C_5
REMARK    3  A    between atoms: C_8  and  C_9
REMARK    4  A    between atoms: N_14  and  C_15
REMARK    5  A    between atoms: C_19  and  N_20
REMARK    6  A    between atoms: C_21  and  C_23
REMARK    7  A    between atoms: C_23  and  C_24
REMARK    8  A    between atoms: C_24  and  C_25
REMARK    9  A    between atoms: C_25  and  C_26
REMARK   10  A    between atoms: C_26  and  C_27
REMARK   11  A    between atoms: C_27  and  C_28
REMARK   12  A    between atoms: C_28  and  C_29
REMARK   13  A    between atoms: N_31  and  O_32
REMARK                            x       y       z     vdW  Elec       q    Type
REMARK                         _______ _______ _______ _____ _____    ______ ____
ROOT
ATOM      1  C   UNL     1       5.793   4.503  17.700  0.00  0.00    +0.000 A 
ATOM      2  C   UNL     1       6.007   3.894  16.453  0.00  0.00    +0.000 A 
ATOM      3  C   UNL     1       6.598   4.573  15.396  0.00  0.00    +0.000 A 
ATOM      4  C   UNL     1       7.024   5.877  15.585  0.00  0.00    +0.000 A 
ATOM      5  C   UNL     1       6.888   6.502  16.829  0.00  0.00    +0.000 A 
ATOM      6  C   UNL     1       6.293   5.799  17.891  0.00  0.00    +0.000 A 
ENDROOT
BRANCH   1  12
ATOM      7  C   UNL     1       2.359   5.946  19.777  0.00  0.00    +0.000 A 
ATOM      8  C   UNL     1       1.726   5.153  20.708  0.00  0.00    +0.000 A 
ATOM      9  C   UNL     1       2.276   3.912  20.918  0.00  0.00    +0.000 A 
ATOM     10  N   UNL     1       3.378   3.463  20.286  0.00  0.00    +0.000 NA
ATOM     11  C   UNL     1       3.915   4.277  19.368  0.00  0.00    +0.000 A 
ATOM     12  N   UNL     1       5.077   3.844  18.716  0.00  0.00    +0.000 N 
ATOM     13  N   UNL     1       3.423   5.497  19.100  0.00  0.00    +0.000 NA
ATOM     14  H   UNL     1       5.567   3.195  19.308  0.00  0.00    +0.000 HD
BRANCH   7  18
ATOM     15  C   UNL     1       1.177  10.007  18.889  0.00  0.00    +0.000 A 
ATOM     16  C   UNL     1       1.786   9.199  17.932  0.00  0.00    +0.000 A 
ATOM     17  C   UNL     1       2.175   7.891  18.231  0.00  0.00    +0.000 A 
ATOM     18  C   UNL     1       1.975   7.345  19.503  0.00  0.00    +0.000 A 
ATOM     19  C   UNL     1       1.355   8.165  20.468  0.00  0.00    +0.000 A 
ATOM     20  C   UNL     1       0.975   9.488  20.174  0.00  0.00    +0.000 A 
BRANCH  15  24
ATOM     21  C   UNL     1       0.861  13.724  18.340  0.00  0.00    +0.000 C 
ATOM     22  C   UNL     1       1.604  12.432  18.532  0.00  0.00    +0.000 C 
ATOM     23  O   UNL     1       2.828  12.435  18.598  0.00  0.00    +0.000 OA
ATOM     24  N   UNL     1       0.766  11.330  18.615  0.00  0.00    +0.000 N 
ATOM     25  H   UNL     1      -0.206  11.466  18.375  0.00  0.00    +0.000 HD
ENDBRANCH  15  24
ENDBRANCH   7  18
ENDBRANCH   1  12
BRANCH   5  26
ATOM     26  N   UNL     1       7.320   7.835  17.039  0.00  0.00    +0.000 N 
ATOM     27  C   UNL     1       8.157   8.235  18.066  0.00  0.00    +0.000 C 
ATOM     28  O   UNL     1       8.646   7.520  18.934  0.00  0.00    +0.000 OA
ATOM     29  H   UNL     1       7.087   8.506  16.322  0.00  0.00    +0.000 HD
BRANCH  27  30
ATOM     30  C   UNL     1       8.497   9.706  18.054  0.00  0.00    +0.000 C 
BRANCH  30  31
ATOM     31  C   UNL     1       9.056  10.081  19.426  0.00  0.00    +0.000 C 
BRANCH  31  32
ATOM     32  C   UNL     1      10.420  10.756  19.363  0.00  0.00    +0.000 C 
BRANCH  32  33
ATOM     33  C   UNL     1      10.600  11.814  20.452  0.00  0.00    +0.000 C 
BRANCH  33  34
ATOM     34  C   UNL     1      11.307  13.044  19.901  0.00  0.00    +0.000 C 
BRANCH  34  35
ATOM     35  C   UNL     1      10.308  14.080  19.395  0.00  0.00    +0.000 C 
BRANCH  35  36
ATOM     36  C   UNL     1       9.723  13.663  18.063  0.00  0.00    +0.000 C 
ATOM     37  O   UNL     1      10.373  13.528  17.030  0.00  0.00    +0.000 OA
ATOM     38  N   UNL     1       8.373  13.427  18.104  0.00  0.00    +0.000 N 
ATOM     39  H   UNL     1       7.760  13.705  18.862  0.00  0.00    +0.000 HD
BRANCH  38  40
ATOM     40  O   UNL     1       7.768  13.103  16.870  0.00  0.00    +0.000 OA
ATOM     41  H   UNL     1       7.929  12.133  16.807  0.00  0.00    +0.000 HD
ENDBRANCH  38  40
ENDBRANCH  35  36
ENDBRANCH  34  35
ENDBRANCH  33  34
ENDBRANCH  32  33
ENDBRANCH  31  32
ENDBRANCH  30  31
ENDBRANCH  27  30
ENDBRANCH   5  26
TORSDOF 12
ENDMDL
MODEL 8
REMARK VINA RESULT:      -8.6      4.811      8.524
REMARK  Name = 
REMARK  13 active torsions:
REMARK  status: ('A' for Active; 'I' for Inactive)
REMARK    1  A    between atoms: C_1  and  C_2
REMARK    2  A    between atoms: N_4  and  C_5
REMARK    3  A    between atoms: C_8  and  C_9
REMARK    4  A    between atoms: N_14  and  C_15
REMARK    5  A    between atoms: C_19  and  N_20
REMARK    6  A    between atoms: C_21  and  C_23
REMARK    7  A    between atoms: C_23  and  C_24
REMARK    8  A    between atoms: C_24  and  C_25
REMARK    9  A    between atoms: C_25  and  C_26
REMARK   10  A    between atoms: C_26  and  C_27
REMARK   11  A    between atoms: C_27  and  C_28
REMARK   12  A    between atoms: C_28  and  C_29
REMARK   13  A    between atoms: N_31  and  O_32
REMARK                            x       y       z     vdW  Elec       q    Type
REMARK                         _______ _______ _______ _____ _____    ______ ____
ROOT
ATOM      1  C   UNL     1       6.095   4.595  18.335  0.00  0.00    +0.000 A 
ATOM      2  C   UNL     1       6.100   4.451  16.938  0.00  0.00    +0.000 A 
ATOM      3  C   UNL     1       6.815   5.310  16.114  0.00  0.00    +0.000 A 
ATOM      4  C   UNL     1       7.575   6.316  16.685  0.00  0.00    +0.000 A 
ATOM      5  C   UNL     1       7.649   6.458  18.075  0.00  0.00    +0.000 A 
ATOM      6  C   UNL     1       6.925   5.576  18.896  0.00  0.00    +0.000 A 
ENDROOT
BRANCH   1  12
ATOM      7  C   UNL     1       2.296   5.659  19.955  0.00  0.00    +0.000 A 
ATOM      8  C   UNL     1       1.568   4.742  20.680  0.00  0.00    +0.000 A 
ATOM      9  C   UNL     1       2.147   3.508  20.848  0.00  0.00    +0.000 A 
ATOM     10  N   UNL     1       3.360   3.176  20.363  0.00  0.00    +0.000 NA
ATOM     11  C   UNL     1       3.990   4.109  19.637  0.00  0.00    +0.000 A 
ATOM     12  N   UNL     1       5.264   3.799  19.144  0.00  0.00    +0.000 N 
ATOM     13  N   UNL     1       3.478   5.332  19.421  0.00  0.00    +0.000 NA
ATOM     14  H   UNL     1       5.689   3.106  19.738  0.00  0.00    +0.000 HD
BRANCH   7  18
ATOM     15  C   UNL     1       1.143   9.799  19.497  0.00  0.00    +0.000 A 
ATOM     16  C   UNL     1       0.945   9.116  20.694  0.00  0.00    +0.000 A 
ATOM     17  C   UNL     1       1.311   7.775  20.830  0.00  0.00    +0.000 A 
ATOM     18  C   UNL     1       1.882   7.064  19.769  0.00  0.00    +0.000 A 
ATOM     19  C   UNL     1       2.083   7.761  18.560  0.00  0.00    +0.000 A 
ATOM     20  C   UNL     1       1.703   9.108  18.415  0.00  0.00    +0.000 A 
BRANCH  15  24
ATOM     21  C   UNL     1       0.976  13.496  18.774  0.00  0.00    +0.000 C 
ATOM     22  C   UNL     1       1.564  12.116  18.693  0.00  0.00    +0.000 C 
ATOM     23  O   UNL     1       2.623  11.936  18.102  0.00  0.00    +0.000 OA
ATOM     24  N   UNL     1       0.791  11.157  19.331  0.00  0.00    +0.000 N 
ATOM     25  H   UNL     1      -0.136  11.429  19.626  0.00  0.00    +0.000 HD
ENDBRANCH  15  24
ENDBRANCH   7  18
ENDBRANCH   1  12
BRANCH   5  26
ATOM     26  N   UNL     1       8.425   7.481  18.675  0.00  0.00    +0.000 N 
ATOM     27  C   UNL     1       8.319   8.827  18.369  0.00  0.00    +0.000 C 
ATOM     28  O   UNL     1       7.557   9.336  17.554  0.00  0.00    +0.000 OA
ATOM     29  H   UNL     1       9.009   7.211  19.452  0.00  0.00    +0.000 HD
BRANCH  27  30
ATOM     30  C   UNL     1       9.235   9.720  19.169  0.00  0.00    +0.000 C 
BRANCH  30  31
ATOM     31  C   UNL     1       9.272  11.094  18.499  0.00  0.00    +0.000 C 
BRANCH  31  32
ATOM     32  C   UNL     1      10.284  12.047  19.123  0.00  0.00    +0.000 C 
BRANCH  32  33
ATOM     33  C   UNL     1       9.615  13.177  19.907  0.00  0.00    +0.000 C 
BRANCH  33  34
ATOM     34  C   UNL     1       9.508  12.823  21.383  0.00  0.00    +0.000 C 
BRANCH  34  35
ATOM     35  C   UNL     1       8.181  13.291  21.972  0.00  0.00    +0.000 C 
BRANCH  35  36
ATOM     36  C   UNL     1       7.550  12.205  22.817  0.00  0.00    +0.000 C 
ATOM     37  O   UNL     1       8.092  11.141  23.098  0.00  0.00    +0.000 OA
ATOM     38  N   UNL     1       6.294  12.519  23.268  0.00  0.00    +0.000 N 
ATOM     39  H   UNL     1       5.726  13.282  22.916  0.00  0.00    +0.000 HD
BRANCH  38  40
ATOM     40  O   UNL     1       5.634  11.509  24.003  0.00  0.00    +0.000 OA
ATOM     41  H   UNL     1       4.744  11.905  24.148  0.00  0.00    +0.000 HD
ENDBRANCH  38  40
ENDBRANCH  35  36
ENDBRANCH  34  35
ENDBRANCH  33  34
ENDBRANCH  32  33
ENDBRANCH  31  32
ENDBRANCH  30  31
ENDBRANCH  27  30
ENDBRANCH   5  26
TORSDOF 12
ENDMDL
MODEL 9
REMARK VINA RESULT:      -8.6      5.430      8.508
REMARK  Name = 
REMARK  13 active torsions:
REMARK  status: ('A' for Active; 'I' for Inactive)
REMARK    1  A    between atoms: C_1  and  C_2
REMARK    2  A    between atoms: N_4  and  C_5
REMARK    3  A    between atoms: C_8  and  C_9
REMARK    4  A    between atoms: N_14  and  C_15
REMARK    5  A    between atoms: C_19  and  N_20
REMARK    6  A    between atoms: C_21  and  C_23
REMARK    7  A    between atoms: C_23  and  C_24
REMARK    8  A    between atoms: C_24  and  C_25
REMARK    9  A    between atoms: C_25  and  C_26
REMARK   10  A    between atoms: C_26  and  C_27
REMARK   11  A    between atoms: C_27  and  C_28
REMARK   12  A    between atoms: C_28  and  C_29
REMARK   13  A    between atoms: N_31  and  O_32
REMARK                            x       y       z     vdW  Elec       q    Type
REMARK                         _______ _______ _______ _____ _____    ______ ____
ROOT
ATOM      1  C   UNL     1       5.534   4.161  17.639  0.00  0.00    +0.000 A 
ATOM      2  C   UNL     1       5.690   3.526  16.397  0.00  0.00    +0.000 A 
ATOM      3  C   UNL     1       6.253   4.174  15.306  0.00  0.00    +0.000 A 
ATOM      4  C   UNL     1       6.710   5.472  15.454  0.00  0.00    +0.000 A 
ATOM      5  C   UNL     1       6.632   6.123  16.691  0.00  0.00    +0.000 A 
ATOM      6  C   UNL     1       6.065   5.451  17.788  0.00  0.00    +0.000 A 
ENDROOT
BRANCH   1  12
ATOM      7  C   UNL     1       2.256   5.739  19.866  0.00  0.00    +0.000 A 
ATOM      8  C   UNL     1       1.641   4.975  20.832  0.00  0.00    +0.000 A 
ATOM      9  C   UNL     1       2.157   3.717  21.027  0.00  0.00    +0.000 A 
ATOM     10  N   UNL     1       3.211   3.225  20.347  0.00  0.00    +0.000 NA
ATOM     11  C   UNL     1       3.731   4.014  19.397  0.00  0.00    +0.000 A 
ATOM     12  N   UNL     1       4.845   3.536  18.694  0.00  0.00    +0.000 N 
ATOM     13  N   UNL     1       3.270   5.248  19.143  0.00  0.00    +0.000 NA
ATOM     14  H   UNL     1       5.340   2.874  19.268  0.00  0.00    +0.000 HD
BRANCH   7  18
ATOM     15  C   UNL     1       1.293   9.894  19.170  0.00  0.00    +0.000 A 
ATOM     16  C   UNL     1       0.997   9.270  20.379  0.00  0.00    +0.000 A 
ATOM     17  C   UNL     1       1.302   7.924  20.592  0.00  0.00    +0.000 A 
ATOM     18  C   UNL     1       1.909   7.149  19.598  0.00  0.00    +0.000 A 
ATOM     19  C   UNL     1       2.210   7.786  18.376  0.00  0.00    +0.000 A 
ATOM     20  C   UNL     1       1.891   9.138  18.154  0.00  0.00    +0.000 A 
BRANCH  15  24
ATOM     21  C   UNL     1      -0.258  13.268  18.514  0.00  0.00    +0.000 C 
ATOM     22  C   UNL     1      -0.263  11.819  18.910  0.00  0.00    +0.000 C 
ATOM     23  O   UNL     1      -1.321  11.261  19.178  0.00  0.00    +0.000 OA
ATOM     24  N   UNL     1       1.005  11.256  18.928  0.00  0.00    +0.000 N 
ATOM     25  H   UNL     1       1.793  11.883  18.849  0.00  0.00    +0.000 HD
ENDBRANCH  15  24
ENDBRANCH   7  18
ENDBRANCH   1  12
BRANCH   5  26
ATOM     26  N   UNL     1       7.097   7.451  16.859  0.00  0.00    +0.000 N 
ATOM     27  C   UNL     1       7.902   7.873  17.902  0.00  0.00    +0.000 C 
ATOM     28  O   UNL     1       8.332   7.186  18.822  0.00  0.00    +0.000 OA
ATOM     29  H   UNL     1       6.915   8.095  16.103  0.00  0.00    +0.000 HD
BRANCH  27  30
ATOM     30  C   UNL     1       8.288   9.331  17.838  0.00  0.00    +0.000 C 
BRANCH  30  31
ATOM     31  C   UNL     1       9.218   9.634  19.013  0.00  0.00    +0.000 C 
BRANCH  31  32
ATOM     32  C   UNL     1       9.368  11.122  19.302  0.00  0.00    +0.000 C 
BRANCH  32  33
ATOM     33  C   UNL     1      10.783  11.632  19.027  0.00  0.00    +0.000 C 
BRANCH  33  34
ATOM     34  C   UNL     1      11.031  11.763  17.531  0.00  0.00    +0.000 C 
BRANCH  34  35
ATOM     35  C   UNL     1      11.435  13.187  17.158  0.00  0.00    +0.000 C 
BRANCH  35  36
ATOM     36  C   UNL     1      11.138  14.148  18.288  0.00  0.00    +0.000 C 
ATOM     37  O   UNL     1      10.027  14.607  18.535  0.00  0.00    +0.000 OA
ATOM     38  N   UNL     1      12.236  14.465  19.044  0.00  0.00    +0.000 N 
ATOM     39  H   UNL     1      13.196  14.278  18.777  0.00  0.00    +0.000 HD
BRANCH  38  40
ATOM     40  O   UNL     1      12.024  15.415  20.068  0.00  0.00    +0.000 OA
ATOM     41  H   UNL     1      11.212  15.070  20.507  0.00  0.00    +0.000 HD
ENDBRANCH  38  40
ENDBRANCH  35  36
ENDBRANCH  34  35
ENDBRANCH  33  34
ENDBRANCH  32  33
ENDBRANCH  31  32
ENDBRANCH  30  31
ENDBRANCH  27  30
ENDBRANCH   5  26
TORSDOF 12
ENDMDL
