MODEL 1
REMARK VINA RESULT:      -7.4      0.000      0.000
REMARK  Name = 
REMARK  4 active torsions:
REMARK  status: ('A' for Active; 'I' for Inactive)
REMARK    1  A    between atoms: C_1  and  N_2
REMARK    2  A    between atoms: C_10  and  C_12
REMARK    3  A    between atoms: C_12  and  C_13
REMARK    4  A    between atoms: C_16  and  S_17
REMARK                            x       y       z     vdW  Elec       q    Type
REMARK                         _______ _______ _______ _____ _____    ______ ____
ROOT
ATOM      1  C   UNL     1       0.384   2.874  20.190  0.00  0.00    +0.000 C 
ATOM      2  N   UNL     1       1.822   2.961  19.988  0.00  0.00    +0.000 NA
ATOM      3  C   UNL     1       2.208   3.052  18.582  0.00  0.00    +0.000 C 
ATOM      4  C   UNL     1       2.027   4.438  17.976  0.00  0.00    +0.000 C 
ATOM      5  C   UNL     1       2.751   5.559  18.753  0.00  0.00    +0.000 C 
ATOM      6  C   UNL     1       2.147   6.927  18.262  0.00  0.00    +0.000 C 
ATOM      7  C   UNL     1       3.315   7.788  17.817  0.00  0.00    +0.000 C 
ATOM      8  C   UNL     1       4.346   6.778  17.393  0.00  0.00    +0.000 C 
ATOM      9  N   UNL     1       4.197   5.686  18.345  0.00  0.00    +0.000 N 
ATOM     10  C   UNL     1       5.243   4.801  18.639  0.00  0.00    +0.000 C 
ATOM     11  O   UNL     1       5.143   3.883  19.444  0.00  0.00    +0.000 OA
ATOM     12  C   UNL     1       2.460   5.412  20.260  0.00  0.00    +0.000 C 
ATOM     13  C   UNL     1       2.475   3.981  20.815  0.00  0.00    +0.000 C 
ENDROOT
BRANCH  10  14
ATOM     14  C   UNL     1       6.543   5.057  17.866  0.00  0.00    +0.000 C 
BRANCH  14  15
ATOM     15  C   UNL     1       6.655   4.651  16.406  0.00  0.00    +0.000 A 
ATOM     16  C   UNL     1       5.812   3.627  15.930  0.00  0.00    +0.000 A 
ATOM     17  C   UNL     1       5.751   3.314  14.571  0.00  0.00    +0.000 A 
ATOM     18  C   UNL     1       6.539   4.029  13.671  0.00  0.00    +0.000 A 
ATOM     19  C   UNL     1       7.377   5.055  14.117  0.00  0.00    +0.000 A 
ATOM     20  C   UNL     1       7.427   5.368  15.481  0.00  0.00    +0.000 A 
BRANCH  18  21
ATOM     21  S   UNL     1       6.466   3.666  11.940  0.00  0.00    +0.000 S 
ATOM     22  O   UNL     1       5.090   3.374  11.587  0.00  0.00    +0.000 OA
ATOM     23  O   UNL     1       7.235   4.676  11.239  0.00  0.00    +0.000 OA
ATOM     24  F   UNL     1       7.252   2.304  11.736  0.00  0.00    +0.000 F 
ENDBRANCH  18  21
ENDBRANCH  14  15
ENDBRANCH  10  14
TORSDOF 3
ENDMDL
MODEL 2
REMARK VINA RESULT:      -7.3      5.170      7.416
REMARK  Name = 
REMARK  4 active torsions:
REMARK  status: ('A' for Active; 'I' for Inactive)
REMARK    1  A    between atoms: C_1  and  N_2
REMARK    2  A    between atoms: C_10  and  C_12
REMARK    3  A    between atoms: C_12  and  C_13
REMARK    4  A    between atoms: C_16  and  S_17
REMARK                            x       y       z     vdW  Elec       q    Type
REMARK                         _______ _______ _______ _____ _____    ______ ____
ROOT
ATOM      1  C   UNL     1      -0.296  14.030  18.391  0.00  0.00    +0.000 C 
ATOM      2  N   UNL     1       0.209  12.667  18.450  0.00  0.00    +0.000 NA
ATOM      3  C   UNL     1       1.245  12.473  19.461  0.00  0.00    +0.000 C 
ATOM      4  C   UNL     1       0.711  12.350  20.883  0.00  0.00    +0.000 C 
ATOM      5  C   UNL     1      -0.352  11.243  21.057  0.00  0.00    +0.000 C 
ATOM      6  C   UNL     1      -1.078  11.511  22.427  0.00  0.00    +0.000 C 
ATOM      7  C   UNL     1      -0.987  10.226  23.230  0.00  0.00    +0.000 C 
ATOM      8  C   UNL     1       0.269   9.583  22.711  0.00  0.00    +0.000 C 
ATOM      9  N   UNL     1       0.273   9.891  21.287  0.00  0.00    +0.000 N 
ATOM     10  C   UNL     1       0.951   9.098  20.352  0.00  0.00    +0.000 C 
ATOM     11  O   UNL     1       0.958   9.332  19.150  0.00  0.00    +0.000 OA
ATOM     12  C   UNL     1      -1.394  11.348  19.925  0.00  0.00    +0.000 C 
ATOM     13  C   UNL     1      -0.844  11.649  18.524  0.00  0.00    +0.000 C 
ENDROOT
BRANCH  10  14
ATOM     14  C   UNL     1       1.704   7.900  20.944  0.00  0.00    +0.000 C 
BRANCH  14  15
ATOM     15  C   UNL     1       1.992   6.679  20.086  0.00  0.00    +0.000 A 
ATOM     16  C   UNL     1       2.752   6.851  18.912  0.00  0.00    +0.000 A 
ATOM     17  C   UNL     1       3.186   5.755  18.164  0.00  0.00    +0.000 A 
ATOM     18  C   UNL     1       2.860   4.469  18.590  0.00  0.00    +0.000 A 
ATOM     19  C   UNL     1       2.114   4.271  19.755  0.00  0.00    +0.000 A 
ATOM     20  C   UNL     1       1.690   5.375  20.503  0.00  0.00    +0.000 A 
BRANCH  18  21
ATOM     21  S   UNL     1       3.415   3.060  17.671  0.00  0.00    +0.000 S 
ATOM     22  O   UNL     1       2.273   2.462  17.007  0.00  0.00    +0.000 OA
ATOM     23  O   UNL     1       4.606   3.444  16.941  0.00  0.00    +0.000 OA
ATOM     24  F   UNL     1       3.888   1.989  18.741  0.00  0.00    +0.000 F 
ENDBRANCH  18  21
ENDBRANCH  14  15
ENDBRANCH  10  14
TORSDOF 3
ENDMDL
MODEL 3
REMARK VINA RESULT:      -7.3      5.319      7.727
REMARK  Name = 
REMARK  4 active torsions:
REMARK  status: ('A' for Active; 'I' for Inactive)
REMARK    1  A    between atoms: C_1  and  N_2
REMARK    2  A    between atoms: C_10  and  C_12
REMARK    3  A    between atoms: C_12  and  C_13
REMARK    4  A    between atoms: C_16  and  S_17
REMARK                            x       y       z     vdW  Elec       q    Type
REMARK                         _______ _______ _______ _____ _____    ______ ____
ROOT
ATOM      1  C   UNL     1       0.047  14.590  18.622  0.00  0.00    +0.000 C 
ATOM      2  N   UNL     1       0.475  13.200  18.660  0.00  0.00    +0.000 NA
ATOM      3  C   UNL     1       1.414  12.909  19.740  0.00  0.00    +0.000 C 
ATOM      4  C   UNL     1       0.759  12.756  21.108  0.00  0.00    +0.000 C 
ATOM      5  C   UNL     1      -0.370  11.703  21.146  0.00  0.00    +0.000 C 
ATOM      6  C   UNL     1      -1.192  11.954  22.465  0.00  0.00    +0.000 C 
ATOM      7  C   UNL     1      -1.233  10.635  23.213  0.00  0.00    +0.000 C 
ATOM      8  C   UNL     1       0.027   9.945  22.768  0.00  0.00    +0.000 C 
ATOM      9  N   UNL     1       0.163  10.311  21.364  0.00  0.00    +0.000 N 
ATOM     10  C   UNL     1       0.875   9.521  20.450  0.00  0.00    +0.000 C 
ATOM     11  O   UNL     1       0.993   9.804  19.265  0.00  0.00    +0.000 OA
ATOM     12  C   UNL     1      -1.309  11.912  19.940  0.00  0.00    +0.000 C 
ATOM     13  C   UNL     1      -0.631  12.239  18.603  0.00  0.00    +0.000 C 
ENDROOT
BRANCH  10  14
ATOM     14  C   UNL     1       1.514   8.260  21.046  0.00  0.00    +0.000 C 
BRANCH  14  15
ATOM     15  C   UNL     1       1.814   7.064  20.158  0.00  0.00    +0.000 A 
ATOM     16  C   UNL     1       2.482   7.289  18.938  0.00  0.00    +0.000 A 
ATOM     17  C   UNL     1       2.927   6.225  18.150  0.00  0.00    +0.000 A 
ATOM     18  C   UNL     1       2.708   4.919  18.584  0.00  0.00    +0.000 A 
ATOM     19  C   UNL     1       2.056   4.670  19.795  0.00  0.00    +0.000 A 
ATOM     20  C   UNL     1       1.619   5.742  20.581  0.00  0.00    +0.000 A 
BRANCH  18  21
ATOM     21  S   UNL     1       3.281   3.552  17.615  0.00  0.00    +0.000 S 
ATOM     22  O   UNL     1       4.195   2.766  18.421  0.00  0.00    +0.000 OA
ATOM     23  O   UNL     1       2.133   2.954  16.963  0.00  0.00    +0.000 OA
ATOM     24  F   UNL     1       4.167   4.169  16.454  0.00  0.00    +0.000 F 
ENDBRANCH  18  21
ENDBRANCH  14  15
ENDBRANCH  10  14
TORSDOF 3
ENDMDL
MODEL 4
REMARK VINA RESULT:      -7.2      5.692      7.965
REMARK  Name = 
REMARK  4 active torsions:
REMARK  status: ('A' for Active; 'I' for Inactive)
REMARK    1  A    between atoms: C_1  and  N_2
REMARK    2  A    between atoms: C_10  and  C_12
REMARK    3  A    between atoms: C_12  and  C_13
REMARK    4  A    between atoms: C_16  and  S_17
REMARK                            x       y       z     vdW  Elec       q    Type
REMARK                         _______ _______ _______ _____ _____    ______ ____
ROOT
ATOM      1  C   UNL     1       3.585   1.125  19.111  0.00  0.00    +0.000 C 
ATOM      2  N   UNL     1       3.060   2.482  19.131  0.00  0.00    +0.000 NA
ATOM      3  C   UNL     1       4.052   3.485  19.510  0.00  0.00    +0.000 C 
ATOM      4  C   UNL     1       5.014   3.861  18.389  0.00  0.00    +0.000 C 
ATOM      5  C   UNL     1       4.313   4.333  17.096  0.00  0.00    +0.000 C 
ATOM      6  C   UNL     1       5.385   4.285  15.945  0.00  0.00    +0.000 C 
ATOM      7  C   UNL     1       5.402   5.661  15.305  0.00  0.00    +0.000 C 
ATOM      8  C   UNL     1       4.968   6.569  16.424  0.00  0.00    +0.000 C 
ATOM      9  N   UNL     1       3.964   5.799  17.146  0.00  0.00    +0.000 N 
ATOM     10  C   UNL     1       2.964   6.409  17.916  0.00  0.00    +0.000 C 
ATOM     11  O   UNL     1       2.104   5.781  18.522  0.00  0.00    +0.000 OA
ATOM     12  C   UNL     1       3.174   3.355  16.742  0.00  0.00    +0.000 C 
ATOM     13  C   UNL     1       2.325   2.850  17.916  0.00  0.00    +0.000 C 
ENDROOT
BRANCH  10  14
ATOM     14  C   UNL     1       3.024   7.940  17.956  0.00  0.00    +0.000 C 
BRANCH  14  15
ATOM     15  C   UNL     1       1.983   8.724  18.739  0.00  0.00    +0.000 A 
ATOM     16  C   UNL     1       1.749   8.368  20.082  0.00  0.00    +0.000 A 
ATOM     17  C   UNL     1       0.925   9.142  20.902  0.00  0.00    +0.000 A 
ATOM     18  C   UNL     1       0.328  10.288  20.380  0.00  0.00    +0.000 A 
ATOM     19  C   UNL     1       0.551  10.667  19.054  0.00  0.00    +0.000 A 
ATOM     20  C   UNL     1       1.384   9.889  18.240  0.00  0.00    +0.000 A 
BRANCH  18  21
ATOM     21  S   UNL     1      -0.704  11.299  21.404  0.00  0.00    +0.000 S 
ATOM     22  O   UNL     1       0.130  12.271  22.083  0.00  0.00    +0.000 OA
ATOM     23  O   UNL     1      -1.857  11.698  20.621  0.00  0.00    +0.000 OA
ATOM     24  F   UNL     1      -1.263  10.352  22.547  0.00  0.00    +0.000 F 
ENDBRANCH  18  21
ENDBRANCH  14  15
ENDBRANCH  10  14
TORSDOF 3
ENDMDL
MODEL 5
REMARK VINA RESULT:      -7.1      5.221      7.504
REMARK  Name = 
REMARK  4 active torsions:
REMARK  status: ('A' for Active; 'I' for Inactive)
REMARK    1  A    between atoms: C_1  and  N_2
REMARK    2  A    between atoms: C_10  and  C_12
REMARK    3  A    between atoms: C_12  and  C_13
REMARK    4  A    between atoms: C_16  and  S_17
REMARK                            x       y       z     vdW  Elec       q    Type
REMARK                         _______ _______ _______ _____ _____    ______ ____
ROOT
ATOM      1  C   UNL     1      -0.093  14.225  18.402  0.00  0.00    +0.000 C 
ATOM      2  N   UNL     1       0.296  12.826  18.492  0.00  0.00    +0.000 NA
ATOM      3  C   UNL     1       1.279  12.561  19.540  0.00  0.00    +0.000 C 
ATOM      4  C   UNL     1       0.689  12.500  20.944  0.00  0.00    +0.000 C 
ATOM      5  C   UNL     1      -0.466  11.485  21.092  0.00  0.00    +0.000 C 
ATOM      6  C   UNL     1      -1.214  11.828  22.433  0.00  0.00    +0.000 C 
ATOM      7  C   UNL     1      -1.255  10.551  23.251  0.00  0.00    +0.000 C 
ATOM      8  C   UNL     1      -0.038   9.801  22.783  0.00  0.00    +0.000 C 
ATOM      9  N   UNL     1       0.038  10.090  21.356  0.00  0.00    +0.000 N 
ATOM     10  C   UNL     1       0.681   9.233  20.453  0.00  0.00    +0.000 C 
ATOM     11  O   UNL     1       0.747   9.451  19.250  0.00  0.00    +0.000 OA
ATOM     12  C   UNL     1      -1.458  11.660  19.923  0.00  0.00    +0.000 C 
ATOM     13  C   UNL     1      -0.838  11.898  18.540  0.00  0.00    +0.000 C 
ENDROOT
BRANCH  10  14
ATOM     14  C   UNL     1       1.313   7.985  21.083  0.00  0.00    +0.000 C 
BRANCH  14  15
ATOM     15  C   UNL     1       2.001   6.953  20.205  0.00  0.00    +0.000 A 
ATOM     16  C   UNL     1       1.904   5.595  20.570  0.00  0.00    +0.000 A 
ATOM     17  C   UNL     1       2.376   4.585  19.729  0.00  0.00    +0.000 A 
ATOM     18  C   UNL     1       2.951   4.930  18.507  0.00  0.00    +0.000 A 
ATOM     19  C   UNL     1       3.050   6.269  18.119  0.00  0.00    +0.000 A 
ATOM     20  C   UNL     1       2.569   7.274  18.965  0.00  0.00    +0.000 A 
BRANCH  18  21
ATOM     21  S   UNL     1       3.538   3.668  17.412  0.00  0.00    +0.000 S 
ATOM     22  O   UNL     1       4.482   4.262  16.486  0.00  0.00    +0.000 OA
ATOM     23  O   UNL     1       3.881   2.508  18.210  0.00  0.00    +0.000 OA
ATOM     24  F   UNL     1       2.296   3.233  16.527  0.00  0.00    +0.000 F 
ENDBRANCH  18  21
ENDBRANCH  14  15
ENDBRANCH  10  14
TORSDOF 3
ENDMDL
MODEL 6
REMARK VINA RESULT:      -7.1      5.669      8.061
REMARK  Name = 
REMARK  4 active torsions:
REMARK  status: ('A' for Active; 'I' for Inactive)
REMARK    1  A    between atoms: C_1  and  N_2
REMARK    2  A    between atoms: C_10  and  C_12
REMARK    3  A    between atoms: C_12  and  C_13
REMARK    4  A    between atoms: C_16  and  S_17
REMARK                            x       y       z     vdW  Elec       q    Type
REMARK                         _______ _______ _______ _____ _____    ______ ____
ROOT
ATOM      1  C   UNL     1       3.447   1.356  19.171  0.00  0.00    +0.000 C 
ATOM      2  N   UNL     1       2.844   2.664  18.965  0.00  0.00    +0.000 NA
ATOM      3  C   UNL     1       3.509   3.734  19.703  0.00  0.00    +0.000 C 
ATOM      4  C   UNL     1       4.805   4.218  19.064  0.00  0.00    +0.000 C 
ATOM      5  C   UNL     1       4.648   4.665  17.594  0.00  0.00    +0.000 C 
ATOM      6  C   UNL     1       6.094   4.735  16.975  0.00  0.00    +0.000 C 
ATOM      7  C   UNL     1       6.250   6.124  16.384  0.00  0.00    +0.000 C 
ATOM      8  C   UNL     1       5.325   6.963  17.224  0.00  0.00    +0.000 C 
ATOM      9  N   UNL     1       4.185   6.095  17.485  0.00  0.00    +0.000 N 
ATOM     10  C   UNL     1       2.911   6.600  17.778  0.00  0.00    +0.000 C 
ATOM     11  O   UNL     1       1.937   5.889  17.990  0.00  0.00    +0.000 OA
ATOM     12  C   UNL     1       3.838   3.606  16.818  0.00  0.00    +0.000 C 
ATOM     13  C   UNL     1       2.634   3.002  17.553  0.00  0.00    +0.000 C 
ENDROOT
BRANCH  10  14
ATOM     14  C   UNL     1       2.818   8.130  17.826  0.00  0.00    +0.000 C 
BRANCH  14  15
ATOM     15  C   UNL     1       1.875   8.807  18.807  0.00  0.00    +0.000 A 
ATOM     16  C   UNL     1       1.827   8.325  20.130  0.00  0.00    +0.000 A 
ATOM     17  C   UNL     1       1.104   8.996  21.119  0.00  0.00    +0.000 A 
ATOM     18  C   UNL     1       0.420  10.164  20.788  0.00  0.00    +0.000 A 
ATOM     19  C   UNL     1       0.459  10.667  19.484  0.00  0.00    +0.000 A 
ATOM     20  C   UNL     1       1.192   9.993  18.501  0.00  0.00    +0.000 A 
BRANCH  18  21
ATOM     21  S   UNL     1      -0.487  11.045  22.027  0.00  0.00    +0.000 S 
ATOM     22  O   UNL     1      -1.829  11.284  21.535  0.00  0.00    +0.000 OA
ATOM     23  O   UNL     1      -0.245  10.399  23.302  0.00  0.00    +0.000 OA
ATOM     24  F   UNL     1       0.184  12.478  22.134  0.00  0.00    +0.000 F 
ENDBRANCH  18  21
ENDBRANCH  14  15
ENDBRANCH  10  14
TORSDOF 3
ENDMDL
MODEL 7
REMARK VINA RESULT:      -7.1      5.621      8.062
REMARK  Name = 
REMARK  4 active torsions:
REMARK  status: ('A' for Active; 'I' for Inactive)
REMARK    1  A    between atoms: C_1  and  N_2
REMARK    2  A    between atoms: C_10  and  C_12
REMARK    3  A    between atoms: C_12  and  C_13
REMARK    4  A    between atoms: C_16  and  S_17
REMARK                            x       y       z     vdW  Elec       q    Type
REMARK                         _______ _______ _______ _____ _____    ______ ____
ROOT
ATOM      1  C   UNL     1       4.036   1.424  19.686  0.00  0.00    +0.000 C 
ATOM      2  N   UNL     1       3.254   2.628  19.449  0.00  0.00    +0.000 NA
ATOM      3  C   UNL     1       3.918   3.851  19.895  0.00  0.00    +0.000 C 
ATOM      4  C   UNL     1       4.999   4.352  18.944  0.00  0.00    +0.000 C 
ATOM      5  C   UNL     1       4.508   4.565  17.496  0.00  0.00    +0.000 C 
ATOM      6  C   UNL     1       5.788   4.676  16.586  0.00  0.00    +0.000 C 
ATOM      7  C   UNL     1       5.660   5.973  15.808  0.00  0.00    +0.000 C 
ATOM      8  C   UNL     1       4.823   6.837  16.711  0.00  0.00    +0.000 C 
ATOM      9  N   UNL     1       3.866   5.915  17.309  0.00  0.00    +0.000 N 
ATOM     10  C   UNL     1       2.623   6.340  17.797  0.00  0.00    +0.000 C 
ATOM     11  O   UNL     1       1.800   5.581  18.293  0.00  0.00    +0.000 OA
ATOM     12  C   UNL     1       3.695   3.335  17.043  0.00  0.00    +0.000 C 
ATOM     13  C   UNL     1       2.736   2.738  18.082  0.00  0.00    +0.000 C 
ENDROOT
BRANCH  10  14
ATOM     14  C   UNL     1       2.360   7.846  17.673  0.00  0.00    +0.000 C 
BRANCH  14  15
ATOM     15  C   UNL     1       1.848   8.632  18.868  0.00  0.00    +0.000 A 
ATOM     16  C   UNL     1       1.213   9.868  18.633  0.00  0.00    +0.000 A 
ATOM     17  C   UNL     1       0.581  10.564  19.666  0.00  0.00    +0.000 A 
ATOM     18  C   UNL     1       0.581  10.024  20.951  0.00  0.00    +0.000 A 
ATOM     19  C   UNL     1       1.197   8.796  21.208  0.00  0.00    +0.000 A 
ATOM     20  C   UNL     1       1.821   8.101  20.165  0.00  0.00    +0.000 A 
BRANCH  18  21
ATOM     21  S   UNL     1      -0.230  10.877  22.274  0.00  0.00    +0.000 S 
ATOM     22  O   UNL     1      -0.061  10.107  23.491  0.00  0.00    +0.000 OA
ATOM     23  O   UNL     1       0.143  12.276  22.199  0.00  0.00    +0.000 OA
ATOM     24  F   UNL     1      -1.782  10.824  21.954  0.00  0.00    +0.000 F 
ENDBRANCH  18  21
ENDBRANCH  14  15
ENDBRANCH  10  14
TORSDOF 3
ENDMDL
MODEL 8
REMARK VINA RESULT:      -7.1      5.511      8.134
REMARK  Name = 
REMARK  4 active torsions:
REMARK  status: ('A' for Active; 'I' for Inactive)
REMARK    1  A    between atoms: C_1  and  N_2
REMARK    2  A    between atoms: C_10  and  C_12
REMARK    3  A    between atoms: C_12  and  C_13
REMARK    4  A    between atoms: C_16  and  S_17
REMARK                            x       y       z     vdW  Elec       q    Type
REMARK                         _______ _______ _______ _____ _____    ______ ____
ROOT
ATOM      1  C   UNL     1       6.783   4.370  16.263  0.00  0.00    +0.000 C 
ATOM      2  N   UNL     1       6.043   5.087  17.291  0.00  0.00    +0.000 NA
ATOM      3  C   UNL     1       4.718   5.523  16.857  0.00  0.00    +0.000 C 
ATOM      4  C   UNL     1       3.669   4.417  16.855  0.00  0.00    +0.000 C 
ATOM      5  C   UNL     1       3.523   3.693  18.211  0.00  0.00    +0.000 C 
ATOM      6  C   UNL     1       2.735   2.358  17.940  0.00  0.00    +0.000 C 
ATOM      7  C   UNL     1       1.550   2.349  18.888  0.00  0.00    +0.000 C 
ATOM      8  C   UNL     1       1.276   3.811  19.114  0.00  0.00    +0.000 C 
ATOM      9  N   UNL     1       2.597   4.426  19.147  0.00  0.00    +0.000 N 
ATOM     10  C   UNL     1       2.844   5.633  19.815  0.00  0.00    +0.000 C 
ATOM     11  O   UNL     1       3.947   6.161  19.864  0.00  0.00    +0.000 OA
ATOM     12  C   UNL     1       4.921   3.330  18.753  0.00  0.00    +0.000 C 
ATOM     13  C   UNL     1       6.011   4.397  18.584  0.00  0.00    +0.000 C 
ENDROOT
BRANCH  10  14
ATOM     14  C   UNL     1       1.616   6.264  20.484  0.00  0.00    +0.000 C 
BRANCH  14  15
ATOM     15  C   UNL     1       1.451   7.775  20.504  0.00  0.00    +0.000 A 
ATOM     16  C   UNL     1       1.503   8.469  19.279  0.00  0.00    +0.000 A 
ATOM     17  C   UNL     1       1.203   9.832  19.206  0.00  0.00    +0.000 A 
ATOM     18  C   UNL     1       0.844  10.512  20.368  0.00  0.00    +0.000 A 
ATOM     19  C   UNL     1       0.777   9.844  21.594  0.00  0.00    +0.000 A 
ATOM     20  C   UNL     1       1.072   8.477  21.656  0.00  0.00    +0.000 A 
BRANCH  18  21
ATOM     21  S   UNL     1       0.439  12.235  20.300  0.00  0.00    +0.000 S 
ATOM     22  O   UNL     1       0.776  12.839  21.574  0.00  0.00    +0.000 OA
ATOM     23  O   UNL     1       0.943  12.764  19.049  0.00  0.00    +0.000 OA
ATOM     24  F   UNL     1      -1.142  12.317  20.200  0.00  0.00    +0.000 F 
ENDBRANCH  18  21
ENDBRANCH  14  15
ENDBRANCH  10  14
TORSDOF 3
ENDMDL
MODEL 9
REMARK VINA RESULT:      -7.1      5.620      7.685
REMARK  Name = 
REMARK  4 active torsions:
REMARK  status: ('A' for Active; 'I' for Inactive)
REMARK    1  A    between atoms: C_1  and  N_2
REMARK    2  A    between atoms: C_10  and  C_12
REMARK    3  A    between atoms: C_12  and  C_13
REMARK    4  A    between atoms: C_16  and  S_17
REMARK                            x       y       z     vdW  Elec       q    Type
REMARK                         _______ _______ _______ _____ _____    ______ ____
ROOT
ATOM      1  C   UNL     1       3.734   0.937  18.680  0.00  0.00    +0.000 C 
ATOM      2  N   UNL     1       3.128   2.170  19.156  0.00  0.00    +0.000 NA
ATOM      3  C   UNL     1       4.088   3.104  19.739  0.00  0.00    +0.000 C 
ATOM      4  C   UNL     1       4.898   3.885  18.711  0.00  0.00    +0.000 C 
ATOM      5  C   UNL     1       4.034   4.652  17.687  0.00  0.00    +0.000 C 
ATOM      6  C   UNL     1       4.977   5.049  16.491  0.00  0.00    +0.000 C 
ATOM      7  C   UNL     1       4.837   6.549  16.303  0.00  0.00    +0.000 C 
ATOM      8  C   UNL     1       4.468   7.037  17.676  0.00  0.00    +0.000 C 
ATOM      9  N   UNL     1       3.599   5.997  18.210  0.00  0.00    +0.000 N 
ATOM     10  C   UNL     1       2.650   6.254  19.209  0.00  0.00    +0.000 C 
ATOM     11  O   UNL     1       1.902   5.397  19.663  0.00  0.00    +0.000 OA
ATOM     12  C   UNL     1       2.929   3.721  17.146  0.00  0.00    +0.000 C 
ATOM     13  C   UNL     1       2.245   2.813  18.177  0.00  0.00    +0.000 C 
ENDROOT
BRANCH  10  14
ATOM     14  C   UNL     1       2.615   7.703  19.710  0.00  0.00    +0.000 C 
BRANCH  14  15
ATOM     15  C   UNL     1       1.437   8.600  19.370  0.00  0.00    +0.000 A 
ATOM     16  C   UNL     1       0.678   9.136  20.430  0.00  0.00    +0.000 A 
ATOM     17  C   UNL     1      -0.317  10.089  20.197  0.00  0.00    +0.000 A 
ATOM     18  C   UNL     1      -0.559  10.516  18.893  0.00  0.00    +0.000 A 
ATOM     19  C   UNL     1       0.186  10.005  17.826  0.00  0.00    +0.000 A 
ATOM     20  C   UNL     1       1.185   9.056  18.069  0.00  0.00    +0.000 A 
BRANCH  18  21
ATOM     21  S   UNL     1      -1.800  11.738  18.573  0.00  0.00    +0.000 S 
ATOM     22  O   UNL     1      -2.741  11.200  17.610  0.00  0.00    +0.000 OA
ATOM     23  O   UNL     1      -2.235  12.277  19.846  0.00  0.00    +0.000 OA
ATOM     24  F   UNL     1      -1.068  12.930  17.826  0.00  0.00    +0.000 F 
ENDBRANCH  18  21
ENDBRANCH  14  15
ENDBRANCH  10  14
TORSDOF 3
ENDMDL
