MODEL 1
REMARK VINA RESULT:      -7.8      0.000      0.000
REMARK  Name = 
REMARK  6 active torsions:
REMARK  status: ('A' for Active; 'I' for Inactive)
REMARK    1  A    between atoms: C_1  and  C_2
REMARK    2  A    between atoms: C_4  and  N_5
REMARK    3  A    between atoms: C_15  and  S_16
REMARK    4  A    between atoms: S_16  and  N_19
REMARK    5  A    between atoms: N_19  and  C_20
REMARK    6  A    between atoms: N_19  and  C_21
REMARK                            x       y       z     vdW  Elec       q    Type
REMARK                         _______ _______ _______ _____ _____    ______ ____
ROOT
ATOM      1  C   UNL     1       0.711   8.740  21.942  0.00  0.00    +0.000 C 
ATOM      2  C   UNL     1       1.293   8.479  20.581  0.00  0.00    +0.000 A 
ATOM      3  C   UNL     1       1.737   7.156  20.344  0.00  0.00    +0.000 A 
ATOM      4  C   UNL     1       2.278   6.737  19.121  0.00  0.00    +0.000 A 
ATOM      5  C   UNL     1       2.388   7.695  18.107  0.00  0.00    +0.000 A 
ATOM      6  C   UNL     1       1.973   9.016  18.316  0.00  0.00    +0.000 A 
ATOM      7  C   UNL     1       1.459   9.428  19.558  0.00  0.00    +0.000 A 
ENDROOT
BRANCH   4   8
ATOM      8  N   UNL     1       2.717   5.388  18.903  0.00  0.00    +0.000 N 
ATOM      9  N   UNL     1       1.730   4.560  18.389  0.00  0.00    +0.000 NA
ATOM     10  C   UNL     1       2.045   3.342  18.102  0.00  0.00    +0.000 A 
ATOM     11  C   UNL     1       3.411   2.781  18.306  0.00  0.00    +0.000 A 
ATOM     12  O   UNL     1       3.644   1.621  18.008  0.00  0.00    +0.000 OA
ATOM     13  N   UNL     1       4.309   3.654  18.825  0.00  0.00    +0.000 N 
ATOM     14  C   UNL     1       4.028   4.952  19.165  0.00  0.00    +0.000 A 
ATOM     15  O   UNL     1       4.935   5.600  19.684  0.00  0.00    +0.000 OA
ATOM     16  H   UNL     1       5.242   3.328  19.025  0.00  0.00    +0.000 HD
ENDBRANCH   4   8
BRANCH   7  17
ATOM     17  S   UNL     1       0.954  11.152  19.668  0.00  0.00    +0.000 S 
ATOM     18  O   UNL     1       1.368  11.627  20.971  0.00  0.00    +0.000 OA
ATOM     19  O   UNL     1       1.410  11.853  18.484  0.00  0.00    +0.000 OA
BRANCH  17  20
ATOM     20  N   UNL     1      -0.768  11.093  19.612  0.00  0.00    +0.000 NA
ATOM     21  C   UNL     1      -1.441  11.756  20.754  0.00  0.00    +0.000 C 
BRANCH  20  22
ATOM     22  C   UNL     1      -1.454  11.265  18.292  0.00  0.00    +0.000 C 
ATOM     23  C   UNL     1      -1.527   9.965  17.492  0.00  0.00    +0.000 C 
ATOM     24  C   UNL     1      -2.627  10.197  16.469  0.00  0.00    +0.000 C 
ATOM     25  C   UNL     1      -3.621  11.128  17.145  0.00  0.00    +0.000 C 
ATOM     26  C   UNL     1      -2.946  11.616  18.427  0.00  0.00    +0.000 C 
ENDBRANCH  20  22
ENDBRANCH  17  20
ENDBRANCH   7  17
TORSDOF 4
ENDMDL
MODEL 2
REMARK VINA RESULT:      -7.7      1.020      1.353
REMARK  Name = 
REMARK  6 active torsions:
REMARK  status: ('A' for Active; 'I' for Inactive)
REMARK    1  A    between atoms: C_1  and  C_2
REMARK    2  A    between atoms: C_4  and  N_5
REMARK    3  A    between atoms: C_15  and  S_16
REMARK    4  A    between atoms: S_16  and  N_19
REMARK    5  A    between atoms: N_19  and  C_20
REMARK    6  A    between atoms: N_19  and  C_21
REMARK                            x       y       z     vdW  Elec       q    Type
REMARK                         _______ _______ _______ _____ _____    ______ ____
ROOT
ATOM      1  C   UNL     1       0.666   8.692  21.844  0.00  0.00    +0.000 C 
ATOM      2  C   UNL     1       1.278   8.421  20.498  0.00  0.00    +0.000 A 
ATOM      3  C   UNL     1       1.719   7.094  20.278  0.00  0.00    +0.000 A 
ATOM      4  C   UNL     1       2.285   6.666  19.070  0.00  0.00    +0.000 A 
ATOM      5  C   UNL     1       2.425   7.618  18.054  0.00  0.00    +0.000 A 
ATOM      6  C   UNL     1       2.013   8.942  18.247  0.00  0.00    +0.000 A 
ATOM      7  C   UNL     1       1.472   9.364  19.474  0.00  0.00    +0.000 A 
ENDROOT
BRANCH   4   8
ATOM      8  N   UNL     1       2.721   5.313  18.869  0.00  0.00    +0.000 N 
ATOM      9  N   UNL     1       3.873   4.992  19.571  0.00  0.00    +0.000 NA
ATOM     10  C   UNL     1       4.311   3.779  19.502  0.00  0.00    +0.000 A 
ATOM     11  C   UNL     1       3.646   2.716  18.698  0.00  0.00    +0.000 A 
ATOM     12  O   UNL     1       4.109   1.587  18.680  0.00  0.00    +0.000 OA
ATOM     13  N   UNL     1       2.536   3.119  18.032  0.00  0.00    +0.000 N 
ATOM     14  C   UNL     1       2.036   4.395  18.053  0.00  0.00    +0.000 A 
ATOM     15  O   UNL     1       1.055   4.620  17.346  0.00  0.00    +0.000 OA
ATOM     16  H   UNL     1       2.061   2.459  17.437  0.00  0.00    +0.000 HD
ENDBRANCH   4   8
BRANCH   7  17
ATOM     17  S   UNL     1       0.976  11.092  19.564  0.00  0.00    +0.000 S 
ATOM     18  O   UNL     1       1.369  11.572  20.871  0.00  0.00    +0.000 OA
ATOM     19  O   UNL     1       1.458  11.782  18.384  0.00  0.00    +0.000 OA
BRANCH  17  20
ATOM     20  N   UNL     1      -0.745  11.042  19.477  0.00  0.00    +0.000 NA
ATOM     21  C   UNL     1      -1.435  11.752  20.580  0.00  0.00    +0.000 C 
BRANCH  20  22
ATOM     22  C   UNL     1      -1.404  11.169  18.139  0.00  0.00    +0.000 C 
ATOM     23  C   UNL     1      -1.531   9.829  17.414  0.00  0.00    +0.000 C 
ATOM     24  C   UNL     1      -2.605  10.054  16.362  0.00  0.00    +0.000 C 
ATOM     25  C   UNL     1      -3.561  11.070  16.967  0.00  0.00    +0.000 C 
ATOM     26  C   UNL     1      -2.879  11.598  18.229  0.00  0.00    +0.000 C 
ENDBRANCH  20  22
ENDBRANCH  17  20
ENDBRANCH   7  17
TORSDOF 4
ENDMDL
MODEL 3
REMARK VINA RESULT:      -7.6      1.311      1.505
REMARK  Name = 
REMARK  6 active torsions:
REMARK  status: ('A' for Active; 'I' for Inactive)
REMARK    1  A    between atoms: C_1  and  C_2
REMARK    2  A    between atoms: C_4  and  N_5
REMARK    3  A    between atoms: C_15  and  S_16
REMARK    4  A    between atoms: S_16  and  N_19
REMARK    5  A    between atoms: N_19  and  C_20
REMARK    6  A    between atoms: N_19  and  C_21
REMARK                            x       y       z     vdW  Elec       q    Type
REMARK                         _______ _______ _______ _____ _____    ______ ____
ROOT
ATOM      1  C   UNL     1       0.208   9.188  22.117  0.00  0.00    +0.000 C 
ATOM      2  C   UNL     1       0.948   8.813  20.864  0.00  0.00    +0.000 A 
ATOM      3  C   UNL     1       1.475   7.499  20.829  0.00  0.00    +0.000 A 
ATOM      4  C   UNL     1       2.166   6.979  19.727  0.00  0.00    +0.000 A 
ATOM      5  C   UNL     1       2.345   7.825  18.626  0.00  0.00    +0.000 A 
ATOM      6  C   UNL     1       1.851   9.134  18.636  0.00  0.00    +0.000 A 
ATOM      7  C   UNL     1       1.184   9.651  19.761  0.00  0.00    +0.000 A 
ENDROOT
BRANCH   4   8
ATOM      8  N   UNL     1       2.687   5.642  19.713  0.00  0.00    +0.000 N 
ATOM      9  N   UNL     1       4.009   5.566  19.299  0.00  0.00    +0.000 NA
ATOM     10  C   UNL     1       4.586   4.412  19.311  0.00  0.00    +0.000 A 
ATOM     11  C   UNL     1       3.899   3.159  19.736  0.00  0.00    +0.000 A 
ATOM     12  O   UNL     1       4.505   2.100  19.728  0.00  0.00    +0.000 OA
ATOM     13  N   UNL     1       2.606   3.322  20.110  0.00  0.00    +0.000 N 
ATOM     14  C   UNL     1       1.937   4.518  20.101  0.00  0.00    +0.000 A 
ATOM     15  O   UNL     1       0.747   4.492  20.410  0.00  0.00    +0.000 OA
ATOM     16  H   UNL     1       2.071   2.508  20.371  0.00  0.00    +0.000 HD
ENDBRANCH   4   8
BRANCH   7  17
ATOM     17  S   UNL     1       0.593  11.345  19.617  0.00  0.00    +0.000 S 
ATOM     18  O   UNL     1       0.891  12.000  20.872  0.00  0.00    +0.000 OA
ATOM     19  O   UNL     1       1.099  11.917  18.385  0.00  0.00    +0.000 OA
BRANCH  17  20
ATOM     20  N   UNL     1      -1.116  11.184  19.458  0.00  0.00    +0.000 NA
ATOM     21  C   UNL     1      -1.897  11.886  20.504  0.00  0.00    +0.000 C 
BRANCH  20  22
ATOM     22  C   UNL     1      -1.721  11.225  18.089  0.00  0.00    +0.000 C 
ATOM     23  C   UNL     1      -1.600   9.892  17.351  0.00  0.00    +0.000 C 
ATOM     24  C   UNL     1      -2.643   9.960  16.247  0.00  0.00    +0.000 C 
ATOM     25  C   UNL     1      -3.775  10.805  16.809  0.00  0.00    +0.000 C 
ATOM     26  C   UNL     1      -3.248  11.417  18.107  0.00  0.00    +0.000 C 
ENDBRANCH  20  22
ENDBRANCH  17  20
ENDBRANCH   7  17
TORSDOF 4
ENDMDL
MODEL 4
REMARK VINA RESULT:      -7.3      3.031      7.898
REMARK  Name = 
REMARK  6 active torsions:
REMARK  status: ('A' for Active; 'I' for Inactive)
REMARK    1  A    between atoms: C_1  and  C_2
REMARK    2  A    between atoms: C_4  and  N_5
REMARK    3  A    between atoms: C_15  and  S_16
REMARK    4  A    between atoms: S_16  and  N_19
REMARK    5  A    between atoms: N_19  and  C_20
REMARK    6  A    between atoms: N_19  and  C_21
REMARK                            x       y       z     vdW  Elec       q    Type
REMARK                         _______ _______ _______ _____ _____    ______ ____
ROOT
ATOM      1  C   UNL     1       2.281   3.798  21.024  0.00  0.00    +0.000 C 
ATOM      2  C   UNL     1       2.417   5.012  20.148  0.00  0.00    +0.000 A 
ATOM      3  C   UNL     1       1.812   6.195  20.637  0.00  0.00    +0.000 A 
ATOM      4  C   UNL     1       1.870   7.421  19.961  0.00  0.00    +0.000 A 
ATOM      5  C   UNL     1       2.549   7.447  18.737  0.00  0.00    +0.000 A 
ATOM      6  C   UNL     1       3.143   6.290  18.219  0.00  0.00    +0.000 A 
ATOM      7  C   UNL     1       3.053   5.061  18.896  0.00  0.00    +0.000 A 
ENDROOT
BRANCH   4   8
ATOM      8  N   UNL     1       1.252   8.609  20.479  0.00  0.00    +0.000 N 
ATOM      9  N   UNL     1       1.172   8.633  21.864  0.00  0.00    +0.000 NA
ATOM     10  C   UNL     1       0.687   9.687  22.428  0.00  0.00    +0.000 A 
ATOM     11  C   UNL     1       0.200  10.871  21.665  0.00  0.00    +0.000 A 
ATOM     12  O   UNL     1      -0.242  11.839  22.262  0.00  0.00    +0.000 OA
ATOM     13  N   UNL     1       0.302  10.757  20.318  0.00  0.00    +0.000 N 
ATOM     14  C   UNL     1       0.791   9.657  19.664  0.00  0.00    +0.000 A 
ATOM     15  O   UNL     1       0.760   9.681  18.435  0.00  0.00    +0.000 OA
ATOM     16  H   UNL     1      -0.047  11.507  19.741  0.00  0.00    +0.000 HD
ENDBRANCH   4   8
BRANCH   7  17
ATOM     17  S   UNL     1       3.880   3.667  18.112  0.00  0.00    +0.000 S 
ATOM     18  O   UNL     1       4.351   2.808  19.177  0.00  0.00    +0.000 OA
ATOM     19  O   UNL     1       3.009   3.116  17.094  0.00  0.00    +0.000 OA
BRANCH  17  20
ATOM     20  N   UNL     1       5.237   4.374  17.318  0.00  0.00    +0.000 NA
ATOM     21  C   UNL     1       5.108   4.457  15.844  0.00  0.00    +0.000 C 
BRANCH  20  22
ATOM     22  C   UNL     1       5.918   5.545  17.956  0.00  0.00    +0.000 C 
ATOM     23  C   UNL     1       7.253   5.172  18.600  0.00  0.00    +0.000 C 
ATOM     24  C   UNL     1       7.996   6.489  18.749  0.00  0.00    +0.000 C 
ATOM     25  C   UNL     1       7.544   7.347  17.579  0.00  0.00    +0.000 C 
ATOM     26  C   UNL     1       6.365   6.611  16.940  0.00  0.00    +0.000 C 
ENDBRANCH  20  22
ENDBRANCH  17  20
ENDBRANCH   7  17
TORSDOF 4
ENDMDL
MODEL 5
REMARK VINA RESULT:      -7.3      2.773      3.426
REMARK  Name = 
REMARK  6 active torsions:
REMARK  status: ('A' for Active; 'I' for Inactive)
REMARK    1  A    between atoms: C_1  and  C_2
REMARK    2  A    between atoms: C_4  and  N_5
REMARK    3  A    between atoms: C_15  and  S_16
REMARK    4  A    between atoms: S_16  and  N_19
REMARK    5  A    between atoms: N_19  and  C_20
REMARK    6  A    between atoms: N_19  and  C_21
REMARK                            x       y       z     vdW  Elec       q    Type
REMARK                         _______ _______ _______ _____ _____    ______ ____
ROOT
ATOM      1  C   UNL     1       1.093   8.362  21.811  0.00  0.00    +0.000 C 
ATOM      2  C   UNL     1       1.449   8.562  20.364  0.00  0.00    +0.000 A 
ATOM      3  C   UNL     1       2.151   7.497  19.749  0.00  0.00    +0.000 A 
ATOM      4  C   UNL     1       2.532   7.508  18.401  0.00  0.00    +0.000 A 
ATOM      5  C   UNL     1       2.206   8.645  17.652  0.00  0.00    +0.000 A 
ATOM      6  C   UNL     1       1.527   9.721  18.236  0.00  0.00    +0.000 A 
ATOM      7  C   UNL     1       1.176   9.707  19.597  0.00  0.00    +0.000 A 
ENDROOT
BRANCH   4   8
ATOM      8  N   UNL     1       3.239   6.413  17.798  0.00  0.00    +0.000 N 
ATOM      9  N   UNL     1       4.450   6.781  17.231  0.00  0.00    +0.000 NA
ATOM     10  C   UNL     1       5.188   5.856  16.716  0.00  0.00    +0.000 A 
ATOM     11  C   UNL     1       4.798   4.418  16.693  0.00  0.00    +0.000 A 
ATOM     12  O   UNL     1       5.545   3.592  16.195  0.00  0.00    +0.000 OA
ATOM     13  N   UNL     1       3.593   4.149  17.255  0.00  0.00    +0.000 N 
ATOM     14  C   UNL     1       2.760   5.092  17.800  0.00  0.00    +0.000 A 
ATOM     15  O   UNL     1       1.671   4.698  18.215  0.00  0.00    +0.000 OA
ATOM     16  H   UNL     1       3.250   3.201  17.237  0.00  0.00    +0.000 HD
ENDBRANCH   4   8
BRANCH   7  17
ATOM     17  S   UNL     1       0.294  11.156  20.198  0.00  0.00    +0.000 S 
ATOM     18  O   UNL     1      -1.109  10.807  20.234  0.00  0.00    +0.000 OA
ATOM     19  O   UNL     1       0.935  11.628  21.409  0.00  0.00    +0.000 OA
BRANCH  17  20
ATOM     20  N   UNL     1       0.547  12.343  18.973  0.00  0.00    +0.000 NA
ATOM     21  C   UNL     1      -0.697  12.863  18.359  0.00  0.00    +0.000 C 
BRANCH  20  22
ATOM     22  C   UNL     1       1.626  13.363  19.169  0.00  0.00    +0.000 C 
ATOM     23  C   UNL     1       2.761  13.223  18.154  0.00  0.00    +0.000 C 
ATOM     24  C   UNL     1       3.476  14.564  18.179  0.00  0.00    +0.000 C 
ATOM     25  C   UNL     1       2.401  15.593  18.488  0.00  0.00    +0.000 C 
ATOM     26  C   UNL     1       1.156  14.802  18.891  0.00  0.00    +0.000 C 
ENDBRANCH  20  22
ENDBRANCH  17  20
ENDBRANCH   7  17
TORSDOF 4
ENDMDL
MODEL 6
REMARK VINA RESULT:      -7.3      0.666      1.476
REMARK  Name = 
REMARK  6 active torsions:
REMARK  status: ('A' for Active; 'I' for Inactive)
REMARK    1  A    between atoms: C_1  and  C_2
REMARK    2  A    between atoms: C_4  and  N_5
REMARK    3  A    between atoms: C_15  and  S_16
REMARK    4  A    between atoms: S_16  and  N_19
REMARK    5  A    between atoms: N_19  and  C_20
REMARK    6  A    between atoms: N_19  and  C_21
REMARK                            x       y       z     vdW  Elec       q    Type
REMARK                         _______ _______ _______ _____ _____    ______ ____
ROOT
ATOM      1  C   UNL     1       2.114   9.747  17.632  0.00  0.00    +0.000 C 
ATOM      2  C   UNL     1       1.905   8.810  18.789  0.00  0.00    +0.000 A 
ATOM      3  C   UNL     1       2.300   7.468  18.574  0.00  0.00    +0.000 A 
ATOM      4  C   UNL     1       2.201   6.474  19.556  0.00  0.00    +0.000 A 
ATOM      5  C   UNL     1       1.667   6.847  20.795  0.00  0.00    +0.000 A 
ATOM      6  C   UNL     1       1.252   8.162  21.033  0.00  0.00    +0.000 A 
ATOM      7  C   UNL     1       1.331   9.143  20.028  0.00  0.00    +0.000 A 
ENDROOT
BRANCH   4   8
ATOM      8  N   UNL     1       2.613   5.119  19.316  0.00  0.00    +0.000 N 
ATOM      9  N   UNL     1       1.556   4.250  19.092  0.00  0.00    +0.000 NA
ATOM     10  C   UNL     1       1.828   3.021  18.807  0.00  0.00    +0.000 A 
ATOM     11  C   UNL     1       3.218   2.491  18.718  0.00  0.00    +0.000 A 
ATOM     12  O   UNL     1       3.406   1.318  18.439  0.00  0.00    +0.000 OA
ATOM     13  N   UNL     1       4.189   3.405  18.966  0.00  0.00    +0.000 N 
ATOM     14  C   UNL     1       3.960   4.716  19.291  0.00  0.00    +0.000 A 
ATOM     15  O   UNL     1       4.945   5.406  19.548  0.00  0.00    +0.000 OA
ATOM     16  H   UNL     1       5.151   3.103  18.962  0.00  0.00    +0.000 HD
ENDBRANCH   4   8
BRANCH   7  17
ATOM     17  S   UNL     1       0.773  10.791  20.489  0.00  0.00    +0.000 S 
ATOM     18  O   UNL     1       0.862  10.874  21.931  0.00  0.00    +0.000 OA
ATOM     19  O   UNL     1       1.474  11.768  19.681  0.00  0.00    +0.000 OA
BRANCH  17  20
ATOM     20  N   UNL     1      -0.887  10.820  20.026  0.00  0.00    +0.000 NA
ATOM     21  C   UNL     1      -1.774  11.537  20.971  0.00  0.00    +0.000 C 
BRANCH  20  22
ATOM     22  C   UNL     1      -1.229  11.004  18.579  0.00  0.00    +0.000 C 
ATOM     23  C   UNL     1      -1.513   9.681  17.867  0.00  0.00    +0.000 C 
ATOM     24  C   UNL     1      -2.285  10.068  16.617  0.00  0.00    +0.000 C 
ATOM     25  C   UNL     1      -3.085  11.303  16.998  0.00  0.00    +0.000 C 
ATOM     26  C   UNL     1      -2.558  11.749  18.362  0.00  0.00    +0.000 C 
ENDBRANCH  20  22
ENDBRANCH  17  20
ENDBRANCH   7  17
TORSDOF 4
ENDMDL
MODEL 7
REMARK VINA RESULT:      -7.3      2.892      7.820
REMARK  Name = 
REMARK  6 active torsions:
REMARK  status: ('A' for Active; 'I' for Inactive)
REMARK    1  A    between atoms: C_1  and  C_2
REMARK    2  A    between atoms: C_4  and  N_5
REMARK    3  A    between atoms: C_15  and  S_16
REMARK    4  A    between atoms: S_16  and  N_19
REMARK    5  A    between atoms: N_19  and  C_20
REMARK    6  A    between atoms: N_19  and  C_21
REMARK                            x       y       z     vdW  Elec       q    Type
REMARK                         _______ _______ _______ _____ _____    ______ ____
ROOT
ATOM      1  C   UNL     1       2.146   4.403  21.148  0.00  0.00    +0.000 C 
ATOM      2  C   UNL     1       2.299   5.537  20.174  0.00  0.00    +0.000 A 
ATOM      3  C   UNL     1       1.646   6.743  20.524  0.00  0.00    +0.000 A 
ATOM      4  C   UNL     1       1.711   7.904  19.743  0.00  0.00    +0.000 A 
ATOM      5  C   UNL     1       2.451   7.838  18.556  0.00  0.00    +0.000 A 
ATOM      6  C   UNL     1       3.095   6.656  18.174  0.00  0.00    +0.000 A 
ATOM      7  C   UNL     1       2.997   5.490  18.954  0.00  0.00    +0.000 A 
ENDROOT
BRANCH   4   8
ATOM      8  N   UNL     1       1.043   9.118  20.121  0.00  0.00    +0.000 N 
ATOM      9  N   UNL     1       0.355   9.720  19.078  0.00  0.00    +0.000 NA
ATOM     10  C   UNL     1      -0.328  10.785  19.333  0.00  0.00    +0.000 A 
ATOM     11  C   UNL     1      -0.403  11.402  20.687  0.00  0.00    +0.000 A 
ATOM     12  O   UNL     1      -1.072  12.408  20.862  0.00  0.00    +0.000 OA
ATOM     13  N   UNL     1       0.311  10.758  21.644  0.00  0.00    +0.000 N 
ATOM     14  C   UNL     1       1.067   9.636  21.428  0.00  0.00    +0.000 A 
ATOM     15  O   UNL     1       1.708   9.204  22.385  0.00  0.00    +0.000 OA
ATOM     16  H   UNL     1       0.336  11.147  22.574  0.00  0.00    +0.000 HD
ENDBRANCH   4   8
BRANCH   7  17
ATOM     17  S   UNL     1       3.892   4.054  18.341  0.00  0.00    +0.000 S 
ATOM     18  O   UNL     1       4.392   3.347  19.499  0.00  0.00    +0.000 OA
ATOM     19  O   UNL     1       3.055   3.349  17.390  0.00  0.00    +0.000 OA
BRANCH  17  20
ATOM     20  N   UNL     1       5.222   4.724  17.473  0.00  0.00    +0.000 NA
ATOM     21  C   UNL     1       5.012   4.821  16.010  0.00  0.00    +0.000 C 
BRANCH  20  22
ATOM     22  C   UNL     1       5.974   5.870  18.077  0.00  0.00    +0.000 C 
ATOM     23  C   UNL     1       7.330   5.451  18.646  0.00  0.00    +0.000 C 
ATOM     24  C   UNL     1       8.123   6.743  18.759  0.00  0.00    +0.000 C 
ATOM     25  C   UNL     1       7.635   7.621  17.618  0.00  0.00    +0.000 C 
ATOM     26  C   UNL     1       6.400   6.927  17.043  0.00  0.00    +0.000 C 
ENDBRANCH  20  22
ENDBRANCH  17  20
ENDBRANCH   7  17
TORSDOF 4
ENDMDL
MODEL 8
REMARK VINA RESULT:      -7.3      3.192      8.020
REMARK  Name = 
REMARK  6 active torsions:
REMARK  status: ('A' for Active; 'I' for Inactive)
REMARK    1  A    between atoms: C_1  and  C_2
REMARK    2  A    between atoms: C_4  and  N_5
REMARK    3  A    between atoms: C_15  and  S_16
REMARK    4  A    between atoms: S_16  and  N_19
REMARK    5  A    between atoms: N_19  and  C_20
REMARK    6  A    between atoms: N_19  and  C_21
REMARK                            x       y       z     vdW  Elec       q    Type
REMARK                         _______ _______ _______ _____ _____    ______ ____
ROOT
ATOM      1  C   UNL     1       2.362   3.906  21.109  0.00  0.00    +0.000 C 
ATOM      2  C   UNL     1       2.602   5.094  20.220  0.00  0.00    +0.000 A 
ATOM      3  C   UNL     1       1.869   6.262  20.540  0.00  0.00    +0.000 A 
ATOM      4  C   UNL     1       1.995   7.465  19.832  0.00  0.00    +0.000 A 
ATOM      5  C   UNL     1       2.884   7.482  18.751  0.00  0.00    +0.000 A 
ATOM      6  C   UNL     1       3.612   6.338  18.399  0.00  0.00    +0.000 A 
ATOM      7  C   UNL     1       3.453   5.131  19.101  0.00  0.00    +0.000 A 
ENDROOT
BRANCH   4   8
ATOM      8  N   UNL     1       1.244   8.637  20.179  0.00  0.00    +0.000 N 
ATOM      9  N   UNL     1       1.040   8.782  21.543  0.00  0.00    +0.000 NA
ATOM     10  C   UNL     1       0.426   9.838  21.959  0.00  0.00    +0.000 A 
ATOM     11  C   UNL     1      -0.083  10.900  21.046  0.00  0.00    +0.000 A 
ATOM     12  O   UNL     1      -0.651  11.877  21.505  0.00  0.00    +0.000 OA
ATOM     13  N   UNL     1       0.146  10.671  19.729  0.00  0.00    +0.000 N 
ATOM     14  C   UNL     1       0.775   9.562  19.229  0.00  0.00    +0.000 A 
ATOM     15  O   UNL     1       0.851   9.470  18.005  0.00  0.00    +0.000 OA
ATOM     16  H   UNL     1      -0.209  11.331  19.054  0.00  0.00    +0.000 HD
ENDBRANCH   4   8
BRANCH   7  17
ATOM     17  S   UNL     1       4.468   3.754  18.541  0.00  0.00    +0.000 S 
ATOM     18  O   UNL     1       5.080   3.179  19.719  0.00  0.00    +0.000 OA
ATOM     19  O   UNL     1       3.674   2.907  17.673  0.00  0.00    +0.000 OA
BRANCH  17  20
ATOM     20  N   UNL     1       5.690   4.495  17.577  0.00  0.00    +0.000 NA
ATOM     21  C   UNL     1       6.925   4.843  18.317  0.00  0.00    +0.000 C 
BRANCH  20  22
ATOM     22  C   UNL     1       5.912   3.994  16.183  0.00  0.00    +0.000 C 
ATOM     23  C   UNL     1       4.852   4.494  15.201  0.00  0.00    +0.000 C 
ATOM     24  C   UNL     1       5.476   4.313  13.827  0.00  0.00    +0.000 C 
ATOM     25  C   UNL     1       6.969   4.517  14.028  0.00  0.00    +0.000 C 
ATOM     26  C   UNL     1       7.196   4.547  15.539  0.00  0.00    +0.000 C 
ENDBRANCH  20  22
ENDBRANCH  17  20
ENDBRANCH   7  17
TORSDOF 4
ENDMDL
MODEL 9
REMARK VINA RESULT:      -7.2      1.297      2.027
REMARK  Name = 
REMARK  6 active torsions:
REMARK  status: ('A' for Active; 'I' for Inactive)
REMARK    1  A    between atoms: C_1  and  C_2
REMARK    2  A    between atoms: C_4  and  N_5
REMARK    3  A    between atoms: C_15  and  S_16
REMARK    4  A    between atoms: S_16  and  N_19
REMARK    5  A    between atoms: N_19  and  C_20
REMARK    6  A    between atoms: N_19  and  C_21
REMARK                            x       y       z     vdW  Elec       q    Type
REMARK                         _______ _______ _______ _____ _____    ______ ____
ROOT
ATOM      1  C   UNL     1       2.218   9.542  17.509  0.00  0.00    +0.000 C 
ATOM      2  C   UNL     1       1.999   8.562  18.627  0.00  0.00    +0.000 A 
ATOM      3  C   UNL     1       2.353   7.220  18.349  0.00  0.00    +0.000 A 
ATOM      4  C   UNL     1       2.240   6.186  19.288  0.00  0.00    +0.000 A 
ATOM      5  C   UNL     1       1.734   6.520  20.550  0.00  0.00    +0.000 A 
ATOM      6  C   UNL     1       1.360   7.835  20.851  0.00  0.00    +0.000 A 
ATOM      7  C   UNL     1       1.453   8.856  19.889  0.00  0.00    +0.000 A 
ENDROOT
BRANCH   4   8
ATOM      8  N   UNL     1       2.609   4.833  18.983  0.00  0.00    +0.000 N 
ATOM      9  N   UNL     1       3.706   4.383  19.704  0.00  0.00    +0.000 NA
ATOM     10  C   UNL     1       4.078   3.157  19.544  0.00  0.00    +0.000 A 
ATOM     11  C   UNL     1       3.396   2.211  18.617  0.00  0.00    +0.000 A 
ATOM     12  O   UNL     1       3.797   1.062  18.516  0.00  0.00    +0.000 OA
ATOM     13  N   UNL     1       2.345   2.738  17.942  0.00  0.00    +0.000 N 
ATOM     14  C   UNL     1       1.916   4.034  18.058  0.00  0.00    +0.000 A 
ATOM     15  O   UNL     1       0.985   4.379  17.331  0.00  0.00    +0.000 OA
ATOM     16  H   UNL     1       1.864   2.162  17.268  0.00  0.00    +0.000 HD
ENDBRANCH   4   8
BRANCH   7  17
ATOM     17  S   UNL     1       0.949  10.497  20.430  0.00  0.00    +0.000 S 
ATOM     18  O   UNL     1       1.100  10.528  21.868  0.00  0.00    +0.000 OA
ATOM     19  O   UNL     1       1.635  11.488  19.626  0.00  0.00    +0.000 OA
BRANCH  17  20
ATOM     20  N   UNL     1      -0.728  10.574  20.039  0.00  0.00    +0.000 NA
ATOM     21  C   UNL     1      -1.575  11.179  21.093  0.00  0.00    +0.000 C 
BRANCH  20  22
ATOM     22  C   UNL     1      -1.128  10.918  18.637  0.00  0.00    +0.000 C 
ATOM     23  C   UNL     1      -1.445   9.682  17.794  0.00  0.00    +0.000 C 
ATOM     24  C   UNL     1      -2.265  10.205  16.627  0.00  0.00    +0.000 C 
ATOM     25  C   UNL     1      -3.045  11.390  17.175  0.00  0.00    +0.000 C 
ATOM     26  C   UNL     1      -2.462  11.681  18.558  0.00  0.00    +0.000 C 
ENDBRANCH  20  22
ENDBRANCH  17  20
ENDBRANCH   7  17
TORSDOF 4
ENDMDL
