MODEL 1
REMARK VINA RESULT:      -6.8      0.000      0.000
REMARK  Name = 
REMARK  13 active torsions:
REMARK  status: ('A' for Active; 'I' for Inactive)
REMARK    1  A    between atoms: C_1  and  O_2
REMARK    2  A    between atoms: O_2  and  C_3
REMARK    3  A    between atoms: C_3  and  C_5
REMARK    4  A    between atoms: C_5  and  C_6
REMARK    5  A    between atoms: C_5  and  N_10
REMARK    6  A    between atoms: C_6  and  C_7
REMARK    7  A    between atoms: C_7  and  C_8
REMARK    8  A    between atoms: C_7  and  C_9
REMARK    9  A    between atoms: N_13  and  CA_14
REMARK   10  A    between atoms: CA_14  and  C_15
REMARK   11  A    between atoms: CA_14  and  C_18
REMARK   12  A    between atoms: C_15  and  OXT_17
REMARK   13  A    between atoms: C_22  and  O_23
REMARK                            x       y       z     vdW  Elec       q    Type
REMARK                         _______ _______ _______ _____ _____    ______ ____
ROOT
ATOM      1  N   UNL     1       2.244   7.284  18.102  0.00  0.00    +0.000 N 
ATOM      2  C   UNL     1       1.815   8.304  18.901  0.00  0.00    +0.000 C 
ATOM      3  O   UNL     1       1.811   8.255  20.123  0.00  0.00    +0.000 OA
ATOM      4  N   UNL     1       1.445   9.417  18.191  0.00  0.00    +0.000 N 
ATOM      5  H   UNL     1       2.428   7.456  17.121  0.00  0.00    +0.000 HD
ATOM      6  H   UNL     1       1.078   9.248  17.263  0.00  0.00    +0.000 HD
ENDROOT
BRANCH   1   7
ATOM      7  C   UNL     1       2.843   6.061  18.671  0.00  0.00    +0.000 C 
BRANCH   7   8
ATOM      8  C   UNL     1       4.336   6.068  18.338  0.00  0.00    +0.000 C 
ATOM      9  O   UNL     1       5.191   5.498  19.008  0.00  0.00    +0.000 OA
BRANCH   8  11
ATOM     10  C   UNL     1       5.149   6.093  16.126  0.00  0.00    +0.000 C 
ATOM     11  O   UNL     1       4.574   6.807  17.221  0.00  0.00    +0.000 OA
ENDBRANCH   8  11
ENDBRANCH   7   8
BRANCH   7  12
ATOM     12  C   UNL     1       2.144   4.809  18.118  0.00  0.00    +0.000 C 
BRANCH  12  13
ATOM     13  C   UNL     1       1.213   4.069  19.106  0.00  0.00    +0.000 C 
ATOM     14  C   UNL     1       1.170   2.558  18.870  0.00  0.00    +0.000 C 
ATOM     15  C   UNL     1       1.645   4.343  20.549  0.00  0.00    +0.000 C 
ENDBRANCH  12  13
ENDBRANCH   7  12
ENDBRANCH   1   7
BRANCH   4  16
ATOM     16  CA  UNL     1       0.920  10.602  18.898  0.00  0.00    +0.000 C 
BRANCH  16  17
ATOM     17  C   UNL     1      -0.539  10.872  18.570  0.00  0.00    +0.000 A 
ATOM     18  C   UNL     1      -1.310  11.616  19.482  0.00  0.00    +0.000 A 
ATOM     19  C   UNL     1      -2.636  11.947  19.202  0.00  0.00    +0.000 A 
ATOM     20 BR   UNL     1      -3.606  12.979  20.464  0.00  0.00    +0.000 Br
ATOM     21  C   UNL     1      -3.228  11.534  18.008  0.00  0.00    +0.000 A 
ATOM     22  C   UNL     1      -2.486  10.771  17.105  0.00  0.00    +0.000 A 
ATOM     23 BR   UNL     1      -3.232  10.193  15.458  0.00  0.00    +0.000 Br
ATOM     24  C   UNL     1      -1.154  10.431  17.386  0.00  0.00    +0.000 A 
BRANCH  21  25
ATOM     25  O   UNL     1      -4.523  11.871  17.713  0.00  0.00    +0.000 OA
ATOM     26  H   UNL     1      -4.582  12.844  17.700  0.00  0.00    +0.000 HD
ENDBRANCH  21  25
ENDBRANCH  16  17
BRANCH  16  27
ATOM     27  C   UNL     1       1.871  11.804  18.697  0.00  0.00    +0.000 C 
ATOM     28  O   UNL     1       2.147  12.652  19.531  0.00  0.00    +0.000 OA
BRANCH  27  29
ATOM     29  OXT UNL     1       2.493  11.765  17.486  0.00  0.00    +0.000 OA
ATOM     30  HXT UNL     1       2.881  10.879  17.326  0.00  0.00    +0.000 HD
ENDBRANCH  27  29
ENDBRANCH  16  27
ENDBRANCH   4  16
TORSDOF 10
ENDMDL
MODEL 2
REMARK VINA RESULT:      -6.7      2.311      3.250
REMARK  Name = 
REMARK  13 active torsions:
REMARK  status: ('A' for Active; 'I' for Inactive)
REMARK    1  A    between atoms: C_1  and  O_2
REMARK    2  A    between atoms: O_2  and  C_3
REMARK    3  A    between atoms: C_3  and  C_5
REMARK    4  A    between atoms: C_5  and  C_6
REMARK    5  A    between atoms: C_5  and  N_10
REMARK    6  A    between atoms: C_6  and  C_7
REMARK    7  A    between atoms: C_7  and  C_8
REMARK    8  A    between atoms: C_7  and  C_9
REMARK    9  A    between atoms: N_13  and  CA_14
REMARK   10  A    between atoms: CA_14  and  C_15
REMARK   11  A    between atoms: CA_14  and  C_18
REMARK   12  A    between atoms: C_15  and  OXT_17
REMARK   13  A    between atoms: C_22  and  O_23
REMARK                            x       y       z     vdW  Elec       q    Type
REMARK                         _______ _______ _______ _____ _____    ______ ____
ROOT
ATOM      1  N   UNL     1       3.141   6.331  19.931  0.00  0.00    +0.000 N 
ATOM      2  C   UNL     1       1.984   6.845  20.440  0.00  0.00    +0.000 C 
ATOM      3  O   UNL     1       1.012   6.165  20.740  0.00  0.00    +0.000 OA
ATOM      4  N   UNL     1       2.045   8.200  20.640  0.00  0.00    +0.000 N 
ATOM      5  H   UNL     1       3.977   6.902  19.905  0.00  0.00    +0.000 HD
ATOM      6  H   UNL     1       2.648   8.713  20.010  0.00  0.00    +0.000 HD
ENDROOT
BRANCH   1   7
ATOM      7  C   UNL     1       3.343   4.876  19.798  0.00  0.00    +0.000 C 
BRANCH   7   8
ATOM      8  C   UNL     1       4.616   4.649  18.981  0.00  0.00    +0.000 C 
ATOM      9  O   UNL     1       5.667   4.226  19.450  0.00  0.00    +0.000 OA
BRANCH   8  11
ATOM     10  C   UNL     1       4.832   4.036  16.715  0.00  0.00    +0.000 C 
ATOM     11  O   UNL     1       4.420   5.003  17.681  0.00  0.00    +0.000 OA
ENDBRANCH   8  11
ENDBRANCH   7   8
BRANCH   7  12
ATOM     12  C   UNL     1       2.120   4.218  19.139  0.00  0.00    +0.000 C 
BRANCH  12  13
ATOM     13  C   UNL     1       1.761   2.804  19.652  0.00  0.00    +0.000 C 
ATOM     14  C   UNL     1       1.355   2.788  21.126  0.00  0.00    +0.000 C 
ATOM     15  C   UNL     1       0.630   2.206  18.810  0.00  0.00    +0.000 C 
ENDBRANCH  12  13
ENDBRANCH   7  12
ENDBRANCH   1   7
BRANCH   4  16
ATOM     16  CA  UNL     1       0.864   8.925  21.151  0.00  0.00    +0.000 C 
BRANCH  16  17
ATOM     17  C   UNL     1       0.375   9.990  20.184  0.00  0.00    +0.000 A 
ATOM     18  C   UNL     1      -0.655   9.661  19.284  0.00  0.00    +0.000 A 
ATOM     19  C   UNL     1      -1.186  10.618  18.417  0.00  0.00    +0.000 A 
ATOM     20 BR   UNL     1      -2.594  10.114  17.251  0.00  0.00    +0.000 Br
ATOM     21  C   UNL     1      -0.693  11.924  18.423  0.00  0.00    +0.000 A 
ATOM     22  C   UNL     1       0.347  12.258  19.291  0.00  0.00    +0.000 A 
ATOM     23 BR   UNL     1       1.049  14.021  19.355  0.00  0.00    +0.000 Br
ATOM     24  C   UNL     1       0.888  11.297  20.158  0.00  0.00    +0.000 A 
BRANCH  21  25
ATOM     25  O   UNL     1      -1.221  12.877  17.593  0.00  0.00    +0.000 OA
ATOM     26  H   UNL     1      -2.035  12.512  17.199  0.00  0.00    +0.000 HD
ENDBRANCH  21  25
ENDBRANCH  16  17
BRANCH  16  27
ATOM     27  C   UNL     1       1.129   9.418  22.592  0.00  0.00    +0.000 C 
ATOM     28  O   UNL     1       0.284   9.783  23.395  0.00  0.00    +0.000 OA
BRANCH  27  29
ATOM     29  OXT UNL     1       2.439   9.294  22.941  0.00  0.00    +0.000 OA
ATOM     30  HXT UNL     1       2.844   8.522  22.492  0.00  0.00    +0.000 HD
ENDBRANCH  27  29
ENDBRANCH  16  27
ENDBRANCH   4  16
TORSDOF 10
ENDMDL
MODEL 3
REMARK VINA RESULT:      -6.7      0.587      1.103
REMARK  Name = 
REMARK  13 active torsions:
REMARK  status: ('A' for Active; 'I' for Inactive)
REMARK    1  A    between atoms: C_1  and  O_2
REMARK    2  A    between atoms: O_2  and  C_3
REMARK    3  A    between atoms: C_3  and  C_5
REMARK    4  A    between atoms: C_5  and  C_6
REMARK    5  A    between atoms: C_5  and  N_10
REMARK    6  A    between atoms: C_6  and  C_7
REMARK    7  A    between atoms: C_7  and  C_8
REMARK    8  A    between atoms: C_7  and  C_9
REMARK    9  A    between atoms: N_13  and  CA_14
REMARK   10  A    between atoms: CA_14  and  C_15
REMARK   11  A    between atoms: CA_14  and  C_18
REMARK   12  A    between atoms: C_15  and  OXT_17
REMARK   13  A    between atoms: C_22  and  O_23
REMARK                            x       y       z     vdW  Elec       q    Type
REMARK                         _______ _______ _______ _____ _____    ______ ____
ROOT
ATOM      1  N   UNL     1       2.315   7.360  17.897  0.00  0.00    +0.000 N 
ATOM      2  C   UNL     1       1.878   8.328  18.753  0.00  0.00    +0.000 C 
ATOM      3  O   UNL     1       1.888   8.214  19.971  0.00  0.00    +0.000 OA
ATOM      4  N   UNL     1       1.482   9.471  18.108  0.00  0.00    +0.000 N 
ATOM      5  H   UNL     1       2.485   7.587  16.925  0.00  0.00    +0.000 HD
ATOM      6  H   UNL     1       1.107   9.346  17.176  0.00  0.00    +0.000 HD
ENDROOT
BRANCH   1   7
ATOM      7  C   UNL     1       2.941   6.119  18.394  0.00  0.00    +0.000 C 
BRANCH   7   8
ATOM      8  C   UNL     1       4.312   5.984  17.731  0.00  0.00    +0.000 C 
ATOM      9  O   UNL     1       4.857   6.878  17.091  0.00  0.00    +0.000 OA
BRANCH   8  11
ATOM     10  C   UNL     1       6.231   4.678  18.142  0.00  0.00    +0.000 C 
ATOM     11  O   UNL     1       4.820   4.737  17.931  0.00  0.00    +0.000 OA
ENDBRANCH   8  11
ENDBRANCH   7   8
BRANCH   7  12
ATOM     12  C   UNL     1       2.044   4.906  18.096  0.00  0.00    +0.000 C 
BRANCH  12  13
ATOM     13  C   UNL     1       1.828   3.927  19.274  0.00  0.00    +0.000 C 
ATOM     14  C   UNL     1       1.229   4.601  20.509  0.00  0.00    +0.000 C 
ATOM     15  C   UNL     1       0.923   2.769  18.842  0.00  0.00    +0.000 C 
ENDBRANCH  12  13
ENDBRANCH   7  12
ENDBRANCH   1   7
BRANCH   4  16
ATOM     16  CA  UNL     1       0.944  10.608  18.882  0.00  0.00    +0.000 C 
BRANCH  16  17
ATOM     17  C   UNL     1      -0.518  10.881  18.570  0.00  0.00    +0.000 A 
ATOM     18  C   UNL     1      -1.275  11.632  19.488  0.00  0.00    +0.000 A 
ATOM     19  C   UNL     1      -2.604  11.966  19.222  0.00  0.00    +0.000 A 
ATOM     20 BR   UNL     1      -3.556  13.007  20.490  0.00  0.00    +0.000 Br
ATOM     21  C   UNL     1      -3.211  11.549  18.036  0.00  0.00    +0.000 A 
ATOM     22  C   UNL     1      -2.482  10.780  17.128  0.00  0.00    +0.000 A 
ATOM     23 BR   UNL     1      -3.249  10.197  15.492  0.00  0.00    +0.000 Br
ATOM     24  C   UNL     1      -1.148  10.436  17.395  0.00  0.00    +0.000 A 
BRANCH  21  25
ATOM     25  O   UNL     1      -4.508  11.889  17.754  0.00  0.00    +0.000 OA
ATOM     26  H   UNL     1      -4.597  12.852  17.879  0.00  0.00    +0.000 HD
ENDBRANCH  21  25
ENDBRANCH  16  17
BRANCH  16  27
ATOM     27  C   UNL     1       1.883  11.829  18.752  0.00  0.00    +0.000 C 
ATOM     28  O   UNL     1       2.134  12.642  19.628  0.00  0.00    +0.000 OA
BRANCH  27  29
ATOM     29  OXT UNL     1       2.525  11.853  17.551  0.00  0.00    +0.000 OA
ATOM     30  HXT UNL     1       2.178  11.151  16.960  0.00  0.00    +0.000 HD
ENDBRANCH  27  29
ENDBRANCH  16  27
ENDBRANCH   4  16
TORSDOF 10
ENDMDL
MODEL 4
REMARK VINA RESULT:      -6.7      2.324      2.992
REMARK  Name = 
REMARK  13 active torsions:
REMARK  status: ('A' for Active; 'I' for Inactive)
REMARK    1  A    between atoms: C_1  and  O_2
REMARK    2  A    between atoms: O_2  and  C_3
REMARK    3  A    between atoms: C_3  and  C_5
REMARK    4  A    between atoms: C_5  and  C_6
REMARK    5  A    between atoms: C_5  and  N_10
REMARK    6  A    between atoms: C_6  and  C_7
REMARK    7  A    between atoms: C_7  and  C_8
REMARK    8  A    between atoms: C_7  and  C_9
REMARK    9  A    between atoms: N_13  and  CA_14
REMARK   10  A    between atoms: CA_14  and  C_15
REMARK   11  A    between atoms: CA_14  and  C_18
REMARK   12  A    between atoms: C_15  and  OXT_17
REMARK   13  A    between atoms: C_22  and  O_23
REMARK                            x       y       z     vdW  Elec       q    Type
REMARK                         _______ _______ _______ _____ _____    ______ ____
ROOT
ATOM      1  N   UNL     1       3.151   6.373  19.707  0.00  0.00    +0.000 N 
ATOM      2  C   UNL     1       1.986   6.796  20.279  0.00  0.00    +0.000 C 
ATOM      3  O   UNL     1       1.119   6.041  20.694  0.00  0.00    +0.000 OA
ATOM      4  N   UNL     1       1.915   8.160  20.397  0.00  0.00    +0.000 N 
ATOM      5  H   UNL     1       3.915   7.024  19.582  0.00  0.00    +0.000 HD
ATOM      6  H   UNL     1       2.411   8.691  19.693  0.00  0.00    +0.000 HD
ENDROOT
BRANCH   1   7
ATOM      7  C   UNL     1       3.498   4.940  19.641  0.00  0.00    +0.000 C 
BRANCH   7   8
ATOM      8  C   UNL     1       4.965   4.830  19.220  0.00  0.00    +0.000 C 
ATOM      9  O   UNL     1       5.688   3.878  19.495  0.00  0.00    +0.000 OA
BRANCH   8  11
ATOM     10  C   UNL     1       6.217   5.693  17.420  0.00  0.00    +0.000 C 
ATOM     11  O   UNL     1       5.349   5.936  18.527  0.00  0.00    +0.000 OA
ENDBRANCH   8  11
ENDBRANCH   7   8
BRANCH   7  12
ATOM     12  C   UNL     1       2.570   4.203  18.662  0.00  0.00    +0.000 C 
BRANCH  12  13
ATOM     13  C   UNL     1       2.280   2.722  18.997  0.00  0.00    +0.000 C 
ATOM     14  C   UNL     1       0.804   2.352  18.850  0.00  0.00    +0.000 C 
ATOM     15  C   UNL     1       3.123   1.802  18.109  0.00  0.00    +0.000 C 
ENDBRANCH  12  13
ENDBRANCH   7  12
ENDBRANCH   1   7
BRANCH   4  16
ATOM     16  CA  UNL     1       0.705   8.791  20.961  0.00  0.00    +0.000 C 
BRANCH  16  17
ATOM     17  C   UNL     1       0.181   9.920  20.090  0.00  0.00    +0.000 A 
ATOM     18  C   UNL     1       0.935  11.104  19.993  0.00  0.00    +0.000 A 
ATOM     19  C   UNL     1       0.532  12.148  19.159  0.00  0.00    +0.000 A 
ATOM     20 BR   UNL     1       1.614  13.702  19.054  0.00  0.00    +0.000 Br
ATOM     21  C   UNL     1      -0.639  12.038  18.409  0.00  0.00    +0.000 A 
ATOM     22  C   UNL     1      -1.413  10.881  18.515  0.00  0.00    +0.000 A 
ATOM     23 BR   UNL     1      -3.009  10.668  17.509  0.00  0.00    +0.000 Br
ATOM     24  C   UNL     1      -1.016   9.833  19.359  0.00  0.00    +0.000 A 
BRANCH  21  25
ATOM     25  O   UNL     1      -1.033  13.047  17.571  0.00  0.00    +0.000 OA
ATOM     26  H   UNL     1      -2.001  13.138  17.648  0.00  0.00    +0.000 HD
ENDBRANCH  21  25
ENDBRANCH  16  17
BRANCH  16  27
ATOM     27  C   UNL     1       0.942   9.161  22.443  0.00  0.00    +0.000 C 
ATOM     28  O   UNL     1       2.004   9.509  22.938  0.00  0.00    +0.000 OA
BRANCH  27  29
ATOM     29  OXT UNL     1      -0.217   9.176  23.157  0.00  0.00    +0.000 OA
ATOM     30  HXT UNL     1      -0.520  10.097  23.304  0.00  0.00    +0.000 HD
ENDBRANCH  27  29
ENDBRANCH  16  27
ENDBRANCH   4  16
TORSDOF 10
ENDMDL
MODEL 5
REMARK VINA RESULT:      -6.6      0.539      2.015
REMARK  Name = 
REMARK  13 active torsions:
REMARK  status: ('A' for Active; 'I' for Inactive)
REMARK    1  A    between atoms: C_1  and  O_2
REMARK    2  A    between atoms: O_2  and  C_3
REMARK    3  A    between atoms: C_3  and  C_5
REMARK    4  A    between atoms: C_5  and  C_6
REMARK    5  A    between atoms: C_5  and  N_10
REMARK    6  A    between atoms: C_6  and  C_7
REMARK    7  A    between atoms: C_7  and  C_8
REMARK    8  A    between atoms: C_7  and  C_9
REMARK    9  A    between atoms: N_13  and  CA_14
REMARK   10  A    between atoms: CA_14  and  C_15
REMARK   11  A    between atoms: CA_14  and  C_18
REMARK   12  A    between atoms: C_15  and  OXT_17
REMARK   13  A    between atoms: C_22  and  O_23
REMARK                            x       y       z     vdW  Elec       q    Type
REMARK                         _______ _______ _______ _____ _____    ______ ____
ROOT
ATOM      1  N   UNL     1       2.238   7.486  18.067  0.00  0.00    +0.000 N 
ATOM      2  C   UNL     1       1.778   8.481  18.879  0.00  0.00    +0.000 C 
ATOM      3  O   UNL     1       1.616   8.355  20.084  0.00  0.00    +0.000 OA
ATOM      4  N   UNL     1       1.573   9.662  18.212  0.00  0.00    +0.000 N 
ATOM      5  H   UNL     1       2.555   7.706  17.131  0.00  0.00    +0.000 HD
ATOM      6  H   UNL     1       1.317   9.580  17.236  0.00  0.00    +0.000 HD
ENDROOT
BRANCH   1   7
ATOM      7  C   UNL     1       2.679   6.189  18.614  0.00  0.00    +0.000 C 
BRANCH   7   8
ATOM      8  C   UNL     1       4.174   6.038  18.325  0.00  0.00    +0.000 C 
ATOM      9  O   UNL     1       4.981   5.562  19.116  0.00  0.00    +0.000 OA
BRANCH   8  11
ATOM     10  C   UNL     1       5.153   5.617  16.223  0.00  0.00    +0.000 C 
ATOM     11  O   UNL     1       4.474   6.525  17.090  0.00  0.00    +0.000 OA
ENDBRANCH   8  11
ENDBRANCH   7   8
BRANCH   7  12
ATOM     12  C   UNL     1       1.864   5.038  18.002  0.00  0.00    +0.000 C 
BRANCH  12  13
ATOM     13  C   UNL     1       2.143   3.634  18.586  0.00  0.00    +0.000 C 
ATOM     14  C   UNL     1       0.925   3.021  19.280  0.00  0.00    +0.000 C 
ATOM     15  C   UNL     1       2.625   2.686  17.484  0.00  0.00    +0.000 C 
ENDBRANCH  12  13
ENDBRANCH   7  12
ENDBRANCH   1   7
BRANCH   4  16
ATOM     16  CA  UNL     1       1.040  10.835  18.933  0.00  0.00    +0.000 C 
BRANCH  16  17
ATOM     17  C   UNL     1      -0.434  11.070  18.647  0.00  0.00    +0.000 A 
ATOM     18  C   UNL     1      -0.993  10.510  17.483  0.00  0.00    +0.000 A 
ATOM     19  C   UNL     1      -2.354  10.642  17.203  0.00  0.00    +0.000 A 
ATOM     20 BR   UNL     1      -3.046   9.836  15.632  0.00  0.00    +0.000 Br
ATOM     21  C   UNL     1      -3.187  11.344  18.076  0.00  0.00    +0.000 A 
ATOM     22  C   UNL     1      -2.642  11.929  19.220  0.00  0.00    +0.000 A 
ATOM     23 BR   UNL     1      -3.728  12.883  20.451  0.00  0.00    +0.000 Br
ATOM     24  C   UNL     1      -1.273  11.805  19.500  0.00  0.00    +0.000 A 
BRANCH  21  25
ATOM     25  O   UNL     1      -4.528  11.462  17.823  0.00  0.00    +0.000 OA
ATOM     26  H   UNL     1      -4.639  11.610  16.865  0.00  0.00    +0.000 HD
ENDBRANCH  21  25
ENDBRANCH  16  17
BRANCH  16  27
ATOM     27  C   UNL     1       1.957  12.058  18.705  0.00  0.00    +0.000 C 
ATOM     28  O   UNL     1       2.250  12.904  19.536  0.00  0.00    +0.000 OA
BRANCH  27  29
ATOM     29  OXT UNL     1       2.527  12.045  17.468  0.00  0.00    +0.000 OA
ATOM     30  HXT UNL     1       2.950  11.178  17.293  0.00  0.00    +0.000 HD
ENDBRANCH  27  29
ENDBRANCH  16  27
ENDBRANCH   4  16
TORSDOF 10
ENDMDL
MODEL 6
REMARK VINA RESULT:      -6.6      2.168      3.173
REMARK  Name = 
REMARK  13 active torsions:
REMARK  status: ('A' for Active; 'I' for Inactive)
REMARK    1  A    between atoms: C_1  and  O_2
REMARK    2  A    between atoms: O_2  and  C_3
REMARK    3  A    between atoms: C_3  and  C_5
REMARK    4  A    between atoms: C_5  and  C_6
REMARK    5  A    between atoms: C_5  and  N_10
REMARK    6  A    between atoms: C_6  and  C_7
REMARK    7  A    between atoms: C_7  and  C_8
REMARK    8  A    between atoms: C_7  and  C_9
REMARK    9  A    between atoms: N_13  and  CA_14
REMARK   10  A    between atoms: CA_14  and  C_15
REMARK   11  A    between atoms: CA_14  and  C_18
REMARK   12  A    between atoms: C_15  and  OXT_17
REMARK   13  A    between atoms: C_22  and  O_23
REMARK                            x       y       z     vdW  Elec       q    Type
REMARK                         _______ _______ _______ _____ _____    ______ ____
ROOT
ATOM      1  N   UNL     1       2.849   6.728  19.626  0.00  0.00    +0.000 N 
ATOM      2  C   UNL     1       1.784   7.050  20.416  0.00  0.00    +0.000 C 
ATOM      3  O   UNL     1       0.998   6.228  20.865  0.00  0.00    +0.000 OA
ATOM      4  N   UNL     1       1.720   8.388  20.707  0.00  0.00    +0.000 N 
ATOM      5  H   UNL     1       3.580   7.410  19.465  0.00  0.00    +0.000 HD
ATOM      6  H   UNL     1       2.097   9.012  20.004  0.00  0.00    +0.000 HD
ENDROOT
BRANCH   1   7
ATOM      7  C   UNL     1       3.195   5.324  19.336  0.00  0.00    +0.000 C 
BRANCH   7   8
ATOM      8  C   UNL     1       4.664   5.277  18.913  0.00  0.00    +0.000 C 
ATOM      9  O   UNL     1       5.606   5.312  19.698  0.00  0.00    +0.000 OA
BRANCH   8  11
ATOM     10  C   UNL     1       5.321   6.378  16.935  0.00  0.00    +0.000 C 
ATOM     11  O   UNL     1       4.770   5.217  17.557  0.00  0.00    +0.000 OA
ENDBRANCH   8  11
ENDBRANCH   7   8
BRANCH   7  12
ATOM     12  C   UNL     1       2.272   4.754  18.246  0.00  0.00    +0.000 C 
BRANCH  12  13
ATOM     13  C   UNL     1       1.773   3.309  18.478  0.00  0.00    +0.000 C 
ATOM     14  C   UNL     1       2.649   2.257  17.797  0.00  0.00    +0.000 C 
ATOM     15  C   UNL     1       1.695   3.009  19.977  0.00  0.00    +0.000 C 
ENDBRANCH  12  13
ENDBRANCH   7  12
ENDBRANCH   1   7
BRANCH   4  16
ATOM     16  CA  UNL     1       0.606   8.915  21.520  0.00  0.00    +0.000 C 
BRANCH  16  17
ATOM     17  C   UNL     1      -0.210   9.960  20.778  0.00  0.00    +0.000 A 
ATOM     18  C   UNL     1      -0.656   9.668  19.476  0.00  0.00    +0.000 A 
ATOM     19  C   UNL     1      -1.461  10.566  18.773  0.00  0.00    +0.000 A 
ATOM     20 BR   UNL     1      -2.052  10.094  17.034  0.00  0.00    +0.000 Br
ATOM     21  C   UNL     1      -1.832  11.781  19.351  0.00  0.00    +0.000 A 
ATOM     22  C   UNL     1      -1.374  12.097  20.630  0.00  0.00    +0.000 A 
ATOM     23 BR   UNL     1      -1.857  13.728  21.474  0.00  0.00    +0.000 Br
ATOM     24  C   UNL     1      -0.558  11.201  21.337  0.00  0.00    +0.000 A 
BRANCH  21  25
ATOM     25  O   UNL     1      -2.639  12.660  18.679  0.00  0.00    +0.000 OA
ATOM     26  H   UNL     1      -3.468  12.195  18.458  0.00  0.00    +0.000 HD
ENDBRANCH  21  25
ENDBRANCH  16  17
BRANCH  16  27
ATOM     27  C   UNL     1       1.126   9.353  22.909  0.00  0.00    +0.000 C 
ATOM     28  O   UNL     1       0.444   9.556  23.902  0.00  0.00    +0.000 OA
BRANCH  27  29
ATOM     29  OXT UNL     1       2.486   9.380  22.959  0.00  0.00    +0.000 OA
ATOM     30  HXT UNL     1       2.837  10.119  22.416  0.00  0.00    +0.000 HD
ENDBRANCH  27  29
ENDBRANCH  16  27
ENDBRANCH   4  16
TORSDOF 10
ENDMDL
MODEL 7
REMARK VINA RESULT:      -6.6      0.793      2.154
REMARK  Name = 
REMARK  13 active torsions:
REMARK  status: ('A' for Active; 'I' for Inactive)
REMARK    1  A    between atoms: C_1  and  O_2
REMARK    2  A    between atoms: O_2  and  C_3
REMARK    3  A    between atoms: C_3  and  C_5
REMARK    4  A    between atoms: C_5  and  C_6
REMARK    5  A    between atoms: C_5  and  N_10
REMARK    6  A    between atoms: C_6  and  C_7
REMARK    7  A    between atoms: C_7  and  C_8
REMARK    8  A    between atoms: C_7  and  C_9
REMARK    9  A    between atoms: N_13  and  CA_14
REMARK   10  A    between atoms: CA_14  and  C_15
REMARK   11  A    between atoms: CA_14  and  C_18
REMARK   12  A    between atoms: C_15  and  OXT_17
REMARK   13  A    between atoms: C_22  and  O_23
REMARK                            x       y       z     vdW  Elec       q    Type
REMARK                         _______ _______ _______ _____ _____    ______ ____
ROOT
ATOM      1  N   UNL     1       2.148   7.431  17.894  0.00  0.00    +0.000 N 
ATOM      2  C   UNL     1       1.672   8.356  18.777  0.00  0.00    +0.000 C 
ATOM      3  O   UNL     1       1.787   8.260  19.991  0.00  0.00    +0.000 OA
ATOM      4  N   UNL     1       1.104   9.440  18.158  0.00  0.00    +0.000 N 
ATOM      5  H   UNL     1       2.218   7.662  16.911  0.00  0.00    +0.000 HD
ATOM      6  H   UNL     1       0.676   9.261  17.258  0.00  0.00    +0.000 HD
ENDROOT
BRANCH   1   7
ATOM      7  C   UNL     1       2.943   6.274  18.348  0.00  0.00    +0.000 C 
BRANCH   7   8
ATOM      8  C   UNL     1       4.195   6.189  17.473  0.00  0.00    +0.000 C 
ATOM      9  O   UNL     1       5.000   7.104  17.336  0.00  0.00    +0.000 OA
BRANCH   8  11
ATOM     10  C   UNL     1       5.548   4.344  16.907  0.00  0.00    +0.000 C 
ATOM     11  O   UNL     1       4.269   4.976  16.859  0.00  0.00    +0.000 OA
ENDBRANCH   8  11
ENDBRANCH   7   8
BRANCH   7  12
ATOM     12  C   UNL     1       2.110   4.983  18.273  0.00  0.00    +0.000 C 
BRANCH  12  13
ATOM     13  C   UNL     1       2.108   4.112  19.551  0.00  0.00    +0.000 C 
ATOM     14  C   UNL     1       2.176   4.936  20.837  0.00  0.00    +0.000 C 
ATOM     15  C   UNL     1       0.861   3.224  19.585  0.00  0.00    +0.000 C 
ENDBRANCH  12  13
ENDBRANCH   7  12
ENDBRANCH   1   7
BRANCH   4  16
ATOM     16  CA  UNL     1       0.503  10.520  18.966  0.00  0.00    +0.000 C 
BRANCH  16  17
ATOM     17  C   UNL     1      -0.907  10.864  18.517  0.00  0.00    +0.000 A 
ATOM     18  C   UNL     1      -1.336  10.432  17.248  0.00  0.00    +0.000 A 
ATOM     19  C   UNL     1      -2.641  10.665  16.811  0.00  0.00    +0.000 A 
ATOM     20 BR   UNL     1      -3.159  10.028  15.102  0.00  0.00    +0.000 Br
ATOM     21  C   UNL     1      -3.546  11.344  17.628  0.00  0.00    +0.000 A 
ATOM     22  C   UNL     1      -3.128  11.804  18.877  0.00  0.00    +0.000 A 
ATOM     23 BR   UNL     1      -4.318  12.721  20.038  0.00  0.00    +0.000 Br
ATOM     24  C   UNL     1      -1.815  11.578  19.317  0.00  0.00    +0.000 A 
BRANCH  21  25
ATOM     25  O   UNL     1      -4.835  11.560  17.218  0.00  0.00    +0.000 OA
ATOM     26  H   UNL     1      -4.996  11.003  16.434  0.00  0.00    +0.000 HD
ENDBRANCH  21  25
ENDBRANCH  16  17
BRANCH  16  27
ATOM     27  C   UNL     1       1.475  11.720  19.052  0.00  0.00    +0.000 C 
ATOM     28  O   UNL     1       1.720  12.378  20.052  0.00  0.00    +0.000 OA
BRANCH  27  29
ATOM     29  OXT UNL     1       2.152  11.912  17.887  0.00  0.00    +0.000 OA
ATOM     30  HXT UNL     1       2.761  12.678  17.964  0.00  0.00    +0.000 HD
ENDBRANCH  27  29
ENDBRANCH  16  27
ENDBRANCH   4  16
TORSDOF 10
ENDMDL
MODEL 8
REMARK VINA RESULT:      -6.5      2.308      2.914
REMARK  Name = 
REMARK  13 active torsions:
REMARK  status: ('A' for Active; 'I' for Inactive)
REMARK    1  A    between atoms: C_1  and  O_2
REMARK    2  A    between atoms: O_2  and  C_3
REMARK    3  A    between atoms: C_3  and  C_5
REMARK    4  A    between atoms: C_5  and  C_6
REMARK    5  A    between atoms: C_5  and  N_10
REMARK    6  A    between atoms: C_6  and  C_7
REMARK    7  A    between atoms: C_7  and  C_8
REMARK    8  A    between atoms: C_7  and  C_9
REMARK    9  A    between atoms: N_13  and  CA_14
REMARK   10  A    between atoms: CA_14  and  C_15
REMARK   11  A    between atoms: CA_14  and  C_18
REMARK   12  A    between atoms: C_15  and  OXT_17
REMARK   13  A    between atoms: C_22  and  O_23
REMARK                            x       y       z     vdW  Elec       q    Type
REMARK                         _______ _______ _______ _____ _____    ______ ____
ROOT
ATOM      1  N   UNL     1       3.201   6.561  19.732  0.00  0.00    +0.000 N 
ATOM      2  C   UNL     1       2.068   7.005  20.350  0.00  0.00    +0.000 C 
ATOM      3  O   UNL     1       1.249   6.267  20.879  0.00  0.00    +0.000 OA
ATOM      4  N   UNL     1       1.974   8.372  20.372  0.00  0.00    +0.000 N 
ATOM      5  H   UNL     1       3.940   7.215  19.507  0.00  0.00    +0.000 HD
ATOM      6  H   UNL     1       2.408   8.858  19.598  0.00  0.00    +0.000 HD
ENDROOT
BRANCH   1   7
ATOM      7  C   UNL     1       3.577   5.135  19.748  0.00  0.00    +0.000 C 
BRANCH   7   8
ATOM      8  C   UNL     1       4.989   5.012  19.172  0.00  0.00    +0.000 C 
ATOM      9  O   UNL     1       5.981   4.736  19.840  0.00  0.00    +0.000 OA
BRANCH   8  11
ATOM     10  C   UNL     1       5.941   4.543  17.068  0.00  0.00    +0.000 C 
ATOM     11  O   UNL     1       4.987   5.275  17.837  0.00  0.00    +0.000 OA
ENDBRANCH   8  11
ENDBRANCH   7   8
BRANCH   7  12
ATOM     12  C   UNL     1       2.564   4.300  18.947  0.00  0.00    +0.000 C 
BRANCH  12  13
ATOM     13  C   UNL     1       2.134   2.964  19.595  0.00  0.00    +0.000 C 
ATOM     14  C   UNL     1       2.321   2.948  21.113  0.00  0.00    +0.000 C 
ATOM     15  C   UNL     1       0.671   2.659  19.263  0.00  0.00    +0.000 C 
ENDBRANCH  12  13
ENDBRANCH   7  12
ENDBRANCH   1   7
BRANCH   4  16
ATOM     16  CA  UNL     1       0.790   9.021  20.970  0.00  0.00    +0.000 C 
BRANCH  16  17
ATOM     17  C   UNL     1       0.259  10.160  20.115  0.00  0.00    +0.000 A 
ATOM     18  C   UNL     1       0.986  11.364  20.068  0.00  0.00    +0.000 A 
ATOM     19  C   UNL     1       0.577  12.419  19.251  0.00  0.00    +0.000 A 
ATOM     20 BR   UNL     1       1.622  14.002  19.213  0.00  0.00    +0.000 Br
ATOM     21  C   UNL     1      -0.572  12.300  18.468  0.00  0.00    +0.000 A 
ATOM     22  C   UNL     1      -1.319  11.122  18.525  0.00  0.00    +0.000 A 
ATOM     23 BR   UNL     1      -2.883  10.896  17.472  0.00  0.00    +0.000 Br
ATOM     24  C   UNL     1      -0.916  10.062  19.351  0.00  0.00    +0.000 A 
BRANCH  21  25
ATOM     25  O   UNL     1      -0.970  13.321  17.646  0.00  0.00    +0.000 OA
ATOM     26  H   UNL     1      -0.338  13.370  16.904  0.00  0.00    +0.000 HD
ENDBRANCH  21  25
ENDBRANCH  16  17
BRANCH  16  27
ATOM     27  C   UNL     1       1.074   9.385  22.445  0.00  0.00    +0.000 C 
ATOM     28  O   UNL     1       0.253   9.770  23.263  0.00  0.00    +0.000 OA
BRANCH  27  29
ATOM     29  OXT UNL     1       2.361   9.116  22.798  0.00  0.00    +0.000 OA
ATOM     30  HXT UNL     1       2.415   8.873  23.747  0.00  0.00    +0.000 HD
ENDBRANCH  27  29
ENDBRANCH  16  27
ENDBRANCH   4  16
TORSDOF 10
ENDMDL
MODEL 9
REMARK VINA RESULT:      -6.5      0.746      2.204
REMARK  Name = 
REMARK  13 active torsions:
REMARK  status: ('A' for Active; 'I' for Inactive)
REMARK    1  A    between atoms: C_1  and  O_2
REMARK    2  A    between atoms: O_2  and  C_3
REMARK    3  A    between atoms: C_3  and  C_5
REMARK    4  A    between atoms: C_5  and  C_6
REMARK    5  A    between atoms: C_5  and  N_10
REMARK    6  A    between atoms: C_6  and  C_7
REMARK    7  A    between atoms: C_7  and  C_8
REMARK    8  A    between atoms: C_7  and  C_9
REMARK    9  A    between atoms: N_13  and  CA_14
REMARK   10  A    between atoms: CA_14  and  C_15
REMARK   11  A    between atoms: CA_14  and  C_18
REMARK   12  A    between atoms: C_15  and  OXT_17
REMARK   13  A    between atoms: C_22  and  O_23
REMARK                            x       y       z     vdW  Elec       q    Type
REMARK                         _______ _______ _______ _____ _____    ______ ____
ROOT
ATOM      1  N   UNL     1       2.234   7.504  18.381  0.00  0.00    +0.000 N 
ATOM      2  C   UNL     1       1.652   8.356  19.274  0.00  0.00    +0.000 C 
ATOM      3  O   UNL     1       1.558   8.127  20.472  0.00  0.00    +0.000 OA
ATOM      4  N   UNL     1       1.236   9.529  18.698  0.00  0.00    +0.000 N 
ATOM      5  H   UNL     1       2.475   7.833  17.455  0.00  0.00    +0.000 HD
ATOM      6  H   UNL     1       0.958   9.470  17.726  0.00  0.00    +0.000 HD
ENDROOT
BRANCH   1   7
ATOM      7  C   UNL     1       2.898   6.263  18.824  0.00  0.00    +0.000 C 
BRANCH   7   8
ATOM      8  C   UNL     1       4.279   6.208  18.171  0.00  0.00    +0.000 C 
ATOM      9  O   UNL     1       4.542   6.701  17.079  0.00  0.00    +0.000 OA
BRANCH   8  11
ATOM     10  C   UNL     1       6.504   5.497  18.492  0.00  0.00    +0.000 C 
ATOM     11  O   UNL     1       5.153   5.521  18.955  0.00  0.00    +0.000 OA
ENDBRANCH   8  11
ENDBRANCH   7   8
BRANCH   7  12
ATOM     12  C   UNL     1       2.048   5.035  18.458  0.00  0.00    +0.000 C 
BRANCH  12  13
ATOM     13  C   UNL     1       1.381   4.302  19.645  0.00  0.00    +0.000 C 
ATOM     14  C   UNL     1       1.368   2.782  19.479  0.00  0.00    +0.000 C 
ATOM     15  C   UNL     1       2.088   4.662  20.955  0.00  0.00    +0.000 C 
ENDBRANCH  12  13
ENDBRANCH   7  12
ENDBRANCH   1   7
BRANCH   4  16
ATOM     16  CA  UNL     1       0.549  10.550  19.514  0.00  0.00    +0.000 C 
BRANCH  16  17
ATOM     17  C   UNL     1      -0.826  10.899  18.970  0.00  0.00    +0.000 A 
ATOM     18  C   UNL     1      -1.191  10.416  17.700  0.00  0.00    +0.000 A 
ATOM     19  C   UNL     1      -2.464  10.654  17.179  0.00  0.00    +0.000 A 
ATOM     20 BR   UNL     1      -2.900   9.946  15.474  0.00  0.00    +0.000 Br
ATOM     21  C   UNL     1      -3.399  11.388  17.910  0.00  0.00    +0.000 A 
ATOM     22  C   UNL     1      -3.042  11.898  19.159  0.00  0.00    +0.000 A 
ATOM     23 BR   UNL     1      -4.275  12.892  20.207  0.00  0.00    +0.000 Br
ATOM     24  C   UNL     1      -1.761  11.668  19.683  0.00  0.00    +0.000 A 
BRANCH  21  25
ATOM     25  O   UNL     1      -4.658  11.609  17.418  0.00  0.00    +0.000 OA
ATOM     26  H   UNL     1      -4.933  12.504  17.694  0.00  0.00    +0.000 HD
ENDBRANCH  21  25
ENDBRANCH  16  17
BRANCH  16  27
ATOM     27  C   UNL     1       1.487  11.756  19.751  0.00  0.00    +0.000 C 
ATOM     28  O   UNL     1       2.064  12.401  18.889  0.00  0.00    +0.000 OA
BRANCH  27  29
ATOM     29  OXT UNL     1       1.523  12.125  21.062  0.00  0.00    +0.000 OA
ATOM     30  HXT UNL     1       2.063  11.493  21.583  0.00  0.00    +0.000 HD
ENDBRANCH  27  29
ENDBRANCH  16  27
ENDBRANCH   4  16
TORSDOF 10
ENDMDL
