MODEL 1
REMARK VINA RESULT:      -7.1      0.000      0.000
REMARK  Name = 
REMARK  15 active torsions:
REMARK  status: ('A' for Active; 'I' for Inactive)
REMARK    1  A    between atoms: C_1  and  C_2
REMARK    2  A    between atoms: C_2  and  C_3
REMARK    3  A    between atoms: C_3  and  C_4
REMARK    4  A    between atoms: C_4  and  C_5
REMARK    5  A    between atoms: C_5  and  C_6
REMARK    6  A    between atoms: N_8  and  CA_9
REMARK    7  A    between atoms: CA_9  and  C_10
REMARK    8  A    between atoms: CA_9  and  C_23
REMARK    9  A    between atoms: C_10  and  C_11
REMARK   10  A    between atoms: C_14  and  O_15
REMARK   11  A    between atoms: O_15  and  C_16
REMARK   12  A    between atoms: C_16  and  C_17
REMARK   13  A    between atoms: C_18  and  C_19
REMARK   14  A    between atoms: C_19  and  O_20
REMARK   15  A    between atoms: C_23  and  OXT_25
REMARK                            x       y       z     vdW  Elec       q    Type
REMARK                         _______ _______ _______ _____ _____    ______ ____
ROOT
ATOM      1  CA  UNL     1       5.212   5.685  18.060  0.00  0.00    +0.000 C 
ENDROOT
BRANCH   1   4
ATOM      2  C   UNL     1       5.676   5.302  15.639  0.00  0.00    +0.000 C 
ATOM      3  O   UNL     1       6.503   6.206  15.575  0.00  0.00    +0.000 OA
ATOM      4  N   UNL     1       5.031   4.964  16.798  0.00  0.00    +0.000 N 
ATOM      5  H   UNL     1       4.463   4.123  16.819  0.00  0.00    +0.000 HD
BRANCH   2   6
ATOM      6  C   UNL     1       5.254   4.482  14.435  0.00  0.00    +0.000 C 
BRANCH   6   7
ATOM      7  C   UNL     1       6.449   3.931  13.653  0.00  0.00    +0.000 C 
BRANCH   7   8
ATOM      8  C   UNL     1       6.172   3.666  12.168  0.00  0.00    +0.000 C 
BRANCH   8  10
ATOM      9  C   UNL     1       3.982   3.472  10.936  0.00  0.00    +0.000 C 
ATOM     10  C   UNL     1       4.922   2.815  11.932  0.00  0.00    +0.000 C 
ENDBRANCH   8  10
ENDBRANCH   7   8
ENDBRANCH   6   7
ENDBRANCH   2   6
ENDBRANCH   1   4
BRANCH   1  11
ATOM     11  C   UNL     1       6.431   5.110  18.793  0.00  0.00    +0.000 C 
ATOM     12  O   UNL     1       6.756   5.447  19.928  0.00  0.00    +0.000 OA
BRANCH  11  13
ATOM     13  OXT UNL     1       7.123   4.175  18.106  0.00  0.00    +0.000 OA
ATOM     14  HXT UNL     1       8.065   4.089  18.345  0.00  0.00    +0.000 HD
ENDBRANCH  11  13
ENDBRANCH   1  11
BRANCH   1  15
ATOM     15  C   UNL     1       3.940   5.684  18.937  0.00  0.00    +0.000 C 
BRANCH  15  16
ATOM     16  C   UNL     1       2.975   6.852  18.861  0.00  0.00    +0.000 A 
ATOM     17  C   UNL     1       2.837   7.672  17.739  0.00  0.00    +0.000 A 
ATOM     18  C   UNL     1       2.056   8.824  17.787  0.00  0.00    +0.000 A 
ATOM     19  C   UNL     1       1.355   9.162  18.941  0.00  0.00    +0.000 A 
ATOM     20  C   UNL     1       1.406   8.312  20.042  0.00  0.00    +0.000 A 
ATOM     21  C   UNL     1       2.211   7.165  19.999  0.00  0.00    +0.000 A 
BRANCH  19  22
ATOM     22  O   UNL     1       0.720  10.364  18.864  0.00  0.00    +0.000 OA
BRANCH  22  23
ATOM     23  C   UNL     1      -0.585  10.464  19.420  0.00  0.00    +0.000 C 
BRANCH  23  24
ATOM     24  C   UNL     1      -1.535  10.547  18.303  0.00  0.00    +0.000 C 
ATOM     25  C   UNL     1      -2.352  10.571  17.421  0.00  0.00    +0.000 C 
BRANCH  25  26
ATOM     26  C   UNL     1      -3.374  10.568  16.374  0.00  0.00    +0.000 C 
BRANCH  26  27
ATOM     27  O   UNL     1      -3.043  11.521  15.376  0.00  0.00    +0.000 OA
ATOM     28  H   UNL     1      -2.656  11.022  14.637  0.00  0.00    +0.000 HD
ENDBRANCH  26  27
ENDBRANCH  25  26
ENDBRANCH  23  24
ENDBRANCH  22  23
ENDBRANCH  19  22
ENDBRANCH  15  16
ENDBRANCH   1  15
TORSDOF 14
ENDMDL
MODEL 2
REMARK VINA RESULT:      -7.1      3.818      4.957
REMARK  Name = 
REMARK  15 active torsions:
REMARK  status: ('A' for Active; 'I' for Inactive)
REMARK    1  A    between atoms: C_1  and  C_2
REMARK    2  A    between atoms: C_2  and  C_3
REMARK    3  A    between atoms: C_3  and  C_4
REMARK    4  A    between atoms: C_4  and  C_5
REMARK    5  A    between atoms: C_5  and  C_6
REMARK    6  A    between atoms: N_8  and  CA_9
REMARK    7  A    between atoms: CA_9  and  C_10
REMARK    8  A    between atoms: CA_9  and  C_23
REMARK    9  A    between atoms: C_10  and  C_11
REMARK   10  A    between atoms: C_14  and  O_15
REMARK   11  A    between atoms: O_15  and  C_16
REMARK   12  A    between atoms: C_16  and  C_17
REMARK   13  A    between atoms: C_18  and  C_19
REMARK   14  A    between atoms: C_19  and  O_20
REMARK   15  A    between atoms: C_23  and  OXT_25
REMARK                            x       y       z     vdW  Elec       q    Type
REMARK                         _______ _______ _______ _____ _____    ______ ____
ROOT
ATOM      1  CA  UNL     1       3.691   3.563  18.617  0.00  0.00    +0.000 C 
ENDROOT
BRANCH   1   4
ATOM      2  C   UNL     1       5.933   4.656  18.674  0.00  0.00    +0.000 C 
ATOM      3  O   UNL     1       5.692   5.275  19.705  0.00  0.00    +0.000 OA
ATOM      4  N   UNL     1       5.043   3.790  18.100  0.00  0.00    +0.000 N 
ATOM      5  H   UNL     1       5.349   3.206  17.327  0.00  0.00    +0.000 HD
BRANCH   2   6
ATOM      6  C   UNL     1       7.232   4.807  17.905  0.00  0.00    +0.000 C 
BRANCH   6   7
ATOM      7  C   UNL     1       7.386   6.197  17.284  0.00  0.00    +0.000 C 
BRANCH   7   8
ATOM      8  C   UNL     1       7.958   7.259  18.232  0.00  0.00    +0.000 C 
BRANCH   8  10
ATOM      9  C   UNL     1       8.768   9.634  18.459  0.00  0.00    +0.000 C 
ATOM     10  C   UNL     1       7.912   8.673  17.651  0.00  0.00    +0.000 C 
ENDBRANCH   8  10
ENDBRANCH   7   8
ENDBRANCH   6   7
ENDBRANCH   2   6
ENDBRANCH   1   4
BRANCH   1  11
ATOM     11  C   UNL     1       3.288   2.108  18.339  0.00  0.00    +0.000 C 
ATOM     12  O   UNL     1       2.192   1.786  17.891  0.00  0.00    +0.000 OA
BRANCH  11  13
ATOM     13  OXT UNL     1       4.244   1.190  18.602  0.00  0.00    +0.000 OA
ATOM     14  HXT UNL     1       4.936   1.097  17.920  0.00  0.00    +0.000 HD
ENDBRANCH  11  13
ENDBRANCH   1  11
BRANCH   1  15
ATOM     15  C   UNL     1       2.662   4.576  18.070  0.00  0.00    +0.000 C 
BRANCH  15  16
ATOM     16  C   UNL     1       2.381   5.851  18.842  0.00  0.00    +0.000 A 
ATOM     17  C   UNL     1       1.950   5.875  20.170  0.00  0.00    +0.000 A 
ATOM     18  C   UNL     1       1.552   7.066  20.771  0.00  0.00    +0.000 A 
ATOM     19  C   UNL     1       1.619   8.272  20.079  0.00  0.00    +0.000 A 
ATOM     20  C   UNL     1       2.130   8.285  18.784  0.00  0.00    +0.000 A 
ATOM     21  C   UNL     1       2.508   7.081  18.172  0.00  0.00    +0.000 A 
BRANCH  19  22
ATOM     22  O   UNL     1       1.103   9.328  20.766  0.00  0.00    +0.000 OA
BRANCH  22  23
ATOM     23  C   UNL     1       0.776   9.135  22.135  0.00  0.00    +0.000 C 
BRANCH  23  24
ATOM     24  C   UNL     1      -0.236  10.138  22.493  0.00  0.00    +0.000 C 
ATOM     25  C   UNL     1      -1.022  11.006  22.766  0.00  0.00    +0.000 C 
BRANCH  25  26
ATOM     26  C   UNL     1      -1.945  12.096  23.080  0.00  0.00    +0.000 C 
BRANCH  26  27
ATOM     27  O   UNL     1      -3.108  11.577  23.707  0.00  0.00    +0.000 OA
ATOM     28  H   UNL     1      -2.857  10.714  24.079  0.00  0.00    +0.000 HD
ENDBRANCH  26  27
ENDBRANCH  25  26
ENDBRANCH  23  24
ENDBRANCH  22  23
ENDBRANCH  19  22
ENDBRANCH  15  16
ENDBRANCH   1  15
TORSDOF 14
ENDMDL
MODEL 3
REMARK VINA RESULT:      -7.0      3.872      7.727
REMARK  Name = 
REMARK  15 active torsions:
REMARK  status: ('A' for Active; 'I' for Inactive)
REMARK    1  A    between atoms: C_1  and  C_2
REMARK    2  A    between atoms: C_2  and  C_3
REMARK    3  A    between atoms: C_3  and  C_4
REMARK    4  A    between atoms: C_4  and  C_5
REMARK    5  A    between atoms: C_5  and  C_6
REMARK    6  A    between atoms: N_8  and  CA_9
REMARK    7  A    between atoms: CA_9  and  C_10
REMARK    8  A    between atoms: CA_9  and  C_23
REMARK    9  A    between atoms: C_10  and  C_11
REMARK   10  A    between atoms: C_14  and  O_15
REMARK   11  A    between atoms: O_15  and  C_16
REMARK   12  A    between atoms: C_16  and  C_17
REMARK   13  A    between atoms: C_18  and  C_19
REMARK   14  A    between atoms: C_19  and  O_20
REMARK   15  A    between atoms: C_23  and  OXT_25
REMARK                            x       y       z     vdW  Elec       q    Type
REMARK                         _______ _______ _______ _____ _____    ______ ____
ROOT
ATOM      1  CA  UNL     1       3.386   3.317  19.111  0.00  0.00    +0.000 C 
ENDROOT
BRANCH   1   4
ATOM      2  C   UNL     1       1.740   4.935  20.060  0.00  0.00    +0.000 C 
ATOM      3  O   UNL     1       0.803   4.147  19.981  0.00  0.00    +0.000 OA
ATOM      4  N   UNL     1       3.018   4.610  19.693  0.00  0.00    +0.000 N 
ATOM      5  H   UNL     1       3.773   5.256  19.908  0.00  0.00    +0.000 HD
BRANCH   2   6
ATOM      6  C   UNL     1       1.579   6.364  20.540  0.00  0.00    +0.000 C 
BRANCH   6   7
ATOM      7  C   UNL     1       2.446   7.349  19.751  0.00  0.00    +0.000 C 
BRANCH   7   8
ATOM      8  C   UNL     1       2.011   7.554  18.295  0.00  0.00    +0.000 C 
BRANCH   8  10
ATOM      9  C   UNL     1       0.743   9.727  18.161  0.00  0.00    +0.000 C 
ATOM     10  C   UNL     1       2.051   9.019  17.855  0.00  0.00    +0.000 C 
ENDBRANCH   8  10
ENDBRANCH   7   8
ENDBRANCH   6   7
ENDBRANCH   2   6
ENDBRANCH   1   4
BRANCH   1  11
ATOM     11  C   UNL     1       4.041   2.451  20.195  0.00  0.00    +0.000 C 
ATOM     12  O   UNL     1       3.560   2.291  21.312  0.00  0.00    +0.000 OA
BRANCH  11  13
ATOM     13  OXT UNL     1       5.191   1.844  19.826  0.00  0.00    +0.000 OA
ATOM     14  HXT UNL     1       5.188   1.444  18.936  0.00  0.00    +0.000 HD
ENDBRANCH  11  13
ENDBRANCH   1  11
BRANCH   1  15
ATOM     15  C   UNL     1       4.270   3.457  17.852  0.00  0.00    +0.000 C 
BRANCH  15  16
ATOM     16  C   UNL     1       5.369   4.503  17.820  0.00  0.00    +0.000 A 
ATOM     17  C   UNL     1       6.648   4.300  18.344  0.00  0.00    +0.000 A 
ATOM     18  C   UNL     1       7.558   5.350  18.432  0.00  0.00    +0.000 A 
ATOM     19  C   UNL     1       7.235   6.617  17.955  0.00  0.00    +0.000 A 
ATOM     20  C   UNL     1       5.999   6.820  17.347  0.00  0.00    +0.000 A 
ATOM     21  C   UNL     1       5.075   5.767  17.280  0.00  0.00    +0.000 A 
BRANCH  19  22
ATOM     22  O   UNL     1       8.189   7.557  18.202  0.00  0.00    +0.000 OA
BRANCH  22  23
ATOM     23  C   UNL     1       7.984   8.864  17.684  0.00  0.00    +0.000 C 
BRANCH  23  24
ATOM     24  C   UNL     1       8.739   9.798  18.529  0.00  0.00    +0.000 C 
ATOM     25  C   UNL     1       9.309  10.557  19.268  0.00  0.00    +0.000 C 
BRANCH  25  26
ATOM     26  C   UNL     1       9.966  11.473  20.200  0.00  0.00    +0.000 C 
BRANCH  26  27
ATOM     27  O   UNL     1       9.578  11.166  21.530  0.00  0.00    +0.000 OA
ATOM     28  H   UNL     1       8.826  10.554  21.462  0.00  0.00    +0.000 HD
ENDBRANCH  26  27
ENDBRANCH  25  26
ENDBRANCH  23  24
ENDBRANCH  22  23
ENDBRANCH  19  22
ENDBRANCH  15  16
ENDBRANCH   1  15
TORSDOF 14
ENDMDL
MODEL 4
REMARK VINA RESULT:      -6.9      2.192      3.605
REMARK  Name = 
REMARK  15 active torsions:
REMARK  status: ('A' for Active; 'I' for Inactive)
REMARK    1  A    between atoms: C_1  and  C_2
REMARK    2  A    between atoms: C_2  and  C_3
REMARK    3  A    between atoms: C_3  and  C_4
REMARK    4  A    between atoms: C_4  and  C_5
REMARK    5  A    between atoms: C_5  and  C_6
REMARK    6  A    between atoms: N_8  and  CA_9
REMARK    7  A    between atoms: CA_9  and  C_10
REMARK    8  A    between atoms: CA_9  and  C_23
REMARK    9  A    between atoms: C_10  and  C_11
REMARK   10  A    between atoms: C_14  and  O_15
REMARK   11  A    between atoms: O_15  and  C_16
REMARK   12  A    between atoms: C_16  and  C_17
REMARK   13  A    between atoms: C_18  and  C_19
REMARK   14  A    between atoms: C_19  and  O_20
REMARK   15  A    between atoms: C_23  and  OXT_25
REMARK                            x       y       z     vdW  Elec       q    Type
REMARK                         _______ _______ _______ _____ _____    ______ ____
ROOT
ATOM      1  CA  UNL     1       2.926   4.328  19.141  0.00  0.00    +0.000 C 
ENDROOT
BRANCH   1   4
ATOM      2  C   UNL     1       4.777   4.239  17.470  0.00  0.00    +0.000 C 
ATOM      3  O   UNL     1       5.609   3.879  18.295  0.00  0.00    +0.000 OA
ATOM      4  N   UNL     1       3.461   4.449  17.782  0.00  0.00    +0.000 N 
ATOM      5  H   UNL     1       2.795   4.612  17.033  0.00  0.00    +0.000 HD
BRANCH   2   6
ATOM      6  C   UNL     1       5.121   4.523  16.020  0.00  0.00    +0.000 C 
BRANCH   6   7
ATOM      7  C   UNL     1       5.693   5.928  15.819  0.00  0.00    +0.000 C 
BRANCH   7   8
ATOM      8  C   UNL     1       5.817   6.755  17.104  0.00  0.00    +0.000 C 
BRANCH   8  10
ATOM      9  C   UNL     1       7.881   6.612  18.544  0.00  0.00    +0.000 C 
ATOM     10  C   UNL     1       7.232   7.285  17.346  0.00  0.00    +0.000 C 
ENDBRANCH   8  10
ENDBRANCH   7   8
ENDBRANCH   6   7
ENDBRANCH   2   6
ENDBRANCH   1   4
BRANCH   1  11
ATOM     11  C   UNL     1       1.446   3.931  19.061  0.00  0.00    +0.000 C 
ATOM     12  O   UNL     1       0.712   3.863  20.042  0.00  0.00    +0.000 OA
BRANCH  11  13
ATOM     13  OXT UNL     1       0.988   3.679  17.815  0.00  0.00    +0.000 OA
ATOM     14  HXT UNL     1       1.631   3.270  17.205  0.00  0.00    +0.000 HD
ENDBRANCH  11  13
ENDBRANCH   1  11
BRANCH   1  15
ATOM     15  C   UNL     1       3.151   5.600  19.987  0.00  0.00    +0.000 C 
BRANCH  15  16
ATOM     16  C   UNL     1       2.381   6.866  19.660  0.00  0.00    +0.000 A 
ATOM     17  C   UNL     1       2.436   7.508  18.421  0.00  0.00    +0.000 A 
ATOM     18  C   UNL     1       1.838   8.752  18.234  0.00  0.00    +0.000 A 
ATOM     19  C   UNL     1       1.129   9.365  19.263  0.00  0.00    +0.000 A 
ATOM     20  C   UNL     1       0.986   8.702  20.479  0.00  0.00    +0.000 A 
ATOM     21  C   UNL     1       1.608   7.461  20.673  0.00  0.00    +0.000 A 
BRANCH  19  22
ATOM     22  O   UNL     1       0.690  10.617  18.957  0.00  0.00    +0.000 OA
BRANCH  22  23
ATOM     23  C   UNL     1      -0.676  10.921  19.201  0.00  0.00    +0.000 C 
BRANCH  23  24
ATOM     24  C   UNL     1      -1.413  10.673  17.955  0.00  0.00    +0.000 C 
ATOM     25  C   UNL     1      -1.993  10.527  16.911  0.00  0.00    +0.000 C 
BRANCH  25  26
ATOM     26  C   UNL     1      -2.678  10.394  15.625  0.00  0.00    +0.000 C 
BRANCH  26  27
ATOM     27  O   UNL     1      -3.434  11.565  15.360  0.00  0.00    +0.000 OA
ATOM     28  H   UNL     1      -4.370  11.306  15.413  0.00  0.00    +0.000 HD
ENDBRANCH  26  27
ENDBRANCH  25  26
ENDBRANCH  23  24
ENDBRANCH  22  23
ENDBRANCH  19  22
ENDBRANCH  15  16
ENDBRANCH   1  15
TORSDOF 14
ENDMDL
MODEL 5
REMARK VINA RESULT:      -6.9      3.856      6.547
REMARK  Name = 
REMARK  15 active torsions:
REMARK  status: ('A' for Active; 'I' for Inactive)
REMARK    1  A    between atoms: C_1  and  C_2
REMARK    2  A    between atoms: C_2  and  C_3
REMARK    3  A    between atoms: C_3  and  C_4
REMARK    4  A    between atoms: C_4  and  C_5
REMARK    5  A    between atoms: C_5  and  C_6
REMARK    6  A    between atoms: N_8  and  CA_9
REMARK    7  A    between atoms: CA_9  and  C_10
REMARK    8  A    between atoms: CA_9  and  C_23
REMARK    9  A    between atoms: C_10  and  C_11
REMARK   10  A    between atoms: C_14  and  O_15
REMARK   11  A    between atoms: O_15  and  C_16
REMARK   12  A    between atoms: C_16  and  C_17
REMARK   13  A    between atoms: C_18  and  C_19
REMARK   14  A    between atoms: C_19  and  O_20
REMARK   15  A    between atoms: C_23  and  OXT_25
REMARK                            x       y       z     vdW  Elec       q    Type
REMARK                         _______ _______ _______ _____ _____    ______ ____
ROOT
ATOM      1  CA  UNL     1       6.510   4.551  16.269  0.00  0.00    +0.000 C 
ENDROOT
BRANCH   1   4
ATOM      2  C   UNL     1       7.019   6.705  17.422  0.00  0.00    +0.000 C 
ATOM      3  O   UNL     1       5.957   7.222  17.090  0.00  0.00    +0.000 OA
ATOM      4  N   UNL     1       7.352   5.418  17.097  0.00  0.00    +0.000 N 
ATOM      5  H   UNL     1       8.180   5.002  17.514  0.00  0.00    +0.000 HD
BRANCH   2   6
ATOM      6  C   UNL     1       8.091   7.444  18.199  0.00  0.00    +0.000 C 
BRANCH   6   7
ATOM      7  C   UNL     1       8.089   8.948  17.914  0.00  0.00    +0.000 C 
BRANCH   7   8
ATOM      8  C   UNL     1       8.967   9.776  18.860  0.00  0.00    +0.000 C 
BRANCH   8  10
ATOM      9  C   UNL     1       8.528  11.954  17.671  0.00  0.00    +0.000 C 
ATOM     10  C   UNL     1       9.592  10.999  18.185  0.00  0.00    +0.000 C 
ENDBRANCH   8  10
ENDBRANCH   7   8
ENDBRANCH   6   7
ENDBRANCH   2   6
ENDBRANCH   1   4
BRANCH   1  11
ATOM     11  C   UNL     1       6.985   4.637  14.812  0.00  0.00    +0.000 C 
ATOM     12  O   UNL     1       7.750   5.505  14.403  0.00  0.00    +0.000 OA
BRANCH  11  13
ATOM     13  OXT UNL     1       6.516   3.665  14.000  0.00  0.00    +0.000 OA
ATOM     14  HXT UNL     1       6.701   3.786  13.049  0.00  0.00    +0.000 HD
ENDBRANCH  11  13
ENDBRANCH   1  11
BRANCH   1  15
ATOM     15  C   UNL     1       5.004   4.859  16.420  0.00  0.00    +0.000 C 
BRANCH  15  16
ATOM     16  C   UNL     1       4.146   3.989  17.319  0.00  0.00    +0.000 A 
ATOM     17  C   UNL     1       2.808   3.686  17.057  0.00  0.00    +0.000 A 
ATOM     18  C   UNL     1       2.029   3.020  18.000  0.00  0.00    +0.000 A 
ATOM     19  C   UNL     1       2.577   2.596  19.208  0.00  0.00    +0.000 A 
ATOM     20  C   UNL     1       3.931   2.808  19.452  0.00  0.00    +0.000 A 
ATOM     21  C   UNL     1       4.708   3.499  18.511  0.00  0.00    +0.000 A 
BRANCH  19  22
ATOM     22  O   UNL     1       1.667   2.051  20.062  0.00  0.00    +0.000 OA
BRANCH  22  23
ATOM     23  C   UNL     1       1.424   2.721  21.291  0.00  0.00    +0.000 C 
BRANCH  23  24
ATOM     24  C   UNL     1       1.491   4.164  21.028  0.00  0.00    +0.000 C 
ATOM     25  C   UNL     1       1.590   5.334  20.764  0.00  0.00    +0.000 C 
BRANCH  25  26
ATOM     26  C   UNL     1       1.743   6.744  20.406  0.00  0.00    +0.000 C 
BRANCH  26  27
ATOM     27  O   UNL     1       2.658   6.870  19.329  0.00  0.00    +0.000 OA
ATOM     28  H   UNL     1       3.458   6.383  19.589  0.00  0.00    +0.000 HD
ENDBRANCH  26  27
ENDBRANCH  25  26
ENDBRANCH  23  24
ENDBRANCH  22  23
ENDBRANCH  19  22
ENDBRANCH  15  16
ENDBRANCH   1  15
TORSDOF 14
ENDMDL
MODEL 6
REMARK VINA RESULT:      -6.9      2.414      4.334
REMARK  Name = 
REMARK  15 active torsions:
REMARK  status: ('A' for Active; 'I' for Inactive)
REMARK    1  A    between atoms: C_1  and  C_2
REMARK    2  A    between atoms: C_2  and  C_3
REMARK    3  A    between atoms: C_3  and  C_4
REMARK    4  A    between atoms: C_4  and  C_5
REMARK    5  A    between atoms: C_5  and  C_6
REMARK    6  A    between atoms: N_8  and  CA_9
REMARK    7  A    between atoms: CA_9  and  C_10
REMARK    8  A    between atoms: CA_9  and  C_23
REMARK    9  A    between atoms: C_10  and  C_11
REMARK   10  A    between atoms: C_14  and  O_15
REMARK   11  A    between atoms: O_15  and  C_16
REMARK   12  A    between atoms: C_16  and  C_17
REMARK   13  A    between atoms: C_18  and  C_19
REMARK   14  A    between atoms: C_19  and  O_20
REMARK   15  A    between atoms: C_23  and  OXT_25
REMARK                            x       y       z     vdW  Elec       q    Type
REMARK                         _______ _______ _______ _____ _____    ______ ____
ROOT
ATOM      1  CA  UNL     1       4.728   4.724  16.541  0.00  0.00    +0.000 C 
ENDROOT
BRANCH   1   4
ATOM      2  C   UNL     1       3.331   2.897  17.510  0.00  0.00    +0.000 C 
ATOM      3  O   UNL     1       2.288   3.341  17.042  0.00  0.00    +0.000 OA
ATOM      4  N   UNL     1       4.551   3.480  17.295  0.00  0.00    +0.000 N 
ATOM      5  H   UNL     1       5.391   2.993  17.593  0.00  0.00    +0.000 HD
BRANCH   2   6
ATOM      6  C   UNL     1       3.380   1.674  18.406  0.00  0.00    +0.000 C 
BRANCH   6   7
ATOM      7  C   UNL     1       4.017   1.970  19.767  0.00  0.00    +0.000 C 
BRANCH   7   8
ATOM      8  C   UNL     1       3.222   2.947  20.642  0.00  0.00    +0.000 C 
BRANCH   8  10
ATOM      9  C   UNL     1       0.811   3.599  20.310  0.00  0.00    +0.000 C 
ATOM     10  C   UNL     1       1.761   2.534  20.831  0.00  0.00    +0.000 C 
ENDBRANCH   8  10
ENDBRANCH   7   8
ENDBRANCH   6   7
ENDBRANCH   2   6
ENDBRANCH   1   4
BRANCH   1  11
ATOM     11  C   UNL     1       5.850   4.528  15.512  0.00  0.00    +0.000 C 
ATOM     12  O   UNL     1       6.350   5.450  14.876  0.00  0.00    +0.000 OA
BRANCH  11  13
ATOM     13  OXT UNL     1       6.276   3.254  15.366  0.00  0.00    +0.000 OA
ATOM     14  HXT UNL     1       7.034   2.998  15.923  0.00  0.00    +0.000 HD
ENDBRANCH  11  13
ENDBRANCH   1  11
BRANCH   1  15
ATOM     15  C   UNL     1       4.969   5.947  17.452  0.00  0.00    +0.000 C 
BRANCH  15  16
ATOM     16  C   UNL     1       3.785   6.734  17.980  0.00  0.00    +0.000 A 
ATOM     17  C   UNL     1       3.271   7.874  17.358  0.00  0.00    +0.000 A 
ATOM     18  C   UNL     1       2.291   8.645  17.976  0.00  0.00    +0.000 A 
ATOM     19  C   UNL     1       1.762   8.274  19.209  0.00  0.00    +0.000 A 
ATOM     20  C   UNL     1       2.195   7.093  19.806  0.00  0.00    +0.000 A 
ATOM     21  C   UNL     1       3.199   6.330  19.193  0.00  0.00    +0.000 A 
BRANCH  19  22
ATOM     22  O   UNL     1       0.888   9.180  19.727  0.00  0.00    +0.000 OA
BRANCH  22  23
ATOM     23  C   UNL     1       1.000  10.531  19.301  0.00  0.00    +0.000 C 
BRANCH  23  24
ATOM     24  C   UNL     1      -0.285  10.914  18.703  0.00  0.00    +0.000 C 
ATOM     25  C   UNL     1      -1.340  11.168  18.184  0.00  0.00    +0.000 C 
BRANCH  25  26
ATOM     26  C   UNL     1      -2.624  11.429  17.534  0.00  0.00    +0.000 C 
BRANCH  26  27
ATOM     27  O   UNL     1      -3.468  12.158  18.412  0.00  0.00    +0.000 OA
ATOM     28  H   UNL     1      -3.817  11.516  19.054  0.00  0.00    +0.000 HD
ENDBRANCH  26  27
ENDBRANCH  25  26
ENDBRANCH  23  24
ENDBRANCH  22  23
ENDBRANCH  19  22
ENDBRANCH  15  16
ENDBRANCH   1  15
TORSDOF 14
ENDMDL
MODEL 7
REMARK VINA RESULT:      -6.9      4.519      7.603
REMARK  Name = 
REMARK  15 active torsions:
REMARK  status: ('A' for Active; 'I' for Inactive)
REMARK    1  A    between atoms: C_1  and  C_2
REMARK    2  A    between atoms: C_2  and  C_3
REMARK    3  A    between atoms: C_3  and  C_4
REMARK    4  A    between atoms: C_4  and  C_5
REMARK    5  A    between atoms: C_5  and  C_6
REMARK    6  A    between atoms: N_8  and  CA_9
REMARK    7  A    between atoms: CA_9  and  C_10
REMARK    8  A    between atoms: CA_9  and  C_23
REMARK    9  A    between atoms: C_10  and  C_11
REMARK   10  A    between atoms: C_14  and  O_15
REMARK   11  A    between atoms: O_15  and  C_16
REMARK   12  A    between atoms: C_16  and  C_17
REMARK   13  A    between atoms: C_18  and  C_19
REMARK   14  A    between atoms: C_19  and  O_20
REMARK   15  A    between atoms: C_23  and  OXT_25
REMARK                            x       y       z     vdW  Elec       q    Type
REMARK                         _______ _______ _______ _____ _____    ______ ____
ROOT
ATOM      1  CA  UNL     1       6.389   6.042  16.927  0.00  0.00    +0.000 C 
ENDROOT
BRANCH   1   4
ATOM      2  C   UNL     1       7.830   7.867  17.832  0.00  0.00    +0.000 C 
ATOM      3  O   UNL     1       8.287   7.167  18.730  0.00  0.00    +0.000 OA
ATOM      4  N   UNL     1       6.938   7.400  16.905  0.00  0.00    +0.000 N 
ATOM      5  H   UNL     1       6.702   7.984  16.108  0.00  0.00    +0.000 HD
BRANCH   2   6
ATOM      6  C   UNL     1       8.178   9.334  17.671  0.00  0.00    +0.000 C 
BRANCH   6   7
ATOM      7  C   UNL     1       9.018   9.868  18.834  0.00  0.00    +0.000 C 
BRANCH   7   8
ATOM      8  C   UNL     1       9.522  11.305  18.648  0.00  0.00    +0.000 C 
BRANCH   8  10
ATOM      9  C   UNL     1       9.386  11.258  21.164  0.00  0.00    +0.000 C 
ATOM     10  C   UNL     1       9.984  11.955  19.954  0.00  0.00    +0.000 C 
ENDBRANCH   8  10
ENDBRANCH   7   8
ENDBRANCH   6   7
ENDBRANCH   2   6
ENDBRANCH   1   4
BRANCH   1  11
ATOM     11  C   UNL     1       7.233   5.148  16.009  0.00  0.00    +0.000 C 
ATOM     12  O   UNL     1       7.373   5.357  14.808  0.00  0.00    +0.000 OA
BRANCH  11  13
ATOM     13  OXT UNL     1       7.842   4.110  16.623  0.00  0.00    +0.000 OA
ATOM     14  HXT UNL     1       7.924   4.185  17.592  0.00  0.00    +0.000 HD
ENDBRANCH  11  13
ENDBRANCH   1  11
BRANCH   1  15
ATOM     15  C   UNL     1       4.885   5.998  16.576  0.00  0.00    +0.000 C 
BRANCH  15  16
ATOM     16  C   UNL     1       3.905   5.376  17.552  0.00  0.00    +0.000 A 
ATOM     17  C   UNL     1       3.212   4.189  17.305  0.00  0.00    +0.000 A 
ATOM     18  C   UNL     1       2.206   3.757  18.165  0.00  0.00    +0.000 A 
ATOM     19  C   UNL     1       1.899   4.471  19.320  0.00  0.00    +0.000 A 
ATOM     20  C   UNL     1       2.638   5.608  19.633  0.00  0.00    +0.000 A 
ATOM     21  C   UNL     1       3.634   6.055  18.754  0.00  0.00    +0.000 A 
BRANCH  19  22
ATOM     22  O   UNL     1       0.830   3.976  20.003  0.00  0.00    +0.000 OA
BRANCH  22  23
ATOM     23  C   UNL     1       1.085   3.142  21.125  0.00  0.00    +0.000 C 
BRANCH  23  24
ATOM     24  C   UNL     1       2.470   2.665  21.014  0.00  0.00    +0.000 C 
ATOM     25  C   UNL     1       3.593   2.263  20.859  0.00  0.00    +0.000 C 
BRANCH  25  26
ATOM     26  C   UNL     1       4.949   1.768  20.622  0.00  0.00    +0.000 C 
BRANCH  26  27
ATOM     27  O   UNL     1       5.463   1.187  21.810  0.00  0.00    +0.000 OA
ATOM     28  H   UNL     1       5.980   0.411  21.534  0.00  0.00    +0.000 HD
ENDBRANCH  26  27
ENDBRANCH  25  26
ENDBRANCH  23  24
ENDBRANCH  22  23
ENDBRANCH  19  22
ENDBRANCH  15  16
ENDBRANCH   1  15
TORSDOF 14
ENDMDL
MODEL 8
REMARK VINA RESULT:      -6.9      4.494      7.766
REMARK  Name = 
REMARK  15 active torsions:
REMARK  status: ('A' for Active; 'I' for Inactive)
REMARK    1  A    between atoms: C_1  and  C_2
REMARK    2  A    between atoms: C_2  and  C_3
REMARK    3  A    between atoms: C_3  and  C_4
REMARK    4  A    between atoms: C_4  and  C_5
REMARK    5  A    between atoms: C_5  and  C_6
REMARK    6  A    between atoms: N_8  and  CA_9
REMARK    7  A    between atoms: CA_9  and  C_10
REMARK    8  A    between atoms: CA_9  and  C_23
REMARK    9  A    between atoms: C_10  and  C_11
REMARK   10  A    between atoms: C_14  and  O_15
REMARK   11  A    between atoms: O_15  and  C_16
REMARK   12  A    between atoms: C_16  and  C_17
REMARK   13  A    between atoms: C_18  and  C_19
REMARK   14  A    between atoms: C_19  and  O_20
REMARK   15  A    between atoms: C_23  and  OXT_25
REMARK                            x       y       z     vdW  Elec       q    Type
REMARK                         _______ _______ _______ _____ _____    ______ ____
ROOT
ATOM      1  CA  UNL     1       7.384   5.022  17.820  0.00  0.00    +0.000 C 
ENDROOT
BRANCH   1   4
ATOM      2  C   UNL     1       5.192   4.492  18.887  0.00  0.00    +0.000 C 
ATOM      3  O   UNL     1       4.789   5.648  18.815  0.00  0.00    +0.000 OA
ATOM      4  N   UNL     1       6.412   4.097  18.408  0.00  0.00    +0.000 N 
ATOM      5  H   UNL     1       6.632   3.106  18.373  0.00  0.00    +0.000 HD
BRANCH   2   6
ATOM      6  C   UNL     1       4.398   3.380  19.546  0.00  0.00    +0.000 C 
BRANCH   6   7
ATOM      7  C   UNL     1       3.042   3.151  18.873  0.00  0.00    +0.000 C 
BRANCH   7   8
ATOM      8  C   UNL     1       2.023   4.276  19.093  0.00  0.00    +0.000 C 
BRANCH   8  10
ATOM      9  C   UNL     1       1.668   2.906  21.178  0.00  0.00    +0.000 C 
ATOM     10  C   UNL     1       1.180   4.086  20.355  0.00  0.00    +0.000 C 
ENDBRANCH   8  10
ENDBRANCH   7   8
ENDBRANCH   6   7
ENDBRANCH   2   6
ENDBRANCH   1   4
BRANCH   1  11
ATOM     11  C   UNL     1       8.025   5.851  18.941  0.00  0.00    +0.000 C 
ATOM     12  O   UNL     1       8.304   7.040  18.824  0.00  0.00    +0.000 OA
BRANCH  11  13
ATOM     13  OXT UNL     1       8.243   5.182  20.094  0.00  0.00    +0.000 OA
ATOM     14  HXT UNL     1       7.649   5.412  20.833  0.00  0.00    +0.000 HD
ENDBRANCH  11  13
ENDBRANCH   1  11
BRANCH   1  15
ATOM     15  C   UNL     1       6.776   5.903  16.707  0.00  0.00    +0.000 C 
BRANCH  15  16
ATOM     16  C   UNL     1       6.440   5.286  15.362  0.00  0.00    +0.000 A 
ATOM     17  C   UNL     1       5.245   4.614  15.094  0.00  0.00    +0.000 A 
ATOM     18  C   UNL     1       5.064   3.929  13.895  0.00  0.00    +0.000 A 
ATOM     19  C   UNL     1       6.051   3.937  12.912  0.00  0.00    +0.000 A 
ATOM     20  C   UNL     1       7.213   4.675  13.122  0.00  0.00    +0.000 A 
ATOM     21  C   UNL     1       7.403   5.345  14.339  0.00  0.00    +0.000 A 
BRANCH  19  22
ATOM     22  O   UNL     1       5.767   3.143  11.843  0.00  0.00    +0.000 OA
BRANCH  22  23
ATOM     23  C   UNL     1       4.441   2.648  11.717  0.00  0.00    +0.000 C 
BRANCH  23  24
ATOM     24  C   UNL     1       3.782   3.417  10.653  0.00  0.00    +0.000 C 
ATOM     25  C   UNL     1       3.295   4.034   9.743  0.00  0.00    +0.000 C 
BRANCH  25  26
ATOM     26  C   UNL     1       2.743   4.773   8.608  0.00  0.00    +0.000 C 
BRANCH  26  27
ATOM     27  O   UNL     1       1.567   5.460   9.008  0.00  0.00    +0.000 OA
ATOM     28  H   UNL     1       1.860   6.286   9.428  0.00  0.00    +0.000 HD
ENDBRANCH  26  27
ENDBRANCH  25  26
ENDBRANCH  23  24
ENDBRANCH  22  23
ENDBRANCH  19  22
ENDBRANCH  15  16
ENDBRANCH   1  15
TORSDOF 14
ENDMDL
MODEL 9
REMARK VINA RESULT:      -6.8      3.221      5.053
REMARK  Name = 
REMARK  15 active torsions:
REMARK  status: ('A' for Active; 'I' for Inactive)
REMARK    1  A    between atoms: C_1  and  C_2
REMARK    2  A    between atoms: C_2  and  C_3
REMARK    3  A    between atoms: C_3  and  C_4
REMARK    4  A    between atoms: C_4  and  C_5
REMARK    5  A    between atoms: C_5  and  C_6
REMARK    6  A    between atoms: N_8  and  CA_9
REMARK    7  A    between atoms: CA_9  and  C_10
REMARK    8  A    between atoms: CA_9  and  C_23
REMARK    9  A    between atoms: C_10  and  C_11
REMARK   10  A    between atoms: C_14  and  O_15
REMARK   11  A    between atoms: O_15  and  C_16
REMARK   12  A    between atoms: C_16  and  C_17
REMARK   13  A    between atoms: C_18  and  C_19
REMARK   14  A    between atoms: C_19  and  O_20
REMARK   15  A    between atoms: C_23  and  OXT_25
REMARK                            x       y       z     vdW  Elec       q    Type
REMARK                         _______ _______ _______ _____ _____    ______ ____
ROOT
ATOM      1  CA  UNL     1       5.898   6.046  17.316  0.00  0.00    +0.000 C 
ENDROOT
BRANCH   1   4
ATOM      2  C   UNL     1       7.711   7.634  17.964  0.00  0.00    +0.000 C 
ATOM      3  O   UNL     1       8.223   6.849  18.755  0.00  0.00    +0.000 OA
ATOM      4  N   UNL     1       6.612   7.321  17.210  0.00  0.00    +0.000 N 
ATOM      5  H   UNL     1       6.318   7.959  16.476  0.00  0.00    +0.000 HD
BRANCH   2   6
ATOM      6  C   UNL     1       8.218   9.049  17.758  0.00  0.00    +0.000 C 
BRANCH   6   7
ATOM      7  C   UNL     1       8.930   9.601  18.996  0.00  0.00    +0.000 C 
BRANCH   7   8
ATOM      8  C   UNL     1       9.400  11.055  18.865  0.00  0.00    +0.000 C 
BRANCH   8  10
ATOM      9  C   UNL     1      11.585  12.023  18.067  0.00  0.00    +0.000 C 
ATOM     10  C   UNL     1      10.320  11.285  17.665  0.00  0.00    +0.000 C 
ENDBRANCH   8  10
ENDBRANCH   7   8
ENDBRANCH   6   7
ENDBRANCH   2   6
ENDBRANCH   1   4
BRANCH   1  11
ATOM     11  C   UNL     1       6.597   5.008  16.428  0.00  0.00    +0.000 C 
ATOM     12  O   UNL     1       6.386   4.901  15.223  0.00  0.00    +0.000 OA
BRANCH  11  13
ATOM     13  OXT UNL     1       7.492   4.221  17.063  0.00  0.00    +0.000 OA
ATOM     14  HXT UNL     1       7.130   3.407  17.460  0.00  0.00    +0.000 HD
ENDBRANCH  11  13
ENDBRANCH   1  11
BRANCH   1  15
ATOM     15  C   UNL     1       4.392   6.175  17.001  0.00  0.00    +0.000 C 
BRANCH  15  16
ATOM     16  C   UNL     1       3.497   6.972  17.932  0.00  0.00    +0.000 A 
ATOM     17  C   UNL     1       3.074   6.514  19.181  0.00  0.00    +0.000 A 
ATOM     18  C   UNL     1       2.123   7.219  19.916  0.00  0.00    +0.000 A 
ATOM     19  C   UNL     1       1.606   8.423  19.446  0.00  0.00    +0.000 A 
ATOM     20  C   UNL     1       2.080   8.943  18.245  0.00  0.00    +0.000 A 
ATOM     21  C   UNL     1       3.020   8.221  17.496  0.00  0.00    +0.000 A 
BRANCH  19  22
ATOM     22  O   UNL     1       0.617   8.938  20.228  0.00  0.00    +0.000 OA
BRANCH  22  23
ATOM     23  C   UNL     1       0.205  10.276  19.983  0.00  0.00    +0.000 C 
BRANCH  23  24
ATOM     24  C   UNL     1      -0.772  10.243  18.888  0.00  0.00    +0.000 C 
ATOM     25  C   UNL     1      -1.522  10.223  17.948  0.00  0.00    +0.000 C 
BRANCH  25  26
ATOM     26  C   UNL     1      -2.395  10.201  16.774  0.00  0.00    +0.000 C 
BRANCH  26  27
ATOM     27  O   UNL     1      -2.285  11.428  16.070  0.00  0.00    +0.000 OA
ATOM     28  H   UNL     1      -2.264  12.130  16.743  0.00  0.00    +0.000 HD
ENDBRANCH  26  27
ENDBRANCH  25  26
ENDBRANCH  23  24
ENDBRANCH  22  23
ENDBRANCH  19  22
ENDBRANCH  15  16
ENDBRANCH   1  15
TORSDOF 14
ENDMDL
