MODEL 1
REMARK VINA RESULT:      -7.5      0.000      0.000
REMARK  Name = 
REMARK  3 active torsions:
REMARK  status: ('A' for Active; 'I' for Inactive)
REMARK    1  A    between atoms: C_5  and  C_6
REMARK    2  A    between atoms: C_8  and  C_9
REMARK    3  A    between atoms: C_9  and  C_10
REMARK                            x       y       z     vdW  Elec       q    Type
REMARK                         _______ _______ _______ _____ _____    ______ ____
ROOT
ATOM      1  C   UNL     1       4.602   4.647  16.704  0.00  0.00    +0.000 A 
ATOM      2  C   UNL     1       5.214   3.842  15.704  0.00  0.00    +0.000 A 
ATOM      3  C   UNL     1       5.888   4.711  14.876  0.00  0.00    +0.000 A 
ATOM      4  N   UNL     1       5.650   5.957  15.393  0.00  0.00    +0.000 N 
ATOM      5  N   UNL     1       4.870   5.944  16.484  0.00  0.00    +0.000 NA
ATOM      6  H   UNL     1       5.996   6.852  15.051  0.00  0.00    +0.000 HD
ENDROOT
BRANCH   1  11
ATOM      7 CL   UNL     1       1.293   2.901  21.379  0.00  0.00    +0.000 Cl
ATOM      8  C   UNL     1       2.238   3.389  20.026  0.00  0.00    +0.000 A 
ATOM      9  C   UNL     1       3.585   3.049  19.969  0.00  0.00    +0.000 A 
ATOM     10  C   UNL     1       4.358   3.453  18.876  0.00  0.00    +0.000 A 
ATOM     11  C   UNL     1       3.788   4.205  17.837  0.00  0.00    +0.000 A 
ATOM     12  C   UNL     1       2.426   4.535  17.911  0.00  0.00    +0.000 A 
ATOM     13  C   UNL     1       1.652   4.127  19.000  0.00  0.00    +0.000 A 
ENDBRANCH   1  11
BRANCH   3  14
ATOM     14  C   UNL     1       6.685   4.471  13.640  0.00  0.00    +0.000 C 
BRANCH  14  15
ATOM     15  C   UNL     1       6.024   3.580  12.654  0.00  0.00    +0.000 A 
ATOM     16  N   UNL     1       4.798   3.662  12.175  0.00  0.00    +0.000 NA
ATOM     17  N   UNL     1       4.650   2.591  11.329  0.00  0.00    +0.000 NA
ATOM     18  N   UNL     1       5.757   1.863  11.284  0.00  0.00    +0.000 NA
ATOM     19  N   UNL     1       6.616   2.482  12.102  0.00  0.00    +0.000 N 
ATOM     20  H   UNL     1       7.547   2.103  12.229  0.00  0.00    +0.000 HD
ENDBRANCH  14  15
ENDBRANCH   3  14
TORSDOF 3
ENDMDL
MODEL 2
REMARK VINA RESULT:      -7.4      0.245      1.147
REMARK  Name = 
REMARK  3 active torsions:
REMARK  status: ('A' for Active; 'I' for Inactive)
REMARK    1  A    between atoms: C_5  and  C_6
REMARK    2  A    between atoms: C_8  and  C_9
REMARK    3  A    between atoms: C_9  and  C_10
REMARK                            x       y       z     vdW  Elec       q    Type
REMARK                         _______ _______ _______ _____ _____    ______ ____
ROOT
ATOM      1  C   UNL     1       4.620   4.685  16.851  0.00  0.00    +0.000 A 
ATOM      2  C   UNL     1       5.311   3.869  15.915  0.00  0.00    +0.000 A 
ATOM      3  C   UNL     1       5.886   4.732  15.009  0.00  0.00    +0.000 A 
ATOM      4  N   UNL     1       5.518   5.984  15.424  0.00  0.00    +0.000 N 
ATOM      5  N   UNL     1       4.747   5.981  16.521  0.00  0.00    +0.000 NA
ATOM      6  H   UNL     1       5.765   6.879  15.005  0.00  0.00    +0.000 HD
ENDROOT
BRANCH   1  11
ATOM      7 CL   UNL     1       1.477   2.878  21.617  0.00  0.00    +0.000 Cl
ATOM      8  C   UNL     1       2.390   3.408  20.258  0.00  0.00    +0.000 A 
ATOM      9  C   UNL     1       1.867   4.385  19.417  0.00  0.00    +0.000 A 
ATOM     10  C   UNL     1       2.602   4.810  18.305  0.00  0.00    +0.000 A 
ATOM     11  C   UNL     1       3.861   4.256  18.027  0.00  0.00    +0.000 A 
ATOM     12  C   UNL     1       4.373   3.275  18.890  0.00  0.00    +0.000 A 
ATOM     13  C   UNL     1       3.642   2.853  20.003  0.00  0.00    +0.000 A 
ENDBRANCH   1  11
BRANCH   3  14
ATOM     14  C   UNL     1       6.700   4.475  13.788  0.00  0.00    +0.000 C 
BRANCH  14  15
ATOM     15  C   UNL     1       6.021   3.634  12.771  0.00  0.00    +0.000 A 
ATOM     16  N   UNL     1       4.797   3.757  12.298  0.00  0.00    +0.000 NA
ATOM     17  N   UNL     1       4.628   2.721  11.412  0.00  0.00    +0.000 NA
ATOM     18  N   UNL     1       5.721   1.976  11.337  0.00  0.00    +0.000 NA
ATOM     19  N   UNL     1       6.593   2.547  12.176  0.00  0.00    +0.000 N 
ATOM     20  H   UNL     1       7.517   2.146  12.287  0.00  0.00    +0.000 HD
ENDBRANCH  14  15
ENDBRANCH   3  14
TORSDOF 3
ENDMDL
MODEL 3
REMARK VINA RESULT:      -7.3      6.860      7.869
REMARK  Name = 
REMARK  3 active torsions:
REMARK  status: ('A' for Active; 'I' for Inactive)
REMARK    1  A    between atoms: C_5  and  C_6
REMARK    2  A    between atoms: C_8  and  C_9
REMARK    3  A    between atoms: C_9  and  C_10
REMARK                            x       y       z     vdW  Elec       q    Type
REMARK                         _______ _______ _______ _____ _____    ______ ____
ROOT
ATOM      1  C   UNL     1       8.409   9.064  18.334  0.00  0.00    +0.000 A 
ATOM      2  C   UNL     1       8.560   7.763  18.888  0.00  0.00    +0.000 A 
ATOM      3  C   UNL     1       7.792   6.926  18.110  0.00  0.00    +0.000 A 
ATOM      4  N   UNL     1       7.226   7.737  17.162  0.00  0.00    +0.000 N 
ATOM      5  N   UNL     1       7.572   9.027  17.284  0.00  0.00    +0.000 NA
ATOM      6  H   UNL     1       6.602   7.469  16.403  0.00  0.00    +0.000 HD
ENDROOT
BRANCH   1  11
ATOM      7 CL   UNL     1      11.047  14.125  20.146  0.00  0.00    +0.000 Cl
ATOM      8  C   UNL     1      10.273  12.678  19.628  0.00  0.00    +0.000 A 
ATOM      9  C   UNL     1      10.113  11.624  20.522  0.00  0.00    +0.000 A 
ATOM     10  C   UNL     1       9.495  10.443  20.100  0.00  0.00    +0.000 A 
ATOM     11  C   UNL     1       9.037  10.308  18.781  0.00  0.00    +0.000 A 
ATOM     12  C   UNL     1       9.203  11.384  17.895  0.00  0.00    +0.000 A 
ATOM     13  C   UNL     1       9.817  12.566  18.316  0.00  0.00    +0.000 A 
ENDBRANCH   1  11
BRANCH   3  14
ATOM     14  C   UNL     1       7.522   5.465  18.212  0.00  0.00    +0.000 C 
BRANCH  14  15
ATOM     15  C   UNL     1       7.079   4.838  16.941  0.00  0.00    +0.000 A 
ATOM     16  N   UNL     1       7.556   5.034  15.727  0.00  0.00    +0.000 NA
ATOM     17  N   UNL     1       6.792   4.257  14.891  0.00  0.00    +0.000 NA
ATOM     18  N   UNL     1       5.865   3.596  15.570  0.00  0.00    +0.000 NA
ATOM     19  N   UNL     1       6.047   3.951  16.848  0.00  0.00    +0.000 N 
ATOM     20  H   UNL     1       5.446   3.563  17.565  0.00  0.00    +0.000 HD
ENDBRANCH  14  15
ENDBRANCH   3  14
TORSDOF 3
ENDMDL
MODEL 4
REMARK VINA RESULT:      -7.2      3.478      4.259
REMARK  Name = 
REMARK  3 active torsions:
REMARK  status: ('A' for Active; 'I' for Inactive)
REMARK    1  A    between atoms: C_5  and  C_6
REMARK    2  A    between atoms: C_8  and  C_9
REMARK    3  A    between atoms: C_9  and  C_10
REMARK                            x       y       z     vdW  Elec       q    Type
REMARK                         _______ _______ _______ _____ _____    ______ ____
ROOT
ATOM      1  C   UNL     1       3.476   6.192  18.091  0.00  0.00    +0.000 A 
ATOM      2  C   UNL     1       4.855   6.227  17.749  0.00  0.00    +0.000 A 
ATOM      3  C   UNL     1       5.182   4.949  17.353  0.00  0.00    +0.000 A 
ATOM      4  N   UNL     1       4.025   4.228  17.481  0.00  0.00    +0.000 N 
ATOM      5  N   UNL     1       2.989   4.951  17.933  0.00  0.00    +0.000 NA
ATOM      6  H   UNL     1       3.876   3.243  17.268  0.00  0.00    +0.000 HD
ENDROOT
BRANCH   1  11
ATOM      7 CL   UNL     1       0.109  10.759  20.005  0.00  0.00    +0.000 Cl
ATOM      8  C   UNL     1       1.062   9.440  19.447  0.00  0.00    +0.000 A 
ATOM      9  C   UNL     1       1.352   8.387  20.309  0.00  0.00    +0.000 A 
ATOM     10  C   UNL     1       2.136   7.319  19.862  0.00  0.00    +0.000 A 
ATOM     11  C   UNL     1       2.638   7.300  18.552  0.00  0.00    +0.000 A 
ATOM     12  C   UNL     1       2.330   8.369  17.695  0.00  0.00    +0.000 A 
ATOM     13  C   UNL     1       1.543   9.434  18.139  0.00  0.00    +0.000 A 
ENDBRANCH   1  11
BRANCH   3  14
ATOM     14  C   UNL     1       6.478   4.357  16.916  0.00  0.00    +0.000 C 
BRANCH  14  15
ATOM     15  C   UNL     1       6.764   4.523  15.469  0.00  0.00    +0.000 A 
ATOM     16  N   UNL     1       7.498   5.450  14.885  0.00  0.00    +0.000 NA
ATOM     17  N   UNL     1       7.424   5.197  13.537  0.00  0.00    +0.000 NA
ATOM     18  N   UNL     1       6.663   4.140  13.292  0.00  0.00    +0.000 NA
ATOM     19  N   UNL     1       6.258   3.714  14.495  0.00  0.00    +0.000 N 
ATOM     20  H   UNL     1       5.657   2.901  14.561  0.00  0.00    +0.000 HD
ENDBRANCH  14  15
ENDBRANCH   3  14
TORSDOF 3
ENDMDL
MODEL 5
REMARK VINA RESULT:      -7.2      1.243      1.588
REMARK  Name = 
REMARK  3 active torsions:
REMARK  status: ('A' for Active; 'I' for Inactive)
REMARK    1  A    between atoms: C_5  and  C_6
REMARK    2  A    between atoms: C_8  and  C_9
REMARK    3  A    between atoms: C_9  and  C_10
REMARK                            x       y       z     vdW  Elec       q    Type
REMARK                         _______ _______ _______ _____ _____    ______ ____
ROOT
ATOM      1  C   UNL     1       5.548   5.072  16.056  0.00  0.00    +0.000 A 
ATOM      2  C   UNL     1       5.502   4.432  14.788  0.00  0.00    +0.000 A 
ATOM      3  C   UNL     1       6.679   4.760  14.152  0.00  0.00    +0.000 A 
ATOM      4  N   UNL     1       7.350   5.564  15.035  0.00  0.00    +0.000 N 
ATOM      5  N   UNL     1       6.686   5.775  16.181  0.00  0.00    +0.000 NA
ATOM      6  H   UNL     1       8.267   5.993  14.917  0.00  0.00    +0.000 HD
ENDROOT
BRANCH   1  11
ATOM      7 CL   UNL     1       1.407   4.902  20.379  0.00  0.00    +0.000 Cl
ATOM      8  C   UNL     1       2.608   4.941  19.147  0.00  0.00    +0.000 A 
ATOM      9  C   UNL     1       3.439   6.051  19.029  0.00  0.00    +0.000 A 
ATOM     10  C   UNL     1       4.408   6.090  18.022  0.00  0.00    +0.000 A 
ATOM     11  C   UNL     1       4.548   5.021  17.124  0.00  0.00    +0.000 A 
ATOM     12  C   UNL     1       3.704   3.908  17.261  0.00  0.00    +0.000 A 
ATOM     13  C   UNL     1       2.739   3.866  18.269  0.00  0.00    +0.000 A 
ENDBRANCH   1  11
BRANCH   3  14
ATOM     14  C   UNL     1       7.189   4.421  12.794  0.00  0.00    +0.000 C 
BRANCH  14  15
ATOM     15  C   UNL     1       6.436   3.337  12.115  0.00  0.00    +0.000 A 
ATOM     16  N   UNL     1       5.153   3.302  11.814  0.00  0.00    +0.000 NA
ATOM     17  N   UNL     1       4.934   2.078  11.231  0.00  0.00    +0.000 NA
ATOM     18  N   UNL     1       6.054   1.373  11.172  0.00  0.00    +0.000 NA
ATOM     19  N   UNL     1       6.992   2.158  11.714  0.00  0.00    +0.000 N 
ATOM     20  H   UNL     1       7.947   1.826  11.777  0.00  0.00    +0.000 HD
ENDBRANCH  14  15
ENDBRANCH   3  14
TORSDOF 3
ENDMDL
MODEL 6
REMARK VINA RESULT:      -7.2      3.613      4.596
REMARK  Name = 
REMARK  3 active torsions:
REMARK  status: ('A' for Active; 'I' for Inactive)
REMARK    1  A    between atoms: C_5  and  C_6
REMARK    2  A    between atoms: C_8  and  C_9
REMARK    3  A    between atoms: C_9  and  C_10
REMARK                            x       y       z     vdW  Elec       q    Type
REMARK                         _______ _______ _______ _____ _____    ______ ____
ROOT
ATOM      1  C   UNL     1       3.177   6.346  18.166  0.00  0.00    +0.000 A 
ATOM      2  C   UNL     1       4.582   6.273  17.969  0.00  0.00    +0.000 A 
ATOM      3  C   UNL     1       4.836   5.004  17.497  0.00  0.00    +0.000 A 
ATOM      4  N   UNL     1       3.612   4.391  17.444  0.00  0.00    +0.000 N 
ATOM      5  N   UNL     1       2.602   5.173  17.852  0.00  0.00    +0.000 NA
ATOM      6  H   UNL     1       3.400   3.445  17.132  0.00  0.00    +0.000 HD
ENDROOT
BRANCH   1  11
ATOM      7 CL   UNL     1      -0.086  10.992  20.069  0.00  0.00    +0.000 Cl
ATOM      8  C   UNL     1       0.866   9.665  19.529  0.00  0.00    +0.000 A 
ATOM      9  C   UNL     1       1.250   9.592  18.194  0.00  0.00    +0.000 A 
ATOM     10  C   UNL     1       2.014   8.509  17.749  0.00  0.00    +0.000 A 
ATOM     11  C   UNL     1       2.395   7.490  18.637  0.00  0.00    +0.000 A 
ATOM     12  C   UNL     1       2.001   7.584  19.981  0.00  0.00    +0.000 A 
ATOM     13  C   UNL     1       1.242   8.668  20.427  0.00  0.00    +0.000 A 
ENDBRANCH   1  11
BRANCH   3  14
ATOM     14  C   UNL     1       6.113   4.326  17.141  0.00  0.00    +0.000 C 
BRANCH  14  15
ATOM     15  C   UNL     1       6.561   4.565  15.746  0.00  0.00    +0.000 A 
ATOM     16  N   UNL     1       6.215   3.909  14.656  0.00  0.00    +0.000 NA
ATOM     17  N   UNL     1       6.923   4.483  13.628  0.00  0.00    +0.000 NA
ATOM     18  N   UNL     1       7.688   5.471  14.071  0.00  0.00    +0.000 NA
ATOM     19  N   UNL     1       7.458   5.529  15.388  0.00  0.00    +0.000 N 
ATOM     20  H   UNL     1       7.938   6.222  15.950  0.00  0.00    +0.000 HD
ENDBRANCH  14  15
ENDBRANCH   3  14
TORSDOF 3
ENDMDL
MODEL 7
REMARK VINA RESULT:      -7.2      1.209      1.404
REMARK  Name = 
REMARK  3 active torsions:
REMARK  status: ('A' for Active; 'I' for Inactive)
REMARK    1  A    between atoms: C_5  and  C_6
REMARK    2  A    between atoms: C_8  and  C_9
REMARK    3  A    between atoms: C_9  and  C_10
REMARK                            x       y       z     vdW  Elec       q    Type
REMARK                         _______ _______ _______ _____ _____    ______ ____
ROOT
ATOM      1  C   UNL     1       5.684   5.058  16.245  0.00  0.00    +0.000 A 
ATOM      2  C   UNL     1       5.573   4.402  14.988  0.00  0.00    +0.000 A 
ATOM      3  C   UNL     1       6.702   4.745  14.278  0.00  0.00    +0.000 A 
ATOM      4  N   UNL     1       7.411   5.571  15.110  0.00  0.00    +0.000 N 
ATOM      5  N   UNL     1       6.813   5.783  16.292  0.00  0.00    +0.000 NA
ATOM      6  H   UNL     1       8.310   6.015  14.932  0.00  0.00    +0.000 HD
ENDROOT
BRANCH   1  11
ATOM      7 CL   UNL     1       1.930   4.833  20.905  0.00  0.00    +0.000 Cl
ATOM      8  C   UNL     1       2.994   4.897  19.554  0.00  0.00    +0.000 A 
ATOM      9  C   UNL     1       3.612   3.733  19.108  0.00  0.00    +0.000 A 
ATOM     10  C   UNL     1       4.487   3.784  18.019  0.00  0.00    +0.000 A 
ATOM     11  C   UNL     1       4.752   5.001  17.372  0.00  0.00    +0.000 A 
ATOM     12  C   UNL     1       4.116   6.164  17.833  0.00  0.00    +0.000 A 
ATOM     13  C   UNL     1       3.238   6.113  18.919  0.00  0.00    +0.000 A 
ENDBRANCH   1  11
BRANCH   3  14
ATOM     14  C   UNL     1       7.135   4.399  12.895  0.00  0.00    +0.000 C 
BRANCH  14  15
ATOM     15  C   UNL     1       6.251   3.426  12.207  0.00  0.00    +0.000 A 
ATOM     16  N   UNL     1       4.983   3.568  11.879  0.00  0.00    +0.000 NA
ATOM     17  N   UNL     1       4.607   2.381  11.299  0.00  0.00    +0.000 NA
ATOM     18  N   UNL     1       5.617   1.525  11.269  0.00  0.00    +0.000 NA
ATOM     19  N   UNL     1       6.645   2.176  11.826  0.00  0.00    +0.000 N 
ATOM     20  H   UNL     1       7.543   1.714  11.912  0.00  0.00    +0.000 HD
ENDBRANCH  14  15
ENDBRANCH   3  14
TORSDOF 3
ENDMDL
MODEL 8
REMARK VINA RESULT:      -7.2      3.650      4.786
REMARK  Name = 
REMARK  3 active torsions:
REMARK  status: ('A' for Active; 'I' for Inactive)
REMARK    1  A    between atoms: C_5  and  C_6
REMARK    2  A    between atoms: C_8  and  C_9
REMARK    3  A    between atoms: C_9  and  C_10
REMARK                            x       y       z     vdW  Elec       q    Type
REMARK                         _______ _______ _______ _____ _____    ______ ____
ROOT
ATOM      1  C   UNL     1       3.231   6.249  18.666  0.00  0.00    +0.000 A 
ATOM      2  C   UNL     1       3.708   5.758  17.420  0.00  0.00    +0.000 A 
ATOM      3  C   UNL     1       4.386   4.593  17.705  0.00  0.00    +0.000 A 
ATOM      4  N   UNL     1       4.295   4.450  19.064  0.00  0.00    +0.000 N 
ATOM      5  N   UNL     1       3.616   5.439  19.664  0.00  0.00    +0.000 NA
ATOM      6  H   UNL     1       4.669   3.696  19.639  0.00  0.00    +0.000 HD
ENDROOT
BRANCH   1  11
ATOM      7 CL   UNL     1      -0.106  11.127  19.635  0.00  0.00    +0.000 Cl
ATOM      8  C   UNL     1       0.867   9.734  19.363  0.00  0.00    +0.000 A 
ATOM      9  C   UNL     1       1.393   9.497  18.097  0.00  0.00    +0.000 A 
ATOM     10  C   UNL     1       2.175   8.360  17.870  0.00  0.00    +0.000 A 
ATOM     11  C   UNL     1       2.430   7.451  18.908  0.00  0.00    +0.000 A 
ATOM     12  C   UNL     1       1.895   7.709  20.180  0.00  0.00    +0.000 A 
ATOM     13  C   UNL     1       1.118   8.847  20.408  0.00  0.00    +0.000 A 
ENDBRANCH   1  11
BRANCH   3  14
ATOM     14  C   UNL     1       5.131   3.650  16.825  0.00  0.00    +0.000 C 
BRANCH  14  15
ATOM     15  C   UNL     1       6.073   4.310  15.886  0.00  0.00    +0.000 A 
ATOM     16  N   UNL     1       7.201   4.931  16.168  0.00  0.00    +0.000 NA
ATOM     17  N   UNL     1       7.683   5.400  14.970  0.00  0.00    +0.000 NA
ATOM     18  N   UNL     1       6.873   5.078  13.972  0.00  0.00    +0.000 NA
ATOM     19  N   UNL     1       5.874   4.391  14.539  0.00  0.00    +0.000 N 
ATOM     20  H   UNL     1       5.122   4.033  13.962  0.00  0.00    +0.000 HD
ENDBRANCH  14  15
ENDBRANCH   3  14
TORSDOF 3
ENDMDL
MODEL 9
REMARK VINA RESULT:      -7.1      3.657      4.737
REMARK  Name = 
REMARK  3 active torsions:
REMARK  status: ('A' for Active; 'I' for Inactive)
REMARK    1  A    between atoms: C_5  and  C_6
REMARK    2  A    between atoms: C_8  and  C_9
REMARK    3  A    between atoms: C_9  and  C_10
REMARK                            x       y       z     vdW  Elec       q    Type
REMARK                         _______ _______ _______ _____ _____    ______ ____
ROOT
ATOM      1  C   UNL     1       3.290   6.311  18.688  0.00  0.00    +0.000 A 
ATOM      2  C   UNL     1       3.733   5.785  17.443  0.00  0.00    +0.000 A 
ATOM      3  C   UNL     1       4.492   4.677  17.747  0.00  0.00    +0.000 A 
ATOM      4  N   UNL     1       4.480   4.598  19.114  0.00  0.00    +0.000 N 
ATOM      5  N   UNL     1       3.774   5.576  19.702  0.00  0.00    +0.000 NA
ATOM      6  H   UNL     1       4.927   3.898  19.704  0.00  0.00    +0.000 HD
ENDROOT
BRANCH   1  11
ATOM      7 CL   UNL     1      -0.157  11.114  19.642  0.00  0.00    +0.000 Cl
ATOM      8  C   UNL     1       0.819   9.725  19.361  0.00  0.00    +0.000 A 
ATOM      9  C   UNL     1       1.082   8.845  20.406  0.00  0.00    +0.000 A 
ATOM     10  C   UNL     1       1.885   7.722  20.184  0.00  0.00    +0.000 A 
ATOM     11  C   UNL     1       2.432   7.475  18.915  0.00  0.00    +0.000 A 
ATOM     12  C   UNL     1       2.152   8.372  17.872  0.00  0.00    +0.000 A 
ATOM     13  C   UNL     1       1.346   9.492  18.093  0.00  0.00    +0.000 A 
ENDBRANCH   1  11
BRANCH   3  14
ATOM     14  C   UNL     1       5.247   3.735  16.874  0.00  0.00    +0.000 C 
BRANCH  14  15
ATOM     15  C   UNL     1       6.165   4.398  15.915  0.00  0.00    +0.000 A 
ATOM     16  N   UNL     1       7.172   5.208  16.178  0.00  0.00    +0.000 NA
ATOM     17  N   UNL     1       7.683   5.584  14.959  0.00  0.00    +0.000 NA
ATOM     18  N   UNL     1       7.010   5.020  13.967  0.00  0.00    +0.000 NA
ATOM     19  N   UNL     1       6.069   4.275  14.559  0.00  0.00    +0.000 N 
ATOM     20  H   UNL     1       5.424   3.740  13.991  0.00  0.00    +0.000 HD
ENDBRANCH  14  15
ENDBRANCH   3  14
TORSDOF 3
ENDMDL
