MODEL 1
REMARK VINA RESULT:      -8.2      0.000      0.000
REMARK  Name = 
REMARK  8 active torsions:
REMARK  status: ('A' for Active; 'I' for Inactive)
REMARK    1  A    between atoms: O_1  and  C_2
REMARK    2  A    between atoms: C_2  and  C_3
REMARK    3  A    between atoms: C_2  and  C_13
REMARK    4  A    between atoms: N_15  and  C_16
REMARK    5  A    between atoms: C_16  and  C_17
REMARK    6  A    between atoms: C_17  and  C_18
REMARK    7  A    between atoms: C_26  and  O_27
REMARK    8  A    between atoms: C_26  and  C_28
REMARK                            x       y       z     vdW  Elec       q    Type
REMARK                         _______ _______ _______ _____ _____    ______ ____
ROOT
ATOM      1  C   UNL     1       5.450   6.272  17.056  0.00  0.00    +0.000 C 
ATOM      2  C   UNL     1       6.507   7.347  16.683  0.00  0.00    +0.000 C 
ATOM      3  N   UNL     1       7.180   7.826  17.907  0.00  0.00    +0.000 NA
ATOM      4  C   UNL     1       7.987   6.768  18.504  0.00  0.00    +0.000 C 
ATOM      5  C   UNL     1       7.141   5.530  18.826  0.00  0.00    +0.000 C 
ATOM      6  C   UNL     1       6.233   5.064  17.654  0.00  0.00    +0.000 C 
ENDROOT
BRANCH   6   7
ATOM      7  C   UNL     1       5.421   3.809  17.975  0.00  0.00    +0.000 A 
ATOM      8  C   UNL     1       4.565   3.212  17.036  0.00  0.00    +0.000 A 
ATOM      9  C   UNL     1       3.697   2.175  17.400  0.00  0.00    +0.000 A 
ATOM     10  C   UNL     1       3.678   1.703  18.708  0.00  0.00    +0.000 A 
ATOM     11  C   UNL     1       4.543   2.255  19.648  0.00  0.00    +0.000 A 
ATOM     12  C   UNL     1       5.400   3.296  19.286  0.00  0.00    +0.000 A 
ENDBRANCH   6   7
BRANCH   6  13
ATOM     13  O   UNL     1       7.091   4.556  16.593  0.00  0.00    +0.000 OA
ATOM     14  H   UNL     1       7.177   3.594  16.679  0.00  0.00    +0.000 HD
ENDBRANCH   6  13
BRANCH   1  15
ATOM     15  C   UNL     1       4.363   6.965  17.943  0.00  0.00    +0.000 C 
BRANCH  15  16
ATOM     16  C   UNL     1       3.232   6.104  18.450  0.00  0.00    +0.000 A 
ATOM     17  C   UNL     1       2.229   5.615  17.604  0.00  0.00    +0.000 A 
ATOM     18  C   UNL     1       1.310   4.670  18.069  0.00  0.00    +0.000 A 
ATOM     19  C   UNL     1       1.399   4.168  19.378  0.00  0.00    +0.000 A 
ATOM     20  C   UNL     1       0.613   3.088  19.813  0.00  0.00    +0.000 A 
ATOM     21  C   UNL     1       0.787   2.549  21.090  0.00  0.00    +0.000 A 
ATOM     22  C   UNL     1       1.700   3.123  21.970  0.00  0.00    +0.000 A 
ATOM     23  C   UNL     1       2.454   4.226  21.569  0.00  0.00    +0.000 A 
ATOM     24  C   UNL     1       2.342   4.730  20.264  0.00  0.00    +0.000 A 
ATOM     25  C   UNL     1       3.212   5.728  19.803  0.00  0.00    +0.000 A 
ENDBRANCH  15  16
BRANCH  15  26
ATOM     26  O   UNL     1       3.754   8.016  17.172  0.00  0.00    +0.000 OA
ATOM     27  H   UNL     1       3.300   8.594  17.810  0.00  0.00    +0.000 HD
ENDBRANCH  15  26
ENDBRANCH   1  15
BRANCH   3  28
ATOM     28  C   UNL     1       7.980   9.041  17.690  0.00  0.00    +0.000 C 
BRANCH  28  29
ATOM     29  C   UNL     1       8.863   9.381  18.903  0.00  0.00    +0.000 C 
BRANCH  29  30
ATOM     30  C   UNL     1       9.430  10.771  18.834  0.00  0.00    +0.000 A 
ATOM     31  C   UNL     1       8.926  11.690  17.913  0.00  0.00    +0.000 A 
ATOM     32  C   UNL     1       9.422  12.995  17.869  0.00  0.00    +0.000 A 
ATOM     33  C   UNL     1      10.455  13.372  18.733  0.00  0.00    +0.000 A 
ATOM     34  C   UNL     1      10.976  12.452  19.642  0.00  0.00    +0.000 A 
ATOM     35  C   UNL     1      10.470  11.152  19.691  0.00  0.00    +0.000 A 
ENDBRANCH  29  30
ENDBRANCH  28  29
ENDBRANCH   3  28
TORSDOF 8
ENDMDL
MODEL 2
REMARK VINA RESULT:      -7.8      0.263      1.212
REMARK  Name = 
REMARK  8 active torsions:
REMARK  status: ('A' for Active; 'I' for Inactive)
REMARK    1  A    between atoms: O_1  and  C_2
REMARK    2  A    between atoms: C_2  and  C_3
REMARK    3  A    between atoms: C_2  and  C_13
REMARK    4  A    between atoms: N_15  and  C_16
REMARK    5  A    between atoms: C_16  and  C_17
REMARK    6  A    between atoms: C_17  and  C_18
REMARK    7  A    between atoms: C_26  and  O_27
REMARK    8  A    between atoms: C_26  and  C_28
REMARK                            x       y       z     vdW  Elec       q    Type
REMARK                         _______ _______ _______ _____ _____    ______ ____
ROOT
ATOM      1  C   UNL     1       5.505   6.106  16.974  0.00  0.00    +0.000 C 
ATOM      2  C   UNL     1       6.650   7.103  16.646  0.00  0.00    +0.000 C 
ATOM      3  N   UNL     1       7.195   7.661  17.900  0.00  0.00    +0.000 NA
ATOM      4  C   UNL     1       7.874   6.627  18.674  0.00  0.00    +0.000 C 
ATOM      5  C   UNL     1       6.938   5.455  18.990  0.00  0.00    +0.000 C 
ATOM      6  C   UNL     1       6.153   4.924  17.758  0.00  0.00    +0.000 C 
ENDROOT
BRANCH   6   7
ATOM      7  C   UNL     1       5.250   3.733  18.078  0.00  0.00    +0.000 A 
ATOM      8  C   UNL     1       5.287   3.080  19.320  0.00  0.00    +0.000 A 
ATOM      9  C   UNL     1       4.588   1.885  19.533  0.00  0.00    +0.000 A 
ATOM     10  C   UNL     1       3.822   1.329  18.514  0.00  0.00    +0.000 A 
ATOM     11  C   UNL     1       3.741   1.978  17.286  0.00  0.00    +0.000 A 
ATOM     12  C   UNL     1       4.448   3.162  17.070  0.00  0.00    +0.000 A 
ENDBRANCH   6   7
BRANCH   6  13
ATOM     13  O   UNL     1       7.105   4.296  16.854  0.00  0.00    +0.000 OA
ATOM     14  H   UNL     1       7.699   3.719  17.359  0.00  0.00    +0.000 HD
ENDBRANCH   6  13
BRANCH   1  15
ATOM     15  C   UNL     1       4.355   6.913  17.663  0.00  0.00    +0.000 C 
BRANCH  15  16
ATOM     16  C   UNL     1       3.238   6.121  18.296  0.00  0.00    +0.000 A 
ATOM     17  C   UNL     1       2.135   5.668  17.562  0.00  0.00    +0.000 A 
ATOM     18  C   UNL     1       1.220   4.780  18.136  0.00  0.00    +0.000 A 
ATOM     19  C   UNL     1       1.410   4.301  19.442  0.00  0.00    +0.000 A 
ATOM     20  C   UNL     1       0.617   3.271  19.976  0.00  0.00    +0.000 A 
ATOM     21  C   UNL     1       0.886   2.749  21.243  0.00  0.00    +0.000 A 
ATOM     22  C   UNL     1       1.908   3.292  22.018  0.00  0.00    +0.000 A 
ATOM     23  C   UNL     1       2.672   4.346  21.520  0.00  0.00    +0.000 A 
ATOM     24  C   UNL     1       2.461   4.830  20.220  0.00  0.00    +0.000 A 
ATOM     25  C   UNL     1       3.330   5.773  19.654  0.00  0.00    +0.000 A 
ENDBRANCH  15  16
BRANCH  15  26
ATOM     26  O   UNL     1       3.741   7.757  16.674  0.00  0.00    +0.000 OA
ATOM     27  H   UNL     1       3.386   7.162  15.991  0.00  0.00    +0.000 HD
ENDBRANCH  15  26
ENDBRANCH   1  15
BRANCH   3  28
ATOM     28  C   UNL     1       8.073   8.821  17.684  0.00  0.00    +0.000 C 
BRANCH  28  29
ATOM     29  C   UNL     1       8.850   9.207  18.955  0.00  0.00    +0.000 C 
BRANCH  29  30
ATOM     30  C   UNL     1       9.343  10.627  18.922  0.00  0.00    +0.000 A 
ATOM     31  C   UNL     1      10.215  11.089  19.909  0.00  0.00    +0.000 A 
ATOM     32  C   UNL     1      10.707  12.395  19.864  0.00  0.00    +0.000 A 
ATOM     33  C   UNL     1      10.296  13.256  18.841  0.00  0.00    +0.000 A 
ATOM     34  C   UNL     1       9.411  12.804  17.863  0.00  0.00    +0.000 A 
ATOM     35  C   UNL     1       8.929  11.494  17.905  0.00  0.00    +0.000 A 
ENDBRANCH  29  30
ENDBRANCH  28  29
ENDBRANCH   3  28
TORSDOF 8
ENDMDL
MODEL 3
REMARK VINA RESULT:      -7.8      6.658     10.407
REMARK  Name = 
REMARK  8 active torsions:
REMARK  status: ('A' for Active; 'I' for Inactive)
REMARK    1  A    between atoms: O_1  and  C_2
REMARK    2  A    between atoms: C_2  and  C_3
REMARK    3  A    between atoms: C_2  and  C_13
REMARK    4  A    between atoms: N_15  and  C_16
REMARK    5  A    between atoms: C_16  and  C_17
REMARK    6  A    between atoms: C_17  and  C_18
REMARK    7  A    between atoms: C_26  and  O_27
REMARK    8  A    between atoms: C_26  and  C_28
REMARK                            x       y       z     vdW  Elec       q    Type
REMARK                         _______ _______ _______ _____ _____    ______ ____
ROOT
ATOM      1  C   UNL     1       0.574  11.001  18.662  0.00  0.00    +0.000 C 
ATOM      2  C   UNL     1       0.919   9.617  18.047  0.00  0.00    +0.000 C 
ATOM      3  N   UNL     1       1.819   8.881  18.956  0.00  0.00    +0.000 NA
ATOM      4  C   UNL     1       1.130   8.525  20.192  0.00  0.00    +0.000 C 
ATOM      5  C   UNL     1       0.574   9.765  20.902  0.00  0.00    +0.000 C 
ATOM      6  C   UNL     1      -0.225  10.720  19.972  0.00  0.00    +0.000 C 
ENDROOT
BRANCH   6   7
ATOM      7  C   UNL     1      -0.804  11.934  20.698  0.00  0.00    +0.000 A 
ATOM      8  C   UNL     1      -1.701  12.818  20.078  0.00  0.00    +0.000 A 
ATOM      9  C   UNL     1      -2.080  14.018  20.693  0.00  0.00    +0.000 A 
ATOM     10  C   UNL     1      -1.582  14.351  21.948  0.00  0.00    +0.000 A 
ATOM     11  C   UNL     1      -0.720  13.473  22.598  0.00  0.00    +0.000 A 
ATOM     12  C   UNL     1      -0.334  12.283  21.979  0.00  0.00    +0.000 A 
ENDBRANCH   6   7
BRANCH   6  13
ATOM     13  O   UNL     1      -1.451  10.042  19.576  0.00  0.00    +0.000 OA
ATOM     14  H   UNL     1      -1.672   9.362  20.232  0.00  0.00    +0.000 HD
ENDBRANCH   6  13
BRANCH   1  15
ATOM     15  C   UNL     1       1.903  11.819  18.764  0.00  0.00    +0.000 C 
BRANCH  15  16
ATOM     16  C   UNL     1       1.791  13.275  19.147  0.00  0.00    +0.000 A 
ATOM     17  C   UNL     1       1.043  14.189  18.395  0.00  0.00    +0.000 A 
ATOM     18  C   UNL     1       0.807  15.478  18.880  0.00  0.00    +0.000 A 
ATOM     19  C   UNL     1       1.283  15.867  20.142  0.00  0.00    +0.000 A 
ATOM     20  C   UNL     1       0.906  17.083  20.735  0.00  0.00    +0.000 A 
ATOM     21  C   UNL     1       1.320  17.404  22.030  0.00  0.00    +0.000 A 
ATOM     22  C   UNL     1       2.169  16.544  22.723  0.00  0.00    +0.000 A 
ATOM     23  C   UNL     1       2.590  15.355  22.129  0.00  0.00    +0.000 A 
ATOM     24  C   UNL     1       2.122  14.987  20.859  0.00  0.00    +0.000 A 
ATOM     25  C   UNL     1       2.408  13.722  20.327  0.00  0.00    +0.000 A 
ENDBRANCH  15  16
BRANCH  15  26
ATOM     26  O   UNL     1       2.551  11.788  17.480  0.00  0.00    +0.000 OA
ATOM     27  H   UNL     1       2.100  12.454  16.932  0.00  0.00    +0.000 HD
ENDBRANCH  15  26
ENDBRANCH   1  15
BRANCH   3  28
ATOM     28  C   UNL     1       2.430   7.697  18.333  0.00  0.00    +0.000 C 
BRANCH  28  29
ATOM     29  C   UNL     1       2.956   6.696  19.376  0.00  0.00    +0.000 C 
BRANCH  29  30
ATOM     30  C   UNL     1       2.225   5.383  19.338  0.00  0.00    +0.000 A 
ATOM     31  C   UNL     1       2.059   4.708  18.128  0.00  0.00    +0.000 A 
ATOM     32  C   UNL     1       1.414   3.470  18.091  0.00  0.00    +0.000 A 
ATOM     33  C   UNL     1       0.902   2.919  19.270  0.00  0.00    +0.000 A 
ATOM     34  C   UNL     1       1.050   3.599  20.479  0.00  0.00    +0.000 A 
ATOM     35  C   UNL     1       1.704   4.831  20.515  0.00  0.00    +0.000 A 
ENDBRANCH  29  30
ENDBRANCH  28  29
ENDBRANCH   3  28
TORSDOF 8
ENDMDL
MODEL 4
REMARK VINA RESULT:      -7.6      6.591     10.435
REMARK  Name = 
REMARK  8 active torsions:
REMARK  status: ('A' for Active; 'I' for Inactive)
REMARK    1  A    between atoms: O_1  and  C_2
REMARK    2  A    between atoms: C_2  and  C_3
REMARK    3  A    between atoms: C_2  and  C_13
REMARK    4  A    between atoms: N_15  and  C_16
REMARK    5  A    between atoms: C_16  and  C_17
REMARK    6  A    between atoms: C_17  and  C_18
REMARK    7  A    between atoms: C_26  and  O_27
REMARK    8  A    between atoms: C_26  and  C_28
REMARK                            x       y       z     vdW  Elec       q    Type
REMARK                         _______ _______ _______ _____ _____    ______ ____
ROOT
ATOM      1  C   UNL     1       0.604  10.995  18.629  0.00  0.00    +0.000 C 
ATOM      2  C   UNL     1       0.918   9.587  18.052  0.00  0.00    +0.000 C 
ATOM      3  N   UNL     1       1.842   8.875  18.958  0.00  0.00    +0.000 NA
ATOM      4  C   UNL     1       1.191   8.570  20.227  0.00  0.00    +0.000 C 
ATOM      5  C   UNL     1       0.668   9.840  20.910  0.00  0.00    +0.000 C 
ATOM      6  C   UNL     1      -0.154  10.768  19.972  0.00  0.00    +0.000 C 
ENDROOT
BRANCH   6   7
ATOM      7  C   UNL     1      -0.700  12.012  20.673  0.00  0.00    +0.000 A 
ATOM      8  C   UNL     1      -0.285  12.387  21.961  0.00  0.00    +0.000 A 
ATOM      9  C   UNL     1      -0.924  13.421  22.658  0.00  0.00    +0.000 A 
ATOM     10  C   UNL     1      -1.979  14.113  22.073  0.00  0.00    +0.000 A 
ATOM     11  C   UNL     1      -2.384  13.783  20.783  0.00  0.00    +0.000 A 
ATOM     12  C   UNL     1      -1.755  12.745  20.094  0.00  0.00    +0.000 A 
ENDBRANCH   6   7
BRANCH   6  13
ATOM     13  O   UNL     1      -1.397  10.087  19.641  0.00  0.00    +0.000 OA
ATOM     14  H   UNL     1      -1.492   9.297  20.195  0.00  0.00    +0.000 HD
ENDBRANCH   6  13
BRANCH   1  15
ATOM     15  C   UNL     1       1.942  11.805  18.658  0.00  0.00    +0.000 C 
BRANCH  15  16
ATOM     16  C   UNL     1       1.869  13.246  19.098  0.00  0.00    +0.000 A 
ATOM     17  C   UNL     1       1.077  14.190  18.433  0.00  0.00    +0.000 A 
ATOM     18  C   UNL     1       0.885  15.463  18.978  0.00  0.00    +0.000 A 
ATOM     19  C   UNL     1       1.451  15.804  20.217  0.00  0.00    +0.000 A 
ATOM     20  C   UNL     1       1.125  17.001  20.877  0.00  0.00    +0.000 A 
ATOM     21  C   UNL     1       1.631  17.273  22.150  0.00  0.00    +0.000 A 
ATOM     22  C   UNL     1       2.518  16.385  22.752  0.00  0.00    +0.000 A 
ATOM     23  C   UNL     1       2.888  15.215  22.089  0.00  0.00    +0.000 A 
ATOM     24  C   UNL     1       2.330  14.894  20.842  0.00  0.00    +0.000 A 
ATOM     25  C   UNL     1       2.569  13.648  20.248  0.00  0.00    +0.000 A 
ENDBRANCH  15  16
BRANCH  15  26
ATOM     26  O   UNL     1       2.492  11.816  17.329  0.00  0.00    +0.000 OA
ATOM     27  H   UNL     1       3.413  12.118  17.418  0.00  0.00    +0.000 HD
ENDBRANCH  15  26
ENDBRANCH   1  15
BRANCH   3  28
ATOM     28  C   UNL     1       2.423   7.665  18.359  0.00  0.00    +0.000 C 
BRANCH  28  29
ATOM     29  C   UNL     1       2.933   6.676  19.421  0.00  0.00    +0.000 C 
BRANCH  29  30
ATOM     30  C   UNL     1       2.229   5.350  19.363  0.00  0.00    +0.000 A 
ATOM     31  C   UNL     1       1.721   4.774  20.529  0.00  0.00    +0.000 A 
ATOM     32  C   UNL     1       1.033   3.560  20.477  0.00  0.00    +0.000 A 
ATOM     33  C   UNL     1       0.881   2.900  19.253  0.00  0.00    +0.000 A 
ATOM     34  C   UNL     1       1.404   3.463  18.089  0.00  0.00    +0.000 A 
ATOM     35  C   UNL     1       2.082   4.682  18.142  0.00  0.00    +0.000 A 
ENDBRANCH  29  30
ENDBRANCH  28  29
ENDBRANCH   3  28
TORSDOF 8
ENDMDL
MODEL 5
REMARK VINA RESULT:      -7.5      3.638      6.139
REMARK  Name = 
REMARK  8 active torsions:
REMARK  status: ('A' for Active; 'I' for Inactive)
REMARK    1  A    between atoms: O_1  and  C_2
REMARK    2  A    between atoms: C_2  and  C_3
REMARK    3  A    between atoms: C_2  and  C_13
REMARK    4  A    between atoms: N_15  and  C_16
REMARK    5  A    between atoms: C_16  and  C_17
REMARK    6  A    between atoms: C_17  and  C_18
REMARK    7  A    between atoms: C_26  and  O_27
REMARK    8  A    between atoms: C_26  and  C_28
REMARK                            x       y       z     vdW  Elec       q    Type
REMARK                         _______ _______ _______ _____ _____    ______ ____
ROOT
ATOM      1  C   UNL     1       3.499   5.655  17.747  0.00  0.00    +0.000 C 
ATOM      2  C   UNL     1       4.466   5.770  16.537  0.00  0.00    +0.000 C 
ATOM      3  N   UNL     1       5.863   5.745  17.015  0.00  0.00    +0.000 NA
ATOM      4  C   UNL     1       6.196   4.440  17.575  0.00  0.00    +0.000 C 
ATOM      5  C   UNL     1       5.248   4.061  18.719  0.00  0.00    +0.000 C 
ATOM      6  C   UNL     1       3.743   4.251  18.380  0.00  0.00    +0.000 C 
ENDROOT
BRANCH   6   7
ATOM      7  C   UNL     1       2.807   3.836  19.516  0.00  0.00    +0.000 A 
ATOM      8  C   UNL     1       3.288   3.349  20.741  0.00  0.00    +0.000 A 
ATOM      9  C   UNL     1       2.421   2.806  21.698  0.00  0.00    +0.000 A 
ATOM     10  C   UNL     1       1.052   2.756  21.456  0.00  0.00    +0.000 A 
ATOM     11  C   UNL     1       0.548   3.266  20.263  0.00  0.00    +0.000 A 
ATOM     12  C   UNL     1       1.415   3.795  19.305  0.00  0.00    +0.000 A 
ENDBRANCH   6   7
BRANCH   6  13
ATOM     13  O   UNL     1       3.381   3.268  17.370  0.00  0.00    +0.000 OA
ATOM     14  H   UNL     1       2.462   2.989  17.504  0.00  0.00    +0.000 HD
ENDBRANCH   6  13
BRANCH   1  15
ATOM     15  C   UNL     1       3.707   6.920  18.643  0.00  0.00    +0.000 C 
BRANCH  15  16
ATOM     16  C   UNL     1       2.475   7.554  19.240  0.00  0.00    +0.000 A 
ATOM     17  C   UNL     1       1.964   7.166  20.485  0.00  0.00    +0.000 A 
ATOM     18  C   UNL     1       0.940   7.901  21.090  0.00  0.00    +0.000 A 
ATOM     19  C   UNL     1       0.432   9.058  20.479  0.00  0.00    +0.000 A 
ATOM     20  C   UNL     1      -0.459   9.917  21.143  0.00  0.00    +0.000 A 
ATOM     21  C   UNL     1      -0.877  11.110  20.548  0.00  0.00    +0.000 A 
ATOM     22  C   UNL     1      -0.462  11.427  19.257  0.00  0.00    +0.000 A 
ATOM     23  C   UNL     1       0.384  10.561  18.567  0.00  0.00    +0.000 A 
ATOM     24  C   UNL     1       0.871   9.397  19.181  0.00  0.00    +0.000 A 
ATOM     25  C   UNL     1       1.849   8.610  18.557  0.00  0.00    +0.000 A 
ENDBRANCH  15  16
BRANCH  15  26
ATOM     26  O   UNL     1       4.339   7.938  17.847  0.00  0.00    +0.000 OA
ATOM     27  H   UNL     1       3.795   8.738  17.946  0.00  0.00    +0.000 HD
ENDBRANCH  15  26
ENDBRANCH   1  15
BRANCH   3  28
ATOM     28  C   UNL     1       6.835   6.141  15.985  0.00  0.00    +0.000 C 
BRANCH  28  29
ATOM     29  C   UNL     1       7.593   4.934  15.405  0.00  0.00    +0.000 C 
BRANCH  29  30
ATOM     30  C   UNL     1       7.083   4.527  14.051  0.00  0.00    +0.000 A 
ATOM     31  C   UNL     1       7.739   4.956  12.896  0.00  0.00    +0.000 A 
ATOM     32  C   UNL     1       7.293   4.552  11.636  0.00  0.00    +0.000 A 
ATOM     33  C   UNL     1       6.161   3.737  11.530  0.00  0.00    +0.000 A 
ATOM     34  C   UNL     1       5.491   3.321  12.680  0.00  0.00    +0.000 A 
ATOM     35  C   UNL     1       5.945   3.719  13.939  0.00  0.00    +0.000 A 
ENDBRANCH  29  30
ENDBRANCH  28  29
ENDBRANCH   3  28
TORSDOF 8
ENDMDL
MODEL 6
REMARK VINA RESULT:      -7.4      6.729     10.656
REMARK  Name = 
REMARK  8 active torsions:
REMARK  status: ('A' for Active; 'I' for Inactive)
REMARK    1  A    between atoms: O_1  and  C_2
REMARK    2  A    between atoms: C_2  and  C_3
REMARK    3  A    between atoms: C_2  and  C_13
REMARK    4  A    between atoms: N_15  and  C_16
REMARK    5  A    between atoms: C_16  and  C_17
REMARK    6  A    between atoms: C_17  and  C_18
REMARK    7  A    between atoms: C_26  and  O_27
REMARK    8  A    between atoms: C_26  and  C_28
REMARK                            x       y       z     vdW  Elec       q    Type
REMARK                         _______ _______ _______ _____ _____    ______ ____
ROOT
ATOM      1  C   UNL     1       0.523  11.014  18.677  0.00  0.00    +0.000 C 
ATOM      2  C   UNL     1       0.899   9.642  18.052  0.00  0.00    +0.000 C 
ATOM      3  N   UNL     1       1.812   8.918  18.959  0.00  0.00    +0.000 NA
ATOM      4  C   UNL     1       1.127   8.539  20.190  0.00  0.00    +0.000 C 
ATOM      5  C   UNL     1       0.541   9.761  20.908  0.00  0.00    +0.000 C 
ATOM      6  C   UNL     1      -0.275  10.706  19.981  0.00  0.00    +0.000 C 
ENDROOT
BRANCH   6   7
ATOM      7  C   UNL     1      -0.882  11.902  20.715  0.00  0.00    +0.000 A 
ATOM      8  C   UNL     1      -1.868  12.713  20.132  0.00  0.00    +0.000 A 
ATOM      9  C   UNL     1      -2.283  13.904  20.741  0.00  0.00    +0.000 A 
ATOM     10  C   UNL     1      -1.731  14.299  21.956  0.00  0.00    +0.000 A 
ATOM     11  C   UNL     1      -0.778  13.492  22.570  0.00  0.00    +0.000 A 
ATOM     12  C   UNL     1      -0.358  12.312  21.956  0.00  0.00    +0.000 A 
ENDBRANCH   6   7
BRANCH   6  13
ATOM     13  O   UNL     1      -1.484  10.005  19.576  0.00  0.00    +0.000 OA
ATOM     14  H   UNL     1      -1.391   9.059  19.769  0.00  0.00    +0.000 HD
ENDBRANCH   6  13
BRANCH   1  15
ATOM     15  C   UNL     1       1.834  11.860  18.790  0.00  0.00    +0.000 C 
BRANCH  15  16
ATOM     16  C   UNL     1       1.703  13.272  19.305  0.00  0.00    +0.000 A 
ATOM     17  C   UNL     1       2.521  13.773  20.325  0.00  0.00    +0.000 A 
ATOM     18  C   UNL     1       2.501  15.134  20.644  0.00  0.00    +0.000 A 
ATOM     19  C   UNL     1       1.689  16.026  19.925  0.00  0.00    +0.000 A 
ATOM     20  C   UNL     1       1.785  17.417  20.094  0.00  0.00    +0.000 A 
ATOM     21  C   UNL     1       1.032  18.286  19.300  0.00  0.00    +0.000 A 
ATOM     22  C   UNL     1       0.127  17.774  18.374  0.00  0.00    +0.000 A 
ATOM     23  C   UNL     1      -0.014  16.395  18.228  0.00  0.00    +0.000 A 
ATOM     24  C   UNL     1       0.790  15.513  18.966  0.00  0.00    +0.000 A 
ATOM     25  C   UNL     1       0.771  14.136  18.706  0.00  0.00    +0.000 A 
ENDBRANCH  15  16
BRANCH  15  26
ATOM     26  O   UNL     1       2.419  11.961  17.480  0.00  0.00    +0.000 OA
ATOM     27  H   UNL     1       1.935  12.668  17.019  0.00  0.00    +0.000 HD
ENDBRANCH  15  26
ENDBRANCH   1  15
BRANCH   3  28
ATOM     28  C   UNL     1       2.450   7.753  18.330  0.00  0.00    +0.000 C 
BRANCH  28  29
ATOM     29  C   UNL     1       2.973   6.744  19.367  0.00  0.00    +0.000 C 
BRANCH  29  30
ATOM     30  C   UNL     1       2.264   5.420  19.294  0.00  0.00    +0.000 A 
ATOM     31  C   UNL     1       1.766   4.827  20.455  0.00  0.00    +0.000 A 
ATOM     32  C   UNL     1       1.074   3.615  20.390  0.00  0.00    +0.000 A 
ATOM     33  C   UNL     1       0.910   2.976  19.157  0.00  0.00    +0.000 A 
ATOM     34  C   UNL     1       1.423   3.556  17.997  0.00  0.00    +0.000 A 
ATOM     35  C   UNL     1       2.105   4.772  18.064  0.00  0.00    +0.000 A 
ENDBRANCH  29  30
ENDBRANCH  28  29
ENDBRANCH   3  28
TORSDOF 8
ENDMDL
MODEL 7
REMARK VINA RESULT:      -7.4      6.576     10.251
REMARK  Name = 
REMARK  8 active torsions:
REMARK  status: ('A' for Active; 'I' for Inactive)
REMARK    1  A    between atoms: O_1  and  C_2
REMARK    2  A    between atoms: C_2  and  C_3
REMARK    3  A    between atoms: C_2  and  C_13
REMARK    4  A    between atoms: N_15  and  C_16
REMARK    5  A    between atoms: C_16  and  C_17
REMARK    6  A    between atoms: C_17  and  C_18
REMARK    7  A    between atoms: C_26  and  O_27
REMARK    8  A    between atoms: C_26  and  C_28
REMARK                            x       y       z     vdW  Elec       q    Type
REMARK                         _______ _______ _______ _____ _____    ______ ____
ROOT
ATOM      1  C   UNL     1       0.589  10.776  18.666  0.00  0.00    +0.000 C 
ATOM      2  C   UNL     1       0.968   9.374  18.117  0.00  0.00    +0.000 C 
ATOM      3  N   UNL     1       1.930   8.726  19.031  0.00  0.00    +0.000 NA
ATOM      4  C   UNL     1       1.301   8.416  20.310  0.00  0.00    +0.000 C 
ATOM      5  C   UNL     1       0.720   9.672  20.970  0.00  0.00    +0.000 C 
ATOM      6  C   UNL     1      -0.150  10.540  20.019  0.00  0.00    +0.000 C 
ENDROOT
BRANCH   6   7
ATOM      7  C   UNL     1      -0.752  11.771  20.698  0.00  0.00    +0.000 A 
ATOM      8  C   UNL     1      -1.689  12.595  20.056  0.00  0.00    +0.000 A 
ATOM      9  C   UNL     1      -2.093  13.812  20.619  0.00  0.00    +0.000 A 
ATOM     10  C   UNL     1      -1.580  14.222  21.846  0.00  0.00    +0.000 A 
ATOM     11  C   UNL     1      -0.677  13.404  22.518  0.00  0.00    +0.000 A 
ATOM     12  C   UNL     1      -0.266  12.196  21.950  0.00  0.00    +0.000 A 
ENDBRANCH   6   7
BRANCH   6  13
ATOM     13  O   UNL     1      -1.360   9.794  19.709  0.00  0.00    +0.000 OA
ATOM     14  H   UNL     1      -1.861   9.635  20.524  0.00  0.00    +0.000 HD
ENDBRANCH   6  13
BRANCH   1  15
ATOM     15  C   UNL     1       1.887  11.650  18.672  0.00  0.00    +0.000 C 
BRANCH  15  16
ATOM     16  C   UNL     1       1.737  13.108  19.031  0.00  0.00    +0.000 A 
ATOM     17  C   UNL     1       0.923  13.978  18.297  0.00  0.00    +0.000 A 
ATOM     18  C   UNL     1       0.659  15.268  18.768  0.00  0.00    +0.000 A 
ATOM     19  C   UNL     1       1.176  15.700  19.999  0.00  0.00    +0.000 A 
ATOM     20  C   UNL     1       0.779  16.913  20.585  0.00  0.00    +0.000 A 
ATOM     21  C   UNL     1       1.238  17.276  21.854  0.00  0.00    +0.000 A 
ATOM     22  C   UNL     1       2.147  16.462  22.525  0.00  0.00    +0.000 A 
ATOM     23  C   UNL     1       2.587  15.278  21.935  0.00  0.00    +0.000 A 
ATOM     24  C   UNL     1       2.078  14.866  20.694  0.00  0.00    +0.000 A 
ATOM     25  C   UNL     1       2.387  13.602  20.174  0.00  0.00    +0.000 A 
ENDBRANCH  15  16
BRANCH  15  26
ATOM     26  O   UNL     1       2.458  11.617  17.352  0.00  0.00    +0.000 OA
ATOM     27  H   UNL     1       2.105  12.393  16.883  0.00  0.00    +0.000 HD
ENDBRANCH  15  26
ENDBRANCH   1  15
BRANCH   3  28
ATOM     28  C   UNL     1       2.566   7.533  18.452  0.00  0.00    +0.000 C 
BRANCH  28  29
ATOM     29  C   UNL     1       2.711   6.396  19.477  0.00  0.00    +0.000 C 
BRANCH  29  30
ATOM     30  C   UNL     1       2.565   5.035  18.856  0.00  0.00    +0.000 A 
ATOM     31  C   UNL     1       1.697   4.097  19.418  0.00  0.00    +0.000 A 
ATOM     32  C   UNL     1       1.527   2.844  18.826  0.00  0.00    +0.000 A 
ATOM     33  C   UNL     1       2.259   2.515  17.680  0.00  0.00    +0.000 A 
ATOM     34  C   UNL     1       3.141   3.441  17.126  0.00  0.00    +0.000 A 
ATOM     35  C   UNL     1       3.301   4.697  17.714  0.00  0.00    +0.000 A 
ENDBRANCH  29  30
ENDBRANCH  28  29
ENDBRANCH   3  28
TORSDOF 8
ENDMDL
MODEL 8
REMARK VINA RESULT:      -7.4      7.107     10.119
REMARK  Name = 
REMARK  8 active torsions:
REMARK  status: ('A' for Active; 'I' for Inactive)
REMARK    1  A    between atoms: O_1  and  C_2
REMARK    2  A    between atoms: C_2  and  C_3
REMARK    3  A    between atoms: C_2  and  C_13
REMARK    4  A    between atoms: N_15  and  C_16
REMARK    5  A    between atoms: C_16  and  C_17
REMARK    6  A    between atoms: C_17  and  C_18
REMARK    7  A    between atoms: C_26  and  O_27
REMARK    8  A    between atoms: C_26  and  C_28
REMARK                            x       y       z     vdW  Elec       q    Type
REMARK                         _______ _______ _______ _____ _____    ______ ____
ROOT
ATOM      1  C   UNL     1       0.312  11.266  18.682  0.00  0.00    +0.000 C 
ATOM      2  C   UNL     1       0.829  10.031  17.894  0.00  0.00    +0.000 C 
ATOM      3  N   UNL     1       1.881   9.350  18.675  0.00  0.00    +0.000 NA
ATOM      4  C   UNL     1       1.324   8.755  19.885  0.00  0.00    +0.000 C 
ATOM      5  C   UNL     1       0.626   9.804  20.758  0.00  0.00    +0.000 C 
ATOM      6  C   UNL     1      -0.360  10.718  19.978  0.00  0.00    +0.000 C 
ENDROOT
BRANCH   6   7
ATOM      7  C   UNL     1      -1.077  11.737  20.865  0.00  0.00    +0.000 A 
ATOM      8  C   UNL     1      -2.101  12.563  20.377  0.00  0.00    +0.000 A 
ATOM      9  C   UNL     1      -2.620  13.610  21.148  0.00  0.00    +0.000 A 
ATOM     10  C   UNL     1      -2.137  13.842  22.432  0.00  0.00    +0.000 A 
ATOM     11  C   UNL     1      -1.147  13.013  22.951  0.00  0.00    +0.000 A 
ATOM     12  C   UNL     1      -0.622  11.977  22.176  0.00  0.00    +0.000 A 
ENDBRANCH   6   7
BRANCH   6  13
ATOM     13  O   UNL     1      -1.488   9.903  19.552  0.00  0.00    +0.000 OA
ATOM     14  H   UNL     1      -1.163   9.120  19.082  0.00  0.00    +0.000 HD
ENDBRANCH   6  13
BRANCH   1  15
ATOM     15  C   UNL     1       1.504  12.268  18.829  0.00  0.00    +0.000 C 
BRANCH  15  16
ATOM     16  C   UNL     1       1.176  13.670  19.279  0.00  0.00    +0.000 A 
ATOM     17  C   UNL     1       0.326  14.509  18.548  0.00  0.00    +0.000 A 
ATOM     18  C   UNL     1      -0.103  15.725  19.087  0.00  0.00    +0.000 A 
ATOM     19  C   UNL     1       0.279  16.109  20.382  0.00  0.00    +0.000 A 
ATOM     20  C   UNL     1      -0.283  17.227  21.020  0.00  0.00    +0.000 A 
ATOM     21  C   UNL     1       0.047  17.534  22.342  0.00  0.00    +0.000 A 
ATOM     22  C   UNL     1       0.990  16.766  23.021  0.00  0.00    +0.000 A 
ATOM     23  C   UNL     1       1.592  15.681  22.384  0.00  0.00    +0.000 A 
ATOM     24  C   UNL     1       1.215  15.318  21.083  0.00  0.00    +0.000 A 
ATOM     25  C   UNL     1       1.691  14.136  20.500  0.00  0.00    +0.000 A 
ENDBRANCH  15  16
BRANCH  15  26
ATOM     26  O   UNL     1       2.148  12.394  17.550  0.00  0.00    +0.000 OA
ATOM     27  H   UNL     1       2.426  11.497  17.295  0.00  0.00    +0.000 HD
ENDBRANCH  15  26
ENDBRANCH   1  15
BRANCH   3  28
ATOM     28  C   UNL     1       2.629   8.354  17.893  0.00  0.00    +0.000 C 
BRANCH  28  29
ATOM     29  C   UNL     1       2.723   6.998  18.615  0.00  0.00    +0.000 C 
BRANCH  29  30
ATOM     30  C   UNL     1       3.460   5.965  17.810  0.00  0.00    +0.000 A 
ATOM     31  C   UNL     1       4.549   6.336  17.021  0.00  0.00    +0.000 A 
ATOM     32  C   UNL     1       5.262   5.376  16.300  0.00  0.00    +0.000 A 
ATOM     33  C   UNL     1       4.860   4.037  16.344  0.00  0.00    +0.000 A 
ATOM     34  C   UNL     1       3.761   3.663  17.117  0.00  0.00    +0.000 A 
ATOM     35  C   UNL     1       3.057   4.624  17.844  0.00  0.00    +0.000 A 
ENDBRANCH  29  30
ENDBRANCH  28  29
ENDBRANCH   3  28
TORSDOF 8
ENDMDL
MODEL 9
REMARK VINA RESULT:      -7.4      7.511     10.387
REMARK  Name = 
REMARK  8 active torsions:
REMARK  status: ('A' for Active; 'I' for Inactive)
REMARK    1  A    between atoms: O_1  and  C_2
REMARK    2  A    between atoms: C_2  and  C_3
REMARK    3  A    between atoms: C_2  and  C_13
REMARK    4  A    between atoms: N_15  and  C_16
REMARK    5  A    between atoms: C_16  and  C_17
REMARK    6  A    between atoms: C_17  and  C_18
REMARK    7  A    between atoms: C_26  and  O_27
REMARK    8  A    between atoms: C_26  and  C_28
REMARK                            x       y       z     vdW  Elec       q    Type
REMARK                         _______ _______ _______ _____ _____    ______ ____
ROOT
ATOM      1  C   UNL     1      -0.492  11.052  19.256  0.00  0.00    +0.000 C 
ATOM      2  C   UNL     1       0.296   9.715  19.195  0.00  0.00    +0.000 C 
ATOM      3  N   UNL     1       1.274   9.766  18.090  0.00  0.00    +0.000 NA
ATOM      4  C   UNL     1       2.318  10.747  18.366  0.00  0.00    +0.000 C 
ATOM      5  C   UNL     1       1.728  12.143  18.603  0.00  0.00    +0.000 C 
ATOM      6  C   UNL     1       0.543  12.164  19.608  0.00  0.00    +0.000 C 
ENDROOT
BRANCH   6   7
ATOM      7  C   UNL     1      -0.014  13.566  19.863  0.00  0.00    +0.000 A 
ATOM      8  C   UNL     1      -0.780  13.870  20.999  0.00  0.00    +0.000 A 
ATOM      9  C   UNL     1      -1.431  15.103  21.128  0.00  0.00    +0.000 A 
ATOM     10  C   UNL     1      -1.313  16.065  20.130  0.00  0.00    +0.000 A 
ATOM     11  C   UNL     1      -0.529  15.800  19.011  0.00  0.00    +0.000 A 
ATOM     12  C   UNL     1       0.109  14.566  18.879  0.00  0.00    +0.000 A 
ENDBRANCH   6   7
BRANCH   6  13
ATOM     13  O   UNL     1       1.065  11.846  20.929  0.00  0.00    +0.000 OA
ATOM     14  H   UNL     1       2.017  12.029  20.953  0.00  0.00    +0.000 HD
ENDBRANCH   6  13
BRANCH   1  15
ATOM     15  C   UNL     1      -1.302  11.186  17.924  0.00  0.00    +0.000 C 
BRANCH  15  16
ATOM     16  C   UNL     1      -2.761  11.555  18.036  0.00  0.00    +0.000 A 
ATOM     17  C   UNL     1      -3.671  11.321  16.999  0.00  0.00    +0.000 A 
ATOM     18  C   UNL     1      -5.042  11.499  17.207  0.00  0.00    +0.000 A 
ATOM     19  C   UNL     1      -5.531  11.880  18.467  0.00  0.00    +0.000 A 
ATOM     20  C   UNL     1      -6.906  11.886  18.758  0.00  0.00    +0.000 A 
ATOM     21  C   UNL     1      -7.360  12.179  20.046  0.00  0.00    +0.000 A 
ATOM     22  C   UNL     1      -6.453  12.534  21.041  0.00  0.00    +0.000 A 
ATOM     23  C   UNL     1      -5.089  12.579  20.754  0.00  0.00    +0.000 A 
ATOM     24  C   UNL     1      -4.614  12.215  19.486  0.00  0.00    +0.000 A 
ATOM     25  C   UNL     1      -3.239  12.098  19.240  0.00  0.00    +0.000 A 
ENDBRANCH  15  16
BRANCH  15  26
ATOM     26  O   UNL     1      -1.257   9.921  17.240  0.00  0.00    +0.000 OA
ATOM     27  H   UNL     1      -0.377   9.546  17.420  0.00  0.00    +0.000 HD
ENDBRANCH  15  26
ENDBRANCH   1  15
BRANCH   3  28
ATOM     28  C   UNL     1       1.856   8.453  17.771  0.00  0.00    +0.000 C 
BRANCH  28  29
ATOM     29  C   UNL     1       2.509   7.792  18.997  0.00  0.00    +0.000 C 
BRANCH  29  30
ATOM     30  C   UNL     1       2.126   6.347  19.148  0.00  0.00    +0.000 A 
ATOM     31  C   UNL     1       1.760   5.845  20.398  0.00  0.00    +0.000 A 
ATOM     32  C   UNL     1       1.367   4.513  20.539  0.00  0.00    +0.000 A 
ATOM     33  C   UNL     1       1.373   3.667  19.425  0.00  0.00    +0.000 A 
ATOM     34  C   UNL     1       1.756   4.158  18.178  0.00  0.00    +0.000 A 
ATOM     35  C   UNL     1       2.138   5.494  18.038  0.00  0.00    +0.000 A 
ENDBRANCH  29  30
ENDBRANCH  28  29
ENDBRANCH   3  28
TORSDOF 8
ENDMDL
