MODEL 1
REMARK VINA RESULT:      -8.8      0.000      0.000
REMARK  Name = 
REMARK  6 active torsions:
REMARK  status: ('A' for Active; 'I' for Inactive)
REMARK    1  A    between atoms: C_1  and  N_2
REMARK    2  A    between atoms: N_2  and  C_3
REMARK    3  A    between atoms: C_9  and  N_10
REMARK    4  A    between atoms: C_11  and  C_13
REMARK    5  A    between atoms: C_14  and  C_15
REMARK    6  A    between atoms: N_25  and  C_26
REMARK                            x       y       z     vdW  Elec       q    Type
REMARK                         _______ _______ _______ _____ _____    ______ ____
ROOT
ATOM      1  N   UNL     1       2.389   6.575  19.906  0.00  0.00    +0.000 N 
ATOM      2  C   UNL     1       2.405   5.470  19.071  0.00  0.00    +0.000 C 
ATOM      3  O   UNL     1       1.824   5.452  17.988  0.00  0.00    +0.000 OA
ATOM      4  H   UNL     1       2.831   6.453  20.816  0.00  0.00    +0.000 HD
ENDROOT
BRANCH   1  13
ATOM      5  C   UNL     1      -0.766  13.994  20.001  0.00  0.00    +0.000 C 
ATOM      6  N   UNL     1      -0.552  12.930  20.963  0.00  0.00    +0.000 N 
ATOM      7  C   UNL     1      -0.780  13.190  22.370  0.00  0.00    +0.000 C 
ATOM      8  C   UNL     1       0.057  11.787  20.576  0.00  0.00    +0.000 A 
ATOM      9  N   UNL     1       0.498  11.693  19.283  0.00  0.00    +0.000 NA
ATOM     10  C   UNL     1       1.020  10.494  19.227  0.00  0.00    +0.000 A 
ATOM     11  C   UNL     1       1.642   9.782  18.175  0.00  0.00    +0.000 A 
ATOM     12  C   UNL     1       2.054   8.517  18.377  0.00  0.00    +0.000 A 
ATOM     13  C   UNL     1       1.911   7.851  19.670  0.00  0.00    +0.000 A 
ATOM     14  C   UNL     1       1.335   8.549  20.670  0.00  0.00    +0.000 A 
ATOM     15  N   UNL     1       0.890   9.858  20.456  0.00  0.00    +0.000 N 
ATOM     16  N   UNL     1       0.293  10.708  21.325  0.00  0.00    +0.000 NA
ENDBRANCH   1  13
BRANCH   2  17
ATOM     17  C   UNL     1       3.165   4.303  19.520  0.00  0.00    +0.000 A 
ATOM     18  C   UNL     1       4.519   3.935  19.459  0.00  0.00    +0.000 A 
ATOM     19  C   UNL     1       4.551   2.628  19.998  0.00  0.00    +0.000 A 
ATOM     20  N   UNL     1       3.382   2.231  20.479  0.00  0.00    +0.000 NA
ATOM     21  N   UNL     1       2.549   3.238  20.163  0.00  0.00    +0.000 N 
ATOM     22  C   UNL     1       1.142   3.057  20.452  0.00  0.00    +0.000 C 
BRANCH  18  23
ATOM     23  C   UNL     1       5.632   4.674  18.872  0.00  0.00    +0.000 C 
ATOM     24  O   UNL     1       6.518   5.112  19.605  0.00  0.00    +0.000 OA
ATOM     25  N   UNL     1       5.685   4.876  17.499  0.00  0.00    +0.000 N 
ATOM     26  C   UNL     1       4.867   4.229  16.463  0.00  0.00    +0.000 C 
ATOM     27  C   UNL     1       5.736   3.640  15.342  0.00  0.00    +0.000 C 
ATOM     28  O   UNL     1       6.686   4.589  14.839  0.00  0.00    +0.000 OA
ATOM     29  C   UNL     1       7.537   5.059  15.894  0.00  0.00    +0.000 C 
ATOM     30  C   UNL     1       6.706   5.778  16.956  0.00  0.00    +0.000 C 
ENDBRANCH  18  23
ENDBRANCH   2  17
TORSDOF 3
ENDMDL
MODEL 2
REMARK VINA RESULT:      -8.7      1.116      1.535
REMARK  Name = 
REMARK  6 active torsions:
REMARK  status: ('A' for Active; 'I' for Inactive)
REMARK    1  A    between atoms: C_1  and  N_2
REMARK    2  A    between atoms: N_2  and  C_3
REMARK    3  A    between atoms: C_9  and  N_10
REMARK    4  A    between atoms: C_11  and  C_13
REMARK    5  A    between atoms: C_14  and  C_15
REMARK    6  A    between atoms: N_25  and  C_26
REMARK                            x       y       z     vdW  Elec       q    Type
REMARK                         _______ _______ _______ _____ _____    ______ ____
ROOT
ATOM      1  N   UNL     1       2.657   6.315  19.739  0.00  0.00    +0.000 N 
ATOM      2  C   UNL     1       2.245   5.072  19.286  0.00  0.00    +0.000 C 
ATOM      3  O   UNL     1       1.189   4.906  18.680  0.00  0.00    +0.000 OA
ATOM      4  H   UNL     1       3.506   6.325  20.301  0.00  0.00    +0.000 HD
ENDROOT
BRANCH   1  13
ATOM      5  C   UNL     1      -0.816  13.590  19.787  0.00  0.00    +0.000 C 
ATOM      6  N   UNL     1      -0.534  12.554  20.761  0.00  0.00    +0.000 N 
ATOM      7  C   UNL     1      -0.741  12.828  22.168  0.00  0.00    +0.000 C 
ATOM      8  C   UNL     1       0.116  11.432  20.378  0.00  0.00    +0.000 A 
ATOM      9  N   UNL     1       0.531  11.334  19.077  0.00  0.00    +0.000 NA
ATOM     10  C   UNL     1       1.103  10.158  19.028  0.00  0.00    +0.000 A 
ATOM     11  C   UNL     1       1.732   9.456  17.973  0.00  0.00    +0.000 A 
ATOM     12  C   UNL     1       2.203   8.213  18.187  0.00  0.00    +0.000 A 
ATOM     13  C   UNL     1       2.119   7.565  19.493  0.00  0.00    +0.000 A 
ATOM     14  C   UNL     1       1.536   8.254  20.495  0.00  0.00    +0.000 A 
ATOM     15  N   UNL     1       1.029   9.538  20.270  0.00  0.00    +0.000 N 
ATOM     16  N   UNL     1       0.416  10.377  21.139  0.00  0.00    +0.000 NA
ENDBRANCH   1  13
BRANCH   2  17
ATOM     17  C   UNL     1       3.134   3.938  19.542  0.00  0.00    +0.000 A 
ATOM     18  C   UNL     1       4.161   3.317  18.812  0.00  0.00    +0.000 A 
ATOM     19  C   UNL     1       4.538   2.212  19.610  0.00  0.00    +0.000 A 
ATOM     20  N   UNL     1       3.928   2.183  20.786  0.00  0.00    +0.000 NA
ATOM     21  N   UNL     1       3.066   3.213  20.723  0.00  0.00    +0.000 N 
ATOM     22  C   UNL     1       2.146   3.383  21.829  0.00  0.00    +0.000 C 
BRANCH  18  23
ATOM     23  C   UNL     1       4.658   3.653  17.482  0.00  0.00    +0.000 C 
ATOM     24  O   UNL     1       3.984   3.361  16.495  0.00  0.00    +0.000 OA
ATOM     25  N   UNL     1       5.880   4.299  17.339  0.00  0.00    +0.000 N 
ATOM     26  C   UNL     1       6.688   4.934  18.389  0.00  0.00    +0.000 C 
ATOM     27  C   UNL     1       7.087   6.368  18.006  0.00  0.00    +0.000 C 
ATOM     28  O   UNL     1       7.660   6.437  16.694  0.00  0.00    +0.000 OA
ATOM     29  C   UNL     1       6.743   5.928  15.715  0.00  0.00    +0.000 C 
ATOM     30  C   UNL     1       6.443   4.456  15.994  0.00  0.00    +0.000 C 
ENDBRANCH  18  23
ENDBRANCH   2  17
TORSDOF 3
ENDMDL
MODEL 3
REMARK VINA RESULT:      -8.0      0.956      1.610
REMARK  Name = 
REMARK  6 active torsions:
REMARK  status: ('A' for Active; 'I' for Inactive)
REMARK    1  A    between atoms: C_1  and  N_2
REMARK    2  A    between atoms: N_2  and  C_3
REMARK    3  A    between atoms: C_9  and  N_10
REMARK    4  A    between atoms: C_11  and  C_13
REMARK    5  A    between atoms: C_14  and  C_15
REMARK    6  A    between atoms: N_25  and  C_26
REMARK                            x       y       z     vdW  Elec       q    Type
REMARK                         _______ _______ _______ _____ _____    ______ ____
ROOT
ATOM      1  N   UNL     1       1.899   6.342  20.705  0.00  0.00    +0.000 N 
ATOM      2  C   UNL     1       2.317   5.667  19.571  0.00  0.00    +0.000 C 
ATOM      3  O   UNL     1       2.080   6.072  18.435  0.00  0.00    +0.000 OA
ATOM      4  H   UNL     1       2.077   5.876  21.593  0.00  0.00    +0.000 HD
ENDROOT
BRANCH   1  13
ATOM      5  C   UNL     1      -0.555  14.007  20.219  0.00  0.00    +0.000 C 
ATOM      6  N   UNL     1       0.375  13.153  19.506  0.00  0.00    +0.000 N 
ATOM      7  C   UNL     1       0.973  13.630  18.275  0.00  0.00    +0.000 C 
ATOM      8  C   UNL     1       0.511  11.858  19.867  0.00  0.00    +0.000 A 
ATOM      9  N   UNL     1      -0.279  11.380  20.878  0.00  0.00    +0.000 NA
ATOM     10  C   UNL     1       0.092  10.130  20.988  0.00  0.00    +0.000 A 
ATOM     11  C   UNL     1      -0.334   9.090  21.848  0.00  0.00    +0.000 A 
ATOM     12  C   UNL     1       0.262   7.885  21.783  0.00  0.00    +0.000 A 
ATOM     13  C   UNL     1       1.325   7.595  20.823  0.00  0.00    +0.000 A 
ATOM     14  C   UNL     1       1.706   8.590  19.996  0.00  0.00    +0.000 A 
ATOM     15  N   UNL     1       1.100   9.848  20.074  0.00  0.00    +0.000 N 
ATOM     16  N   UNL     1       1.345  10.959  19.339  0.00  0.00    +0.000 NA
ENDBRANCH   1  13
BRANCH   2  17
ATOM     17  C   UNL     1       3.082   4.435  19.769  0.00  0.00    +0.000 A 
ATOM     18  C   UNL     1       4.416   4.063  19.531  0.00  0.00    +0.000 A 
ATOM     19  C   UNL     1       4.460   2.690  19.863  0.00  0.00    +0.000 A 
ATOM     20  N   UNL     1       3.327   2.239  20.383  0.00  0.00    +0.000 NA
ATOM     21  N   UNL     1       2.497   3.293  20.298  0.00  0.00    +0.000 N 
ATOM     22  C   UNL     1       1.116   3.088  20.682  0.00  0.00    +0.000 C 
BRANCH  18  23
ATOM     23  C   UNL     1       5.492   4.868  18.964  0.00  0.00    +0.000 C 
ATOM     24  O   UNL     1       6.374   5.304  19.704  0.00  0.00    +0.000 OA
ATOM     25  N   UNL     1       5.517   5.135  17.601  0.00  0.00    +0.000 N 
ATOM     26  C   UNL     1       4.706   4.507  16.548  0.00  0.00    +0.000 C 
ATOM     27  C   UNL     1       5.578   4.002  15.388  0.00  0.00    +0.000 C 
ATOM     28  O   UNL     1       6.485   5.006  14.917  0.00  0.00    +0.000 OA
ATOM     29  C   UNL     1       7.336   5.458  15.981  0.00  0.00    +0.000 C 
ATOM     30  C   UNL     1       6.497   6.097  17.086  0.00  0.00    +0.000 C 
ENDBRANCH  18  23
ENDBRANCH   2  17
TORSDOF 3
ENDMDL
MODEL 4
REMARK VINA RESULT:      -7.9      1.720      2.409
REMARK  Name = 
REMARK  6 active torsions:
REMARK  status: ('A' for Active; 'I' for Inactive)
REMARK    1  A    between atoms: C_1  and  N_2
REMARK    2  A    between atoms: N_2  and  C_3
REMARK    3  A    between atoms: C_9  and  N_10
REMARK    4  A    between atoms: C_11  and  C_13
REMARK    5  A    between atoms: C_14  and  C_15
REMARK    6  A    between atoms: N_25  and  C_26
REMARK                            x       y       z     vdW  Elec       q    Type
REMARK                         _______ _______ _______ _____ _____    ______ ____
ROOT
ATOM      1  N   UNL     1       2.216   6.653  20.618  0.00  0.00    +0.000 N 
ATOM      2  C   UNL     1       1.813   5.346  20.401  0.00  0.00    +0.000 C 
ATOM      3  O   UNL     1       0.639   4.994  20.481  0.00  0.00    +0.000 OA
ATOM      4  H   UNL     1       3.221   6.818  20.608  0.00  0.00    +0.000 HD
ENDROOT
BRANCH   1  13
ATOM      5  C   UNL     1      -1.609  13.744  20.303  0.00  0.00    +0.000 C 
ATOM      6  N   UNL     1      -0.659  13.024  19.477  0.00  0.00    +0.000 N 
ATOM      7  C   UNL     1      -0.348  13.526  18.155  0.00  0.00    +0.000 C 
ATOM      8  C   UNL     1      -0.242  11.793  19.850  0.00  0.00    +0.000 A 
ATOM      9  N   UNL     1      -0.774  11.244  20.985  0.00  0.00    +0.000 NA
ATOM     10  C   UNL     1      -0.174  10.084  21.072  0.00  0.00    +0.000 A 
ATOM     11  C   UNL     1      -0.274   9.037  22.018  0.00  0.00    +0.000 A 
ATOM     12  C   UNL     1       0.511   7.950  21.895  0.00  0.00    +0.000 A 
ATOM     13  C   UNL     1       1.452   7.793  20.788  0.00  0.00    +0.000 A 
ATOM     14  C   UNL     1       1.522   8.791  19.883  0.00  0.00    +0.000 A 
ATOM     15  N   UNL     1       0.720   9.929  20.019  0.00  0.00    +0.000 N 
ATOM     16  N   UNL     1       0.649  11.023  19.223  0.00  0.00    +0.000 NA
ENDBRANCH   1  13
BRANCH   2  17
ATOM     17  C   UNL     1       2.851   4.376  20.048  0.00  0.00    +0.000 A 
ATOM     18  C   UNL     1       3.919   4.374  19.136  0.00  0.00    +0.000 A 
ATOM     19  C   UNL     1       4.468   3.076  19.242  0.00  0.00    +0.000 A 
ATOM     20  N   UNL     1       3.915   2.350  20.203  0.00  0.00    +0.000 NA
ATOM     21  N   UNL     1       2.926   3.135  20.665  0.00  0.00    +0.000 N 
ATOM     22  C   UNL     1       2.037   2.573  21.662  0.00  0.00    +0.000 C 
BRANCH  18  23
ATOM     23  C   UNL     1       4.313   5.424  18.202  0.00  0.00    +0.000 C 
ATOM     24  O   UNL     1       3.444   6.107  17.662  0.00  0.00    +0.000 OA
ATOM     25  N   UNL     1       5.658   5.645  17.933  0.00  0.00    +0.000 N 
ATOM     26  C   UNL     1       6.819   5.107  18.655  0.00  0.00    +0.000 C 
ATOM     27  C   UNL     1       7.807   6.218  19.046  0.00  0.00    +0.000 C 
ATOM     28  O   UNL     1       8.139   7.061  17.935  0.00  0.00    +0.000 OA
ATOM     29  C   UNL     1       6.956   7.658  17.383  0.00  0.00    +0.000 C 
ATOM     30  C   UNL     1       6.020   6.572  16.855  0.00  0.00    +0.000 C 
ENDBRANCH  18  23
ENDBRANCH   2  17
TORSDOF 3
ENDMDL
MODEL 5
REMARK VINA RESULT:      -7.9      1.299      1.823
REMARK  Name = 
REMARK  6 active torsions:
REMARK  status: ('A' for Active; 'I' for Inactive)
REMARK    1  A    between atoms: C_1  and  N_2
REMARK    2  A    between atoms: N_2  and  C_3
REMARK    3  A    between atoms: C_9  and  N_10
REMARK    4  A    between atoms: C_11  and  C_13
REMARK    5  A    between atoms: C_14  and  C_15
REMARK    6  A    between atoms: N_25  and  C_26
REMARK                            x       y       z     vdW  Elec       q    Type
REMARK                         _______ _______ _______ _____ _____    ______ ____
ROOT
ATOM      1  N   UNL     1       2.361   6.227  19.348  0.00  0.00    +0.000 N 
ATOM      2  C   UNL     1       2.528   5.018  20.003  0.00  0.00    +0.000 C 
ATOM      3  O   UNL     1       2.395   4.901  21.219  0.00  0.00    +0.000 OA
ATOM      4  H   UNL     1       2.577   6.229  18.353  0.00  0.00    +0.000 HD
ENDROOT
BRANCH   1  13
ATOM      5  C   UNL     1      -0.294  13.714  20.725  0.00  0.00    +0.000 C 
ATOM      6  N   UNL     1       0.164  12.955  19.577  0.00  0.00    +0.000 N 
ATOM      7  C   UNL     1       0.016  13.518  18.251  0.00  0.00    +0.000 C 
ATOM      8  C   UNL     1       0.520  11.660  19.727  0.00  0.00    +0.000 A 
ATOM      9  N   UNL     1       0.389  11.090  20.965  0.00  0.00    +0.000 NA
ATOM     10  C   UNL     1       0.813   9.866  20.782  0.00  0.00    +0.000 A 
ATOM     11  C   UNL     1       0.937   8.767  21.665  0.00  0.00    +0.000 A 
ATOM     12  C   UNL     1       1.461   7.610  21.219  0.00  0.00    +0.000 A 
ATOM     13  C   UNL     1       1.881   7.431  19.831  0.00  0.00    +0.000 A 
ATOM     14  C   UNL     1       1.737   8.480  18.996  0.00  0.00    +0.000 A 
ATOM     15  N   UNL     1       1.210   9.689  19.462  0.00  0.00    +0.000 N 
ATOM     16  N   UNL     1       0.993  10.842  18.784  0.00  0.00    +0.000 NA
ENDBRANCH   1  13
BRANCH   2  17
ATOM     17  C   UNL     1       2.863   3.853  19.183  0.00  0.00    +0.000 A 
ATOM     18  C   UNL     1       3.992   3.473  18.438  0.00  0.00    +0.000 A 
ATOM     19  C   UNL     1       3.606   2.268  17.808  0.00  0.00    +0.000 A 
ATOM     20  N   UNL     1       2.414   1.833  18.193  0.00  0.00    +0.000 NA
ATOM     21  N   UNL     1       1.966   2.809  19.002  0.00  0.00    +0.000 N 
ATOM     22  C   UNL     1       0.612   2.692  19.504  0.00  0.00    +0.000 C 
BRANCH  18  23
ATOM     23  C   UNL     1       5.242   4.201  18.255  0.00  0.00    +0.000 C 
ATOM     24  O   UNL     1       6.044   4.267  19.187  0.00  0.00    +0.000 OA
ATOM     25  N   UNL     1       5.520   4.811  17.038  0.00  0.00    +0.000 N 
ATOM     26  C   UNL     1       4.812   4.634  15.763  0.00  0.00    +0.000 C 
ATOM     27  C   UNL     1       5.784   4.311  14.616  0.00  0.00    +0.000 C 
ATOM     28  O   UNL     1       6.880   5.233  14.562  0.00  0.00    +0.000 OA
ATOM     29  C   UNL     1       7.602   5.234  15.803  0.00  0.00    +0.000 C 
ATOM     30  C   UNL     1       6.689   5.692  16.939  0.00  0.00    +0.000 C 
ENDBRANCH  18  23
ENDBRANCH   2  17
TORSDOF 3
ENDMDL
MODEL 6
REMARK VINA RESULT:      -7.9      1.295      1.977
REMARK  Name = 
REMARK  6 active torsions:
REMARK  status: ('A' for Active; 'I' for Inactive)
REMARK    1  A    between atoms: C_1  and  N_2
REMARK    2  A    between atoms: N_2  and  C_3
REMARK    3  A    between atoms: C_9  and  N_10
REMARK    4  A    between atoms: C_11  and  C_13
REMARK    5  A    between atoms: C_14  and  C_15
REMARK    6  A    between atoms: N_25  and  C_26
REMARK                            x       y       z     vdW  Elec       q    Type
REMARK                         _______ _______ _______ _____ _____    ______ ____
ROOT
ATOM      1  N   UNL     1       2.548   5.945  18.825  0.00  0.00    +0.000 N 
ATOM      2  C   UNL     1       2.043   4.887  18.088  0.00  0.00    +0.000 C 
ATOM      3  O   UNL     1       1.010   4.974  17.428  0.00  0.00    +0.000 OA
ATOM      4  H   UNL     1       3.362   5.739  19.401  0.00  0.00    +0.000 HD
ENDROOT
BRANCH   1  13
ATOM      5  C   UNL     1      -0.329  13.317  20.371  0.00  0.00    +0.000 C 
ATOM      6  N   UNL     1      -0.267  12.045  21.065  0.00  0.00    +0.000 N 
ATOM      7  C   UNL     1      -0.649  11.981  22.461  0.00  0.00    +0.000 C 
ATOM      8  C   UNL     1       0.342  10.990  20.481  0.00  0.00    +0.000 A 
ATOM      9  N   UNL     1       0.928  11.174  19.257  0.00  0.00    +0.000 NA
ATOM     10  C   UNL     1       1.409   9.992  18.969  0.00  0.00    +0.000 A 
ATOM     11  C   UNL     1       2.124   9.510  17.848  0.00  0.00    +0.000 A 
ATOM     12  C   UNL     1       2.464   8.209  17.782  0.00  0.00    +0.000 A 
ATOM     13  C   UNL     1       2.147   7.268  18.854  0.00  0.00    +0.000 A 
ATOM     14  C   UNL     1       1.483   7.746  19.927  0.00  0.00    +0.000 A 
ATOM     15  N   UNL     1       1.114   9.094  19.988  0.00  0.00    +0.000 N 
ATOM     16  N   UNL     1       0.450   9.752  20.969  0.00  0.00    +0.000 NA
ENDBRANCH   1  13
BRANCH   2  17
ATOM     17  C   UNL     1       2.803   3.636  18.107  0.00  0.00    +0.000 A 
ATOM     18  C   UNL     1       4.048   3.240  17.590  0.00  0.00    +0.000 A 
ATOM     19  C   UNL     1       4.128   1.861  17.888  0.00  0.00    +0.000 A 
ATOM     20  N   UNL     1       3.119   1.425  18.629  0.00  0.00    +0.000 NA
ATOM     21  N   UNL     1       2.314   2.498  18.733  0.00  0.00    +0.000 N 
ATOM     22  C   UNL     1       1.040   2.315  19.395  0.00  0.00    +0.000 C 
BRANCH  18  23
ATOM     23  C   UNL     1       5.001   4.032  16.820  0.00  0.00    +0.000 C 
ATOM     24  O   UNL     1       4.773   4.262  15.632  0.00  0.00    +0.000 OA
ATOM     25  N   UNL     1       6.151   4.521  17.428  0.00  0.00    +0.000 N 
ATOM     26  C   UNL     1       6.461   4.558  18.864  0.00  0.00    +0.000 C 
ATOM     27  C   UNL     1       6.906   5.960  19.310  0.00  0.00    +0.000 C 
ATOM     28  O   UNL     1       7.936   6.493  18.468  0.00  0.00    +0.000 OA
ATOM     29  C   UNL     1       7.492   6.554  17.104  0.00  0.00    +0.000 C 
ATOM     30  C   UNL     1       7.180   5.149  16.592  0.00  0.00    +0.000 C 
ENDBRANCH  18  23
ENDBRANCH   2  17
TORSDOF 3
ENDMDL
MODEL 7
REMARK VINA RESULT:      -7.7      1.742      4.018
REMARK  Name = 
REMARK  6 active torsions:
REMARK  status: ('A' for Active; 'I' for Inactive)
REMARK    1  A    between atoms: C_1  and  N_2
REMARK    2  A    between atoms: N_2  and  C_3
REMARK    3  A    between atoms: C_9  and  N_10
REMARK    4  A    between atoms: C_11  and  C_13
REMARK    5  A    between atoms: C_14  and  C_15
REMARK    6  A    between atoms: N_25  and  C_26
REMARK                            x       y       z     vdW  Elec       q    Type
REMARK                         _______ _______ _______ _____ _____    ______ ____
ROOT
ATOM      1  N   UNL     1       2.968   6.693  18.069  0.00  0.00    +0.000 N 
ATOM      2  C   UNL     1       4.279   6.654  17.622  0.00  0.00    +0.000 C 
ATOM      3  O   UNL     1       5.039   7.615  17.720  0.00  0.00    +0.000 OA
ATOM      4  H   UNL     1       2.403   5.872  17.863  0.00  0.00    +0.000 HD
ENDROOT
BRANCH   1  13
ATOM      5  C   UNL     1      -0.797  13.139  21.113  0.00  0.00    +0.000 C 
ATOM      6  N   UNL     1      -0.262  12.745  19.824  0.00  0.00    +0.000 N 
ATOM      7  C   UNL     1      -0.540  13.563  18.662  0.00  0.00    +0.000 C 
ATOM      8  C   UNL     1       0.300  11.525  19.675  0.00  0.00    +0.000 A 
ATOM      9  N   UNL     1       0.302  10.675  20.748  0.00  0.00    +0.000 NA
ATOM     10  C   UNL     1       0.909   9.610  20.292  0.00  0.00    +0.000 A 
ATOM     11  C   UNL     1       1.235   8.375  20.899  0.00  0.00    +0.000 A 
ATOM     12  C   UNL     1       1.922   7.450  20.203  0.00  0.00    +0.000 A 
ATOM     13  C   UNL     1       2.320   7.661  18.813  0.00  0.00    +0.000 A 
ATOM     14  C   UNL     1       1.984   8.835  18.240  0.00  0.00    +0.000 A 
ATOM     15  N   UNL     1       1.286   9.805  18.968  0.00  0.00    +0.000 N 
ATOM     16  N   UNL     1       0.867  11.031  18.572  0.00  0.00    +0.000 NA
ENDBRANCH   1  13
BRANCH   2  17
ATOM     17  C   UNL     1       4.747   5.400  17.030  0.00  0.00    +0.000 A 
ATOM     18  C   UNL     1       4.924   4.094  17.517  0.00  0.00    +0.000 A 
ATOM     19  C   UNL     1       5.503   3.393  16.435  0.00  0.00    +0.000 A 
ATOM     20  N   UNL     1       5.577   4.112  15.324  0.00  0.00    +0.000 NA
ATOM     21  N   UNL     1       5.142   5.327  15.701  0.00  0.00    +0.000 N 
ATOM     22  C   UNL     1       5.215   6.395  14.726  0.00  0.00    +0.000 C 
BRANCH  18  23
ATOM     23  C   UNL     1       4.678   3.590  18.864  0.00  0.00    +0.000 C 
ATOM     24  O   UNL     1       5.585   3.626  19.696  0.00  0.00    +0.000 OA
ATOM     25  N   UNL     1       3.431   3.077  19.197  0.00  0.00    +0.000 N 
ATOM     26  C   UNL     1       2.183   3.178  18.427  0.00  0.00    +0.000 C 
ATOM     27  C   UNL     1       1.025   3.696  19.294  0.00  0.00    +0.000 C 
ATOM     28  O   UNL     1       0.904   2.971  20.525  0.00  0.00    +0.000 OA
ATOM     29  C   UNL     1       2.124   3.048  21.278  0.00  0.00    +0.000 C 
ATOM     30  C   UNL     1       3.266   2.406  20.491  0.00  0.00    +0.000 C 
ENDBRANCH  18  23
ENDBRANCH   2  17
TORSDOF 3
ENDMDL
MODEL 8
REMARK VINA RESULT:      -7.7      1.678      2.587
REMARK  Name = 
REMARK  6 active torsions:
REMARK  status: ('A' for Active; 'I' for Inactive)
REMARK    1  A    between atoms: C_1  and  N_2
REMARK    2  A    between atoms: N_2  and  C_3
REMARK    3  A    between atoms: C_9  and  N_10
REMARK    4  A    between atoms: C_11  and  C_13
REMARK    5  A    between atoms: C_14  and  C_15
REMARK    6  A    between atoms: N_25  and  C_26
REMARK                            x       y       z     vdW  Elec       q    Type
REMARK                         _______ _______ _______ _____ _____    ______ ____
ROOT
ATOM      1  N   UNL     1       2.209   7.119  19.086  0.00  0.00    +0.000 N 
ATOM      2  C   UNL     1       2.504   5.825  19.483  0.00  0.00    +0.000 C 
ATOM      3  O   UNL     1       2.512   5.482  20.663  0.00  0.00    +0.000 OA
ATOM      4  H   UNL     1       2.314   7.315  18.092  0.00  0.00    +0.000 HD
ENDROOT
BRANCH   1  13
ATOM      5  C   UNL     1      -0.607  14.048  22.095  0.00  0.00    +0.000 C 
ATOM      6  N   UNL     1      -0.239  13.543  20.786  0.00  0.00    +0.000 N 
ATOM      7  C   UNL     1      -0.550  14.329  19.610  0.00  0.00    +0.000 C 
ATOM      8  C   UNL     1       0.186  12.266  20.655  0.00  0.00    +0.000 A 
ATOM      9  N   UNL     1       0.209  11.472  21.770  0.00  0.00    +0.000 NA
ATOM     10  C   UNL     1       0.664  10.330  21.320  0.00  0.00    +0.000 A 
ATOM     11  C   UNL     1       0.928   9.098  21.964  0.00  0.00    +0.000 A 
ATOM     12  C   UNL     1       1.452   8.077  21.260  0.00  0.00    +0.000 A 
ATOM     13  C   UNL     1       1.732   8.182  19.830  0.00  0.00    +0.000 A 
ATOM     14  C   UNL     1       1.456   9.356  19.225  0.00  0.00    +0.000 A 
ATOM     15  N   UNL     1       0.929  10.424  19.959  0.00  0.00    +0.000 N 
ATOM     16  N   UNL     1       0.592  11.666  19.534  0.00  0.00    +0.000 NA
ENDBRANCH   1  13
BRANCH   2  17
ATOM     17  C   UNL     1       2.798   4.852  18.431  0.00  0.00    +0.000 A 
ATOM     18  C   UNL     1       3.725   4.802  17.376  0.00  0.00    +0.000 A 
ATOM     19  C   UNL     1       3.399   3.616  16.680  0.00  0.00    +0.000 A 
ATOM     20  N   UNL     1       2.458   2.899  17.277  0.00  0.00    +0.000 NA
ATOM     21  N   UNL     1       2.086   3.666  18.317  0.00  0.00    +0.000 N 
ATOM     22  C   UNL     1       0.968   3.211  19.117  0.00  0.00    +0.000 C 
BRANCH  18  23
ATOM     23  C   UNL     1       4.726   5.796  17.003  0.00  0.00    +0.000 C 
ATOM     24  O   UNL     1       4.405   6.729  16.267  0.00  0.00    +0.000 OA
ATOM     25  N   UNL     1       6.026   5.686  17.480  0.00  0.00    +0.000 N 
ATOM     26  C   UNL     1       6.521   4.801  18.544  0.00  0.00    +0.000 C 
ATOM     27  C   UNL     1       7.330   5.577  19.595  0.00  0.00    +0.000 C 
ATOM     28  O   UNL     1       8.336   6.406  18.998  0.00  0.00    +0.000 OA
ATOM     29  C   UNL     1       7.745   7.337  18.079  0.00  0.00    +0.000 C 
ATOM     30  C   UNL     1       7.054   6.584  16.943  0.00  0.00    +0.000 C 
ENDBRANCH  18  23
ENDBRANCH   2  17
TORSDOF 3
ENDMDL
MODEL 9
REMARK VINA RESULT:      -7.6      1.910      4.031
REMARK  Name = 
REMARK  6 active torsions:
REMARK  status: ('A' for Active; 'I' for Inactive)
REMARK    1  A    between atoms: C_1  and  N_2
REMARK    2  A    between atoms: N_2  and  C_3
REMARK    3  A    between atoms: C_9  and  N_10
REMARK    4  A    between atoms: C_11  and  C_13
REMARK    5  A    between atoms: C_14  and  C_15
REMARK    6  A    between atoms: N_25  and  C_26
REMARK                            x       y       z     vdW  Elec       q    Type
REMARK                         _______ _______ _______ _____ _____    ______ ____
ROOT
ATOM      1  N   UNL     1       3.123   6.631  17.560  0.00  0.00    +0.000 N 
ATOM      2  C   UNL     1       4.476   6.511  17.291  0.00  0.00    +0.000 C 
ATOM      3  O   UNL     1       5.269   7.436  17.456  0.00  0.00    +0.000 OA
ATOM      4  H   UNL     1       2.545   5.832  17.308  0.00  0.00    +0.000 HD
ENDROOT
BRANCH   1  13
ATOM      5  C   UNL     1      -0.891  11.702  22.375  0.00  0.00    +0.000 C 
ATOM      6  N   UNL     1      -0.319  10.374  22.489  0.00  0.00    +0.000 N 
ATOM      7  C   UNL     1      -0.248   9.743  23.791  0.00  0.00    +0.000 C 
ATOM      8  C   UNL     1       0.332   9.830  21.436  0.00  0.00    +0.000 A 
ATOM      9  N   UNL     1       0.470  10.581  20.300  0.00  0.00    +0.000 NA
ATOM     10  C   UNL     1       1.121   9.788  19.488  0.00  0.00    +0.000 A 
ATOM     11  C   UNL     1       1.572   9.960  18.158  0.00  0.00    +0.000 A 
ATOM     12  C   UNL     1       2.186   8.942  17.526  0.00  0.00    +0.000 A 
ATOM     13  C   UNL     1       2.437   7.660  18.179  0.00  0.00    +0.000 A 
ATOM     14  C   UNL     1       2.020   7.517  19.454  0.00  0.00    +0.000 A 
ATOM     15  N   UNL     1       1.366   8.567  20.107  0.00  0.00    +0.000 N 
ATOM     16  N   UNL     1       0.877   8.614  21.370  0.00  0.00    +0.000 NA
ENDBRANCH   1  13
BRANCH   2  17
ATOM     17  C   UNL     1       4.949   5.212  16.807  0.00  0.00    +0.000 A 
ATOM     18  C   UNL     1       5.069   3.938  17.385  0.00  0.00    +0.000 A 
ATOM     19  C   UNL     1       5.692   3.157  16.385  0.00  0.00    +0.000 A 
ATOM     20  N   UNL     1       5.845   3.801  15.237  0.00  0.00    +0.000 NA
ATOM     21  N   UNL     1       5.417   5.046  15.511  0.00  0.00    +0.000 N 
ATOM     22  C   UNL     1       5.568   6.047  14.476  0.00  0.00    +0.000 C 
BRANCH  18  23
ATOM     23  C   UNL     1       4.736   3.526  18.745  0.00  0.00    +0.000 C 
ATOM     24  O   UNL     1       5.578   3.648  19.635  0.00  0.00    +0.000 OA
ATOM     25  N   UNL     1       3.479   3.005  19.026  0.00  0.00    +0.000 N 
ATOM     26  C   UNL     1       2.289   3.015  18.163  0.00  0.00    +0.000 C 
ATOM     27  C   UNL     1       1.059   3.563  18.904  0.00  0.00    +0.000 C 
ATOM     28  O   UNL     1       0.865   2.927  20.173  0.00  0.00    +0.000 OA
ATOM     29  C   UNL     1       2.024   3.092  21.004  0.00  0.00    +0.000 C 
ATOM     30  C   UNL     1       3.234   2.426  20.351  0.00  0.00    +0.000 C 
ENDBRANCH  18  23
ENDBRANCH   2  17
TORSDOF 3
ENDMDL
