MODEL 1
REMARK VINA RESULT:      -6.9      0.000      0.000
REMARK  Name = 
REMARK  7 active torsions:
REMARK  status: ('A' for Active; 'I' for Inactive)
REMARK    1  A    between atoms: C_1  and  C_2
REMARK    2  A    between atoms: C_5  and  C_6
REMARK    3  A    between atoms: N_8  and  C_9
REMARK    4  A    between atoms: C_11  and  C_12
REMARK    5  A    between atoms: C_16  and  N_17
REMARK    6  A    between atoms: C_20  and  O_21
REMARK    7  A    between atoms: O_21  and  C_22
REMARK                            x       y       z     vdW  Elec       q    Type
REMARK                         _______ _______ _______ _____ _____    ______ ____
ROOT
ATOM      1  C   UNL     1      -1.631  13.585  20.614  0.00  0.00    +0.000 A 
ATOM      2  C   UNL     1      -2.338  14.756  20.958  0.00  0.00    +0.000 A 
ATOM      3  C   UNL     1      -2.099  15.436  22.151  0.00  0.00    +0.000 A 
ATOM      4  C   UNL     1      -1.145  14.944  23.027  0.00  0.00    +0.000 A 
ATOM      5  C   UNL     1      -0.442  13.779  22.704  0.00  0.00    +0.000 A 
ATOM      6  C   UNL     1      -0.654  13.060  21.503  0.00  0.00    +0.000 A 
ENDROOT
BRANCH   6   7
ATOM      7  N   UNL     1       0.088  11.907  21.251  0.00  0.00    +0.000 N 
ATOM      8  C   UNL     1       1.275  11.957  20.394  0.00  0.00    +0.000 C 
ATOM      9  C   UNL     1       1.019  11.167  19.117  0.00  0.00    +0.000 C 
ATOM     10  C   UNL     1       0.685   9.707  19.444  0.00  0.00    +0.000 C 
ATOM     11  C   UNL     1      -0.547   9.681  20.355  0.00  0.00    +0.000 C 
ATOM     12  C   UNL     1      -0.389  10.561  21.597  0.00  0.00    +0.000 C 
BRANCH  10  13
ATOM     13  O   UNL     1       1.758   9.045  20.131  0.00  0.00    +0.000 OA
BRANCH  13  14
ATOM     14  C   UNL     1       1.937   7.703  19.925  0.00  0.00    +0.000 A 
ATOM     15  C   UNL     1       1.558   6.697  20.817  0.00  0.00    +0.000 A 
ATOM     16  C   UNL     1       1.730   5.353  20.479  0.00  0.00    +0.000 A 
ATOM     17  C   UNL     1       2.305   5.014  19.261  0.00  0.00    +0.000 A 
ATOM     18  F   UNL     1       2.476   3.722  18.954  0.00  0.00    +0.000 F 
ATOM     19  C   UNL     1       2.704   5.994  18.365  0.00  0.00    +0.000 A 
ATOM     20  C   UNL     1       2.507   7.331  18.700  0.00  0.00    +0.000 A 
ATOM     21  F   UNL     1       2.891   8.271  17.823  0.00  0.00    +0.000 F 
ENDBRANCH  13  14
ENDBRANCH  10  13
ENDBRANCH   6   7
BRANCH   1  24
ATOM     22  C   UNL     1      -3.103  12.177  19.181  0.00  0.00    +0.000 C 
ATOM     23  O   UNL     1      -4.002  11.990  20.001  0.00  0.00    +0.000 OA
ATOM     24  N   UNL     1      -1.950  12.906  19.408  0.00  0.00    +0.000 N 
ATOM     25  H   UNL     1      -1.347  13.072  18.611  0.00  0.00    +0.000 HD
BRANCH  22  30
ATOM     26  C   UNL     1      -3.554   9.952  13.985  0.00  0.00    +0.000 C 
ATOM     27  C   UNL     1      -3.471  10.547  15.354  0.00  0.00    +0.000 A 
ATOM     28  C   UNL     1      -4.531  11.246  15.935  0.00  0.00    +0.000 A 
ATOM     29  N   UNL     1      -4.475  11.803  17.177  0.00  0.00    +0.000 NA
ATOM     30  C   UNL     1      -3.286  11.626  17.815  0.00  0.00    +0.000 A 
ATOM     31  C   UNL     1      -2.230  10.923  17.245  0.00  0.00    +0.000 A 
ATOM     32  N   UNL     1      -2.300  10.373  16.010  0.00  0.00    +0.000 NA
ENDBRANCH  22  30
ENDBRANCH   1  24
BRANCH   3  33
ATOM     33  C   UNL     1      -2.839  16.621  22.467  0.00  0.00    +0.000 C 
ATOM     34  N   UNL     1      -3.437  17.581  22.733  0.00  0.00    +0.000 NA
ENDBRANCH   3  33
TORSDOF 6
ENDMDL
MODEL 2
REMARK VINA RESULT:      -6.8      4.238      6.557
REMARK  Name = 
REMARK  7 active torsions:
REMARK  status: ('A' for Active; 'I' for Inactive)
REMARK    1  A    between atoms: C_1  and  C_2
REMARK    2  A    between atoms: C_5  and  C_6
REMARK    3  A    between atoms: N_8  and  C_9
REMARK    4  A    between atoms: C_11  and  C_12
REMARK    5  A    between atoms: C_16  and  N_17
REMARK    6  A    between atoms: C_20  and  O_21
REMARK    7  A    between atoms: O_21  and  C_22
REMARK                            x       y       z     vdW  Elec       q    Type
REMARK                         _______ _______ _______ _____ _____    ______ ____
ROOT
ATOM      1  C   UNL     1      -1.000  12.394  21.845  0.00  0.00    +0.000 A 
ATOM      2  C   UNL     1      -2.033  11.985  22.713  0.00  0.00    +0.000 A 
ATOM      3  C   UNL     1      -2.811  12.903  23.416  0.00  0.00    +0.000 A 
ATOM      4  C   UNL     1      -2.558  14.257  23.263  0.00  0.00    +0.000 A 
ATOM      5  C   UNL     1      -1.530  14.679  22.412  0.00  0.00    +0.000 A 
ATOM      6  C   UNL     1      -0.719  13.778  21.681  0.00  0.00    +0.000 A 
ENDROOT
BRANCH   6   7
ATOM      7  N   UNL     1       0.285  14.275  20.851  0.00  0.00    +0.000 N 
ATOM      8  C   UNL     1       0.029  14.508  19.428  0.00  0.00    +0.000 C 
ATOM      9  C   UNL     1       0.857  13.539  18.593  0.00  0.00    +0.000 C 
ATOM     10  C   UNL     1       2.352  13.722  18.881  0.00  0.00    +0.000 C 
ATOM     11  C   UNL     1       2.592  13.492  20.377  0.00  0.00    +0.000 C 
ATOM     12  C   UNL     1       1.693  14.356  21.264  0.00  0.00    +0.000 C 
BRANCH  10  13
ATOM     13  O   UNL     1       2.810  15.043  18.556  0.00  0.00    +0.000 OA
BRANCH  13  14
ATOM     14  C   UNL     1       4.158  15.283  18.543  0.00  0.00    +0.000 A 
ATOM     15  C   UNL     1       5.104  14.513  17.862  0.00  0.00    +0.000 A 
ATOM     16  C   UNL     1       6.450  14.884  17.865  0.00  0.00    +0.000 A 
ATOM     17  C   UNL     1       6.856  16.011  18.569  0.00  0.00    +0.000 A 
ATOM     18  F   UNL     1       8.151  16.350  18.574  0.00  0.00    +0.000 F 
ATOM     19  C   UNL     1       5.939  16.783  19.265  0.00  0.00    +0.000 A 
ATOM     20  C   UNL     1       4.595  16.419  19.238  0.00  0.00    +0.000 A 
ATOM     21  F   UNL     1       3.716  17.177  19.911  0.00  0.00    +0.000 F 
ENDBRANCH  13  14
ENDBRANCH  10  13
ENDBRANCH   6   7
BRANCH   1  24
ATOM     22  C   UNL     1      -0.543  10.766  20.017  0.00  0.00    +0.000 C 
ATOM     23  O   UNL     1      -1.588  10.929  19.387  0.00  0.00    +0.000 OA
ATOM     24  N   UNL     1      -0.207  11.413  21.192  0.00  0.00    +0.000 N 
ATOM     25  H   UNL     1       0.731  11.268  21.546  0.00  0.00    +0.000 HD
BRANCH  22  30
ATOM     26  C   UNL     1       3.339   7.110  18.090  0.00  0.00    +0.000 C 
ATOM     27  C   UNL     1       2.310   8.085  18.563  0.00  0.00    +0.000 A 
ATOM     28  C   UNL     1       1.742   9.046  17.723  0.00  0.00    +0.000 A 
ATOM     29  N   UNL     1       0.810   9.950  18.135  0.00  0.00    +0.000 NA
ATOM     30  C   UNL     1       0.472   9.844  19.449  0.00  0.00    +0.000 A 
ATOM     31  C   UNL     1       1.028   8.884  20.288  0.00  0.00    +0.000 A 
ATOM     32  N   UNL     1       1.952   7.990  19.866  0.00  0.00    +0.000 NA
ENDBRANCH  22  30
ENDBRANCH   1  24
BRANCH   3  33
ATOM     33  C   UNL     1      -3.851  12.449  24.290  0.00  0.00    +0.000 C 
ATOM     34  N   UNL     1      -4.701  12.082  24.992  0.00  0.00    +0.000 NA
ENDBRANCH   3  33
TORSDOF 6
ENDMDL
MODEL 3
REMARK VINA RESULT:      -6.8      4.681      7.198
REMARK  Name = 
REMARK  7 active torsions:
REMARK  status: ('A' for Active; 'I' for Inactive)
REMARK    1  A    between atoms: C_1  and  C_2
REMARK    2  A    between atoms: C_5  and  C_6
REMARK    3  A    between atoms: N_8  and  C_9
REMARK    4  A    between atoms: C_11  and  C_12
REMARK    5  A    between atoms: C_16  and  N_17
REMARK    6  A    between atoms: C_20  and  O_21
REMARK    7  A    between atoms: O_21  and  C_22
REMARK                            x       y       z     vdW  Elec       q    Type
REMARK                         _______ _______ _______ _____ _____    ______ ____
ROOT
ATOM      1  C   UNL     1       0.219  11.738  21.212  0.00  0.00    +0.000 A 
ATOM      2  C   UNL     1      -0.938  11.486  21.979  0.00  0.00    +0.000 A 
ATOM      3  C   UNL     1      -1.643  12.513  22.605  0.00  0.00    +0.000 A 
ATOM      4  C   UNL     1      -1.191  13.816  22.478  0.00  0.00    +0.000 A 
ATOM      5  C   UNL     1      -0.040  14.081  21.728  0.00  0.00    +0.000 A 
ATOM      6  C   UNL     1       0.704  13.067  21.075  0.00  0.00    +0.000 A 
ENDROOT
BRANCH   6   7
ATOM      7  N   UNL     1       1.839  13.410  20.344  0.00  0.00    +0.000 N 
ATOM      8  C   UNL     1       3.064  13.838  21.025  0.00  0.00    +0.000 C 
ATOM      9  C   UNL     1       3.338  15.304  20.714  0.00  0.00    +0.000 C 
ATOM     10  C   UNL     1       3.493  15.515  19.204  0.00  0.00    +0.000 C 
ATOM     11  C   UNL     1       2.208  15.044  18.512  0.00  0.00    +0.000 C 
ATOM     12  C   UNL     1       1.819  13.613  18.889  0.00  0.00    +0.000 C 
BRANCH  10  13
ATOM     13  O   UNL     1       4.590  14.765  18.660  0.00  0.00    +0.000 OA
BRANCH  13  14
ATOM     14  C   UNL     1       5.789  15.401  18.476  0.00  0.00    +0.000 A 
ATOM     15  C   UNL     1       6.084  16.696  18.908  0.00  0.00    +0.000 A 
ATOM     16  C   UNL     1       7.363  17.228  18.724  0.00  0.00    +0.000 A 
ATOM     17  C   UNL     1       8.339  16.473  18.085  0.00  0.00    +0.000 A 
ATOM     18  F   UNL     1       9.557  16.998  17.903  0.00  0.00    +0.000 F 
ATOM     19  C   UNL     1       8.066  15.192  17.633  0.00  0.00    +0.000 A 
ATOM     20  C   UNL     1       6.795  14.662  17.842  0.00  0.00    +0.000 A 
ATOM     21  F   UNL     1       6.544  13.418  17.406  0.00  0.00    +0.000 F 
ENDBRANCH  13  14
ENDBRANCH  10  13
ENDBRANCH   6   7
BRANCH   1  24
ATOM     22  C   UNL     1       0.624  10.050  19.427  0.00  0.00    +0.000 C 
ATOM     23  O   UNL     1      -0.315  10.359  18.692  0.00  0.00    +0.000 OA
ATOM     24  N   UNL     1       0.925  10.648  20.636  0.00  0.00    +0.000 N 
ATOM     25  H   UNL     1       1.790  10.370  21.085  0.00  0.00    +0.000 HD
BRANCH  22  30
ATOM     26  C   UNL     1       4.099   5.847  17.872  0.00  0.00    +0.000 C 
ATOM     27  C   UNL     1       3.185   6.969  18.248  0.00  0.00    +0.000 A 
ATOM     28  C   UNL     1       2.928   8.047  17.397  0.00  0.00    +0.000 A 
ATOM     29  N   UNL     1       2.106   9.083  17.721  0.00  0.00    +0.000 NA
ATOM     30  C   UNL     1       1.549   8.987  18.960  0.00  0.00    +0.000 A 
ATOM     31  C   UNL     1       1.795   7.913  19.807  0.00  0.00    +0.000 A 
ATOM     32  N   UNL     1       2.612   6.888  19.472  0.00  0.00    +0.000 NA
ENDBRANCH  22  30
ENDBRANCH   1  24
BRANCH   3  33
ATOM     33  C   UNL     1      -2.812  12.217  23.378  0.00  0.00    +0.000 C 
ATOM     34  N   UNL     1      -3.760  11.987  24.010  0.00  0.00    +0.000 NA
ENDBRANCH   3  33
TORSDOF 6
ENDMDL
MODEL 4
REMARK VINA RESULT:      -6.8      4.295      6.739
REMARK  Name = 
REMARK  7 active torsions:
REMARK  status: ('A' for Active; 'I' for Inactive)
REMARK    1  A    between atoms: C_1  and  C_2
REMARK    2  A    between atoms: C_5  and  C_6
REMARK    3  A    between atoms: N_8  and  C_9
REMARK    4  A    between atoms: C_11  and  C_12
REMARK    5  A    between atoms: C_16  and  N_17
REMARK    6  A    between atoms: C_20  and  O_21
REMARK    7  A    between atoms: O_21  and  C_22
REMARK                            x       y       z     vdW  Elec       q    Type
REMARK                         _______ _______ _______ _____ _____    ______ ____
ROOT
ATOM      1  C   UNL     1      -1.275  12.437  21.755  0.00  0.00    +0.000 A 
ATOM      2  C   UNL     1      -2.314  12.027  22.616  0.00  0.00    +0.000 A 
ATOM      3  C   UNL     1      -3.068  12.943  23.347  0.00  0.00    +0.000 A 
ATOM      4  C   UNL     1      -2.785  14.294  23.231  0.00  0.00    +0.000 A 
ATOM      5  C   UNL     1      -1.751  14.716  22.388  0.00  0.00    +0.000 A 
ATOM      6  C   UNL     1      -0.963  13.818  21.628  0.00  0.00    +0.000 A 
ENDROOT
BRANCH   6   7
ATOM      7  N   UNL     1       0.048  14.316  20.808  0.00  0.00    +0.000 N 
ATOM      8  C   UNL     1      -0.182  14.510  19.374  0.00  0.00    +0.000 C 
ATOM      9  C   UNL     1       0.683  13.539  18.580  0.00  0.00    +0.000 C 
ATOM     10  C   UNL     1       2.167  13.758  18.894  0.00  0.00    +0.000 C 
ATOM     11  C   UNL     1       2.379  13.569  20.400  0.00  0.00    +0.000 C 
ATOM     12  C   UNL     1       1.445  14.435  21.248  0.00  0.00    +0.000 C 
BRANCH  10  13
ATOM     13  O   UNL     1       2.606  15.080  18.547  0.00  0.00    +0.000 OA
BRANCH  13  14
ATOM     14  C   UNL     1       3.949  15.350  18.567  0.00  0.00    +0.000 A 
ATOM     15  C   UNL     1       4.929  14.590  17.924  0.00  0.00    +0.000 A 
ATOM     16  C   UNL     1       6.266  14.990  17.957  0.00  0.00    +0.000 A 
ATOM     17  C   UNL     1       6.628  16.137  18.652  0.00  0.00    +0.000 A 
ATOM     18  F   UNL     1       7.915  16.504  18.686  0.00  0.00    +0.000 F 
ATOM     19  C   UNL     1       5.676  16.900  19.310  0.00  0.00    +0.000 A 
ATOM     20  C   UNL     1       4.342  16.506  19.254  0.00  0.00    +0.000 A 
ATOM     21  F   UNL     1       3.429  17.256  19.889  0.00  0.00    +0.000 F 
ENDBRANCH  13  14
ENDBRANCH  10  13
ENDBRANCH   6   7
BRANCH   1  24
ATOM     22  C   UNL     1       0.265  10.482  21.674  0.00  0.00    +0.000 C 
ATOM     23  O   UNL     1       0.418  10.342  22.888  0.00  0.00    +0.000 OA
ATOM     24  N   UNL     1      -0.507  11.457  21.071  0.00  0.00    +0.000 N 
ATOM     25  H   UNL     1      -0.634  11.389  20.068  0.00  0.00    +0.000 HD
BRANCH  22  30
ATOM     26  C   UNL     1       2.728   6.893  18.040  0.00  0.00    +0.000 C 
ATOM     27  C   UNL     1       2.089   7.817  19.026  0.00  0.00    +0.000 A 
ATOM     28  C   UNL     1       1.928   7.484  20.373  0.00  0.00    +0.000 A 
ATOM     29  N   UNL     1       1.340   8.306  21.287  0.00  0.00    +0.000 NA
ATOM     30  C   UNL     1       0.913   9.493  20.776  0.00  0.00    +0.000 A 
ATOM     31  C   UNL     1       1.078   9.833  19.438  0.00  0.00    +0.000 A 
ATOM     32  N   UNL     1       1.665   9.008  18.540  0.00  0.00    +0.000 NA
ENDBRANCH  22  30
ENDBRANCH   1  24
BRANCH   3  33
ATOM     33  C   UNL     1      -4.114  12.488  24.214  0.00  0.00    +0.000 C 
ATOM     34  N   UNL     1      -4.963  12.110  24.911  0.00  0.00    +0.000 NA
ENDBRANCH   3  33
TORSDOF 6
ENDMDL
MODEL 5
REMARK VINA RESULT:      -6.6      4.235      6.706
REMARK  Name = 
REMARK  7 active torsions:
REMARK  status: ('A' for Active; 'I' for Inactive)
REMARK    1  A    between atoms: C_1  and  C_2
REMARK    2  A    between atoms: C_5  and  C_6
REMARK    3  A    between atoms: N_8  and  C_9
REMARK    4  A    between atoms: C_11  and  C_12
REMARK    5  A    between atoms: C_16  and  N_17
REMARK    6  A    between atoms: C_20  and  O_21
REMARK    7  A    between atoms: O_21  and  C_22
REMARK                            x       y       z     vdW  Elec       q    Type
REMARK                         _______ _______ _______ _____ _____    ______ ____
ROOT
ATOM      1  C   UNL     1      -0.858  12.192  21.576  0.00  0.00    +0.000 A 
ATOM      2  C   UNL     1      -1.886  11.851  22.479  0.00  0.00    +0.000 A 
ATOM      3  C   UNL     1      -2.663  12.820  23.110  0.00  0.00    +0.000 A 
ATOM      4  C   UNL     1      -2.414  14.158  22.849  0.00  0.00    +0.000 A 
ATOM      5  C   UNL     1      -1.392  14.513  21.962  0.00  0.00    +0.000 A 
ATOM      6  C   UNL     1      -0.581  13.559  21.301  0.00  0.00    +0.000 A 
ENDROOT
BRANCH   6   7
ATOM      7  N   UNL     1       0.417  13.991  20.429  0.00  0.00    +0.000 N 
ATOM      8  C   UNL     1       1.811  14.072  20.872  0.00  0.00    +0.000 C 
ATOM      9  C   UNL     1       2.255  15.529  20.908  0.00  0.00    +0.000 C 
ATOM     10  C   UNL     1       2.122  16.166  19.520  0.00  0.00    +0.000 C 
ATOM     11  C   UNL     1       0.661  16.054  19.070  0.00  0.00    +0.000 C 
ATOM     12  C   UNL     1       0.126  14.622  19.134  0.00  0.00    +0.000 C 
BRANCH  10  13
ATOM     13  O   UNL     1       2.939  15.509  18.539  0.00  0.00    +0.000 OA
BRANCH  13  14
ATOM     14  C   UNL     1       4.285  15.765  18.533  0.00  0.00    +0.000 A 
ATOM     15  C   UNL     1       4.876  16.963  18.939  0.00  0.00    +0.000 A 
ATOM     16  C   UNL     1       6.266  17.096  18.951  0.00  0.00    +0.000 A 
ATOM     17  C   UNL     1       7.065  16.040  18.533  0.00  0.00    +0.000 A 
ATOM     18  F   UNL     1       8.396  16.183  18.538  0.00  0.00    +0.000 F 
ATOM     19  C   UNL     1       6.502  14.845  18.111  0.00  0.00    +0.000 A 
ATOM     20  C   UNL     1       5.116  14.714  18.124  0.00  0.00    +0.000 A 
ATOM     21  F   UNL     1       4.583  13.551  17.719  0.00  0.00    +0.000 F 
ENDBRANCH  13  14
ENDBRANCH  10  13
ENDBRANCH   6   7
BRANCH   1  24
ATOM     22  C   UNL     1      -0.274  10.596  19.756  0.00  0.00    +0.000 C 
ATOM     23  O   UNL     1      -1.192  10.881  18.987  0.00  0.00    +0.000 OA
ATOM     24  N   UNL     1      -0.065  11.164  20.999  0.00  0.00    +0.000 N 
ATOM     25  H   UNL     1       0.792  10.916  21.481  0.00  0.00    +0.000 HD
BRANCH  22  30
ATOM     26  C   UNL     1       3.578   6.937  17.773  0.00  0.00    +0.000 C 
ATOM     27  C   UNL     1       2.567   7.887  18.330  0.00  0.00    +0.000 A 
ATOM     28  C   UNL     1       2.093   7.798  19.641  0.00  0.00    +0.000 A 
ATOM     29  N   UNL     1       1.167   8.647  20.166  0.00  0.00    +0.000 NA
ATOM     30  C   UNL     1       0.730   9.602  19.300  0.00  0.00    +0.000 A 
ATOM     31  C   UNL     1       1.204   9.701  17.997  0.00  0.00    +0.000 A 
ATOM     32  N   UNL     1       2.127   8.852  17.487  0.00  0.00    +0.000 NA
ENDBRANCH  22  30
ENDBRANCH   1  24
BRANCH   3  33
ATOM     33  C   UNL     1      -3.696  12.434  24.023  0.00  0.00    +0.000 C 
ATOM     34  N   UNL     1      -4.534  12.130  24.770  0.00  0.00    +0.000 NA
ENDBRANCH   3  33
TORSDOF 6
ENDMDL
MODEL 6
REMARK VINA RESULT:      -6.6      0.883      1.222
REMARK  Name = 
REMARK  7 active torsions:
REMARK  status: ('A' for Active; 'I' for Inactive)
REMARK    1  A    between atoms: C_1  and  C_2
REMARK    2  A    between atoms: C_5  and  C_6
REMARK    3  A    between atoms: N_8  and  C_9
REMARK    4  A    between atoms: C_11  and  C_12
REMARK    5  A    between atoms: C_16  and  N_17
REMARK    6  A    between atoms: C_20  and  O_21
REMARK    7  A    between atoms: O_21  and  C_22
REMARK                            x       y       z     vdW  Elec       q    Type
REMARK                         _______ _______ _______ _____ _____    ______ ____
ROOT
ATOM      1  C   UNL     1      -1.858  13.275  20.593  0.00  0.00    +0.000 A 
ATOM      2  C   UNL     1      -2.642  14.369  21.015  0.00  0.00    +0.000 A 
ATOM      3  C   UNL     1      -2.440  14.987  22.247  0.00  0.00    +0.000 A 
ATOM      4  C   UNL     1      -1.447  14.509  23.086  0.00  0.00    +0.000 A 
ATOM      5  C   UNL     1      -0.666  13.418  22.686  0.00  0.00    +0.000 A 
ATOM      6  C   UNL     1      -0.839  12.764  21.442  0.00  0.00    +0.000 A 
ENDROOT
BRANCH   6   7
ATOM      7  N   UNL     1      -0.020  11.685  21.114  0.00  0.00    +0.000 N 
ATOM      8  C   UNL     1       1.190  11.883  20.312  0.00  0.00    +0.000 C 
ATOM      9  C   UNL     1       1.025  11.205  18.958  0.00  0.00    +0.000 C 
ATOM     10  C   UNL     1       0.770   9.704  19.135  0.00  0.00    +0.000 C 
ATOM     11  C   UNL     1      -0.489   9.522  19.991  0.00  0.00    +0.000 C 
ATOM     12  C   UNL     1      -0.426  10.287  21.314  0.00  0.00    +0.000 C 
BRANCH  10  13
ATOM     13  O   UNL     1       1.857   9.042  19.799  0.00  0.00    +0.000 OA
BRANCH  13  14
ATOM     14  C   UNL     1       2.250   7.812  19.344  0.00  0.00    +0.000 A 
ATOM     15  C   UNL     1       2.909   7.577  18.135  0.00  0.00    +0.000 A 
ATOM     16  C   UNL     1       3.321   6.287  17.795  0.00  0.00    +0.000 A 
ATOM     17  C   UNL     1       3.053   5.227  18.652  0.00  0.00    +0.000 A 
ATOM     18  F   UNL     1       3.442   3.993  18.309  0.00  0.00    +0.000 F 
ATOM     19  C   UNL     1       2.386   5.432  19.850  0.00  0.00    +0.000 A 
ATOM     20  C   UNL     1       1.999   6.725  20.191  0.00  0.00    +0.000 A 
ATOM     21  F   UNL     1       1.361   6.912  21.357  0.00  0.00    +0.000 F 
ENDBRANCH  13  14
ENDBRANCH  10  13
ENDBRANCH   6   7
BRANCH   1  24
ATOM     22  C   UNL     1      -3.330  12.035  19.013  0.00  0.00    +0.000 C 
ATOM     23  O   UNL     1      -4.304  11.911  19.757  0.00  0.00    +0.000 OA
ATOM     24  N   UNL     1      -2.140  12.653  19.348  0.00  0.00    +0.000 N 
ATOM     25  H   UNL     1      -1.463  12.782  18.604  0.00  0.00    +0.000 HD
BRANCH  22  30
ATOM     26  C   UNL     1      -3.560   9.981  13.733  0.00  0.00    +0.000 C 
ATOM     27  C   UNL     1      -3.535  10.532  15.122  0.00  0.00    +0.000 A 
ATOM     28  C   UNL     1      -4.594  11.268  15.658  0.00  0.00    +0.000 A 
ATOM     29  N   UNL     1      -4.590  11.787  16.917  0.00  0.00    +0.000 NA
ATOM     30  C   UNL     1      -3.453  11.532  17.622  0.00  0.00    +0.000 A 
ATOM     31  C   UNL     1      -2.399  10.793  17.096  0.00  0.00    +0.000 A 
ATOM     32  N   UNL     1      -2.417  10.281  15.844  0.00  0.00    +0.000 NA
ENDBRANCH  22  30
ENDBRANCH   1  24
BRANCH   3  33
ATOM     33  C   UNL     1      -3.258  16.094  22.642  0.00  0.00    +0.000 C 
ATOM     34  N   UNL     1      -3.922  16.997  22.952  0.00  0.00    +0.000 NA
ENDBRANCH   3  33
TORSDOF 6
ENDMDL
MODEL 7
REMARK VINA RESULT:      -6.6      3.782      6.443
REMARK  Name = 
REMARK  7 active torsions:
REMARK  status: ('A' for Active; 'I' for Inactive)
REMARK    1  A    between atoms: C_1  and  C_2
REMARK    2  A    between atoms: C_5  and  C_6
REMARK    3  A    between atoms: N_8  and  C_9
REMARK    4  A    between atoms: C_11  and  C_12
REMARK    5  A    between atoms: C_16  and  N_17
REMARK    6  A    between atoms: C_20  and  O_21
REMARK    7  A    between atoms: O_21  and  C_22
REMARK                            x       y       z     vdW  Elec       q    Type
REMARK                         _______ _______ _______ _____ _____    ______ ____
ROOT
ATOM      1  C   UNL     1       1.925  14.597  19.759  0.00  0.00    +0.000 A 
ATOM      2  C   UNL     1       1.480  15.909  19.501  0.00  0.00    +0.000 A 
ATOM      3  C   UNL     1       0.219  16.165  18.963  0.00  0.00    +0.000 A 
ATOM      4  C   UNL     1      -0.616  15.100  18.667  0.00  0.00    +0.000 A 
ATOM      5  C   UNL     1      -0.185  13.792  18.910  0.00  0.00    +0.000 A 
ATOM      6  C   UNL     1       1.087  13.490  19.456  0.00  0.00    +0.000 A 
ENDROOT
BRANCH   6   7
ATOM      7  N   UNL     1       1.444  12.160  19.671  0.00  0.00    +0.000 N 
ATOM      8  C   UNL     1       1.901  11.321  18.561  0.00  0.00    +0.000 C 
ATOM      9  C   UNL     1       0.881  10.221  18.296  0.00  0.00    +0.000 C 
ATOM     10  C   UNL     1       0.686   9.354  19.545  0.00  0.00    +0.000 C 
ATOM     11  C   UNL     1       0.226  10.255  20.696  0.00  0.00    +0.000 C 
ATOM     12  C   UNL     1       1.154  11.450  20.925  0.00  0.00    +0.000 C 
BRANCH  10  13
ATOM     13  O   UNL     1       1.900   8.703  19.949  0.00  0.00    +0.000 OA
BRANCH  13  14
ATOM     14  C   UNL     1       2.000   7.347  19.786  0.00  0.00    +0.000 A 
ATOM     15  C   UNL     1       1.556   6.393  20.705  0.00  0.00    +0.000 A 
ATOM     16  C   UNL     1       1.651   5.032  20.411  0.00  0.00    +0.000 A 
ATOM     17  C   UNL     1       2.212   4.621  19.208  0.00  0.00    +0.000 A 
ATOM     18  F   UNL     1       2.308   3.313  18.942  0.00  0.00    +0.000 F 
ATOM     19  C   UNL     1       2.674   5.547  18.286  0.00  0.00    +0.000 A 
ATOM     20  C   UNL     1       2.555   6.904  18.578  0.00  0.00    +0.000 A 
ATOM     21  F   UNL     1       2.999   7.791  17.675  0.00  0.00    +0.000 F 
ENDBRANCH  13  14
ENDBRANCH  10  13
ENDBRANCH   6   7
BRANCH   1  24
ATOM     22  C   UNL     1       3.609  14.486  21.591  0.00  0.00    +0.000 C 
ATOM     23  O   UNL     1       2.860  14.787  22.522  0.00  0.00    +0.000 OA
ATOM     24  N   UNL     1       3.238  14.392  20.263  0.00  0.00    +0.000 N 
ATOM     25  H   UNL     1       3.928  14.026  19.617  0.00  0.00    +0.000 HD
BRANCH  22  30
ATOM     26  C   UNL     1       9.060  13.356  22.669  0.00  0.00    +0.000 C 
ATOM     27  C   UNL     1       7.613  13.633  22.414  0.00  0.00    +0.000 A 
ATOM     28  C   UNL     1       6.589  12.977  23.101  0.00  0.00    +0.000 A 
ATOM     29  N   UNL     1       5.266  13.206  22.879  0.00  0.00    +0.000 NA
ATOM     30  C   UNL     1       5.014  14.138  21.919  0.00  0.00    +0.000 A 
ATOM     31  C   UNL     1       6.029  14.800  21.237  0.00  0.00    +0.000 A 
ATOM     32  N   UNL     1       7.341  14.564  21.469  0.00  0.00    +0.000 NA
ENDBRANCH  22  30
ENDBRANCH   1  24
BRANCH   3  33
ATOM     33  C   UNL     1      -0.197  17.512  18.712  0.00  0.00    +0.000 C 
ATOM     34  N   UNL     1      -0.526  18.609  18.511  0.00  0.00    +0.000 NA
ENDBRANCH   3  33
TORSDOF 6
ENDMDL
MODEL 8
REMARK VINA RESULT:      -6.5      0.956      1.204
REMARK  Name = 
REMARK  7 active torsions:
REMARK  status: ('A' for Active; 'I' for Inactive)
REMARK    1  A    between atoms: C_1  and  C_2
REMARK    2  A    between atoms: C_5  and  C_6
REMARK    3  A    between atoms: N_8  and  C_9
REMARK    4  A    between atoms: C_11  and  C_12
REMARK    5  A    between atoms: C_16  and  N_17
REMARK    6  A    between atoms: C_20  and  O_21
REMARK    7  A    between atoms: O_21  and  C_22
REMARK                            x       y       z     vdW  Elec       q    Type
REMARK                         _______ _______ _______ _____ _____    ______ ____
ROOT
ATOM      1  C   UNL     1      -0.850  13.897  19.918  0.00  0.00    +0.000 A 
ATOM      2  C   UNL     1      -1.368  15.198  20.088  0.00  0.00    +0.000 A 
ATOM      3  C   UNL     1      -0.963  16.019  21.139  0.00  0.00    +0.000 A 
ATOM      4  C   UNL     1      -0.031  15.541  22.047  0.00  0.00    +0.000 A 
ATOM      5  C   UNL     1       0.485  14.250  21.896  0.00  0.00    +0.000 A 
ATOM      6  C   UNL     1       0.101  13.386  20.842  0.00  0.00    +0.000 A 
ENDROOT
BRANCH   6   7
ATOM      7  N   UNL     1       0.662  12.113  20.758  0.00  0.00    +0.000 N 
ATOM      8  C   UNL     1       1.685  11.813  19.753  0.00  0.00    +0.000 C 
ATOM      9  C   UNL     1       1.133  10.819  18.740  0.00  0.00    +0.000 C 
ATOM     10  C   UNL     1       0.706   9.522  19.436  0.00  0.00    +0.000 C 
ATOM     11  C   UNL     1      -0.350   9.862  20.494  0.00  0.00    +0.000 C 
ATOM     12  C   UNL     1       0.110  10.950  21.467  0.00  0.00    +0.000 C 
BRANCH  10  13
ATOM     13  O   UNL     1       1.803   8.873  20.097  0.00  0.00    +0.000 OA
BRANCH  13  14
ATOM     14  C   UNL     1       1.991   7.532  19.888  0.00  0.00    +0.000 A 
ATOM     15  C   UNL     1       1.583   6.520  20.761  0.00  0.00    +0.000 A 
ATOM     16  C   UNL     1       1.769   5.178  20.421  0.00  0.00    +0.000 A 
ATOM     17  C   UNL     1       2.385   4.848  19.220  0.00  0.00    +0.000 A 
ATOM     18  F   UNL     1       2.568   3.558  18.911  0.00  0.00    +0.000 F 
ATOM     19  C   UNL     1       2.811   5.834  18.345  0.00  0.00    +0.000 A 
ATOM     20  C   UNL     1       2.602   7.169  18.681  0.00  0.00    +0.000 A 
ATOM     21  F   UNL     1       3.013   8.115  17.823  0.00  0.00    +0.000 F 
ENDBRANCH  13  14
ENDBRANCH  10  13
ENDBRANCH   6   7
BRANCH   1  24
ATOM     22  C   UNL     1      -2.436  12.253  18.925  0.00  0.00    +0.000 C 
ATOM     23  O   UNL     1      -3.135  12.075  19.924  0.00  0.00    +0.000 OA
ATOM     24  N   UNL     1      -1.335  13.086  18.857  0.00  0.00    +0.000 N 
ATOM     25  H   UNL     1      -0.918  13.224  17.944  0.00  0.00    +0.000 HD
BRANCH  22  30
ATOM     26  C   UNL     1      -4.187   9.759  14.144  0.00  0.00    +0.000 C 
ATOM     27  C   UNL     1      -3.691  10.404  15.397  0.00  0.00    +0.000 A 
ATOM     28  C   UNL     1      -2.399  10.201  15.887  0.00  0.00    +0.000 A 
ATOM     29  N   UNL     1      -1.928  10.772  17.031  0.00  0.00    +0.000 NA
ATOM     30  C   UNL     1      -2.831  11.564  17.671  0.00  0.00    +0.000 A 
ATOM     31  C   UNL     1      -4.116  11.777  17.184  0.00  0.00    +0.000 A 
ATOM     32  N   UNL     1      -4.570  11.205  16.045  0.00  0.00    +0.000 NA
ENDBRANCH  22  30
ENDBRANCH   1  24
BRANCH   3  33
ATOM     33  C   UNL     1      -1.514  17.333  21.281  0.00  0.00    +0.000 C 
ATOM     34  N   UNL     1      -1.970  18.396  21.400  0.00  0.00    +0.000 NA
ENDBRANCH   3  33
TORSDOF 6
ENDMDL
MODEL 9
REMARK VINA RESULT:      -6.5      3.072      4.771
REMARK  Name = 
REMARK  7 active torsions:
REMARK  status: ('A' for Active; 'I' for Inactive)
REMARK    1  A    between atoms: C_1  and  C_2
REMARK    2  A    between atoms: C_5  and  C_6
REMARK    3  A    between atoms: N_8  and  C_9
REMARK    4  A    between atoms: C_11  and  C_12
REMARK    5  A    between atoms: C_16  and  N_17
REMARK    6  A    between atoms: C_20  and  O_21
REMARK    7  A    between atoms: O_21  and  C_22
REMARK                            x       y       z     vdW  Elec       q    Type
REMARK                         _______ _______ _______ _____ _____    ______ ____
ROOT
ATOM      1  C   UNL     1      -0.787  13.660  22.572  0.00  0.00    +0.000 A 
ATOM      2  C   UNL     1      -1.698  14.608  23.083  0.00  0.00    +0.000 A 
ATOM      3  C   UNL     1      -2.914  14.228  23.650  0.00  0.00    +0.000 A 
ATOM      4  C   UNL     1      -3.240  12.883  23.706  0.00  0.00    +0.000 A 
ATOM      5  C   UNL     1      -2.351  11.931  23.195  0.00  0.00    +0.000 A 
ATOM      6  C   UNL     1      -1.106  12.276  22.613  0.00  0.00    +0.000 A 
ENDROOT
BRANCH   6   7
ATOM      7  N   UNL     1      -0.273  11.270  22.128  0.00  0.00    +0.000 N 
ATOM      8  C   UNL     1       0.108  11.233  20.713  0.00  0.00    +0.000 C 
ATOM      9  C   UNL     1      -0.508  10.009  20.048  0.00  0.00    +0.000 C 
ATOM     10  C   UNL     1      -0.033   8.725  20.738  0.00  0.00    +0.000 C 
ATOM     11  C   UNL     1      -0.426   8.794  22.218  0.00  0.00    +0.000 C 
ATOM     12  C   UNL     1       0.064  10.070  22.906  0.00  0.00    +0.000 C 
BRANCH  10  13
ATOM     13  O   UNL     1       1.391   8.563  20.664  0.00  0.00    +0.000 OA
BRANCH  13  14
ATOM     14  C   UNL     1       1.892   7.455  20.032  0.00  0.00    +0.000 A 
ATOM     15  C   UNL     1       1.855   6.156  20.543  0.00  0.00    +0.000 A 
ATOM     16  C   UNL     1       2.339   5.086  19.787  0.00  0.00    +0.000 A 
ATOM     17  C   UNL     1       2.882   5.318  18.530  0.00  0.00    +0.000 A 
ATOM     18  F   UNL     1       3.354   4.286  17.820  0.00  0.00    +0.000 F 
ATOM     19  C   UNL     1       2.944   6.601  18.007  0.00  0.00    +0.000 A 
ATOM     20  C   UNL     1       2.439   7.658  18.759  0.00  0.00    +0.000 A 
ATOM     21  F   UNL     1       2.498   8.894  18.240  0.00  0.00    +0.000 F 
ENDBRANCH  13  14
ENDBRANCH  10  13
ENDBRANCH   6   7
BRANCH   1  24
ATOM     22  C   UNL     1       0.518  14.638  20.690  0.00  0.00    +0.000 C 
ATOM     23  O   UNL     1      -0.414  14.774  19.897  0.00  0.00    +0.000 OA
ATOM     24  N   UNL     1       0.415  14.107  21.962  0.00  0.00    +0.000 N 
ATOM     25  H   UNL     1       1.240  14.155  22.549  0.00  0.00    +0.000 HD
BRANCH  22  30
ATOM     26  C   UNL     1       5.545  16.788  19.188  0.00  0.00    +0.000 C 
ATOM     27  C   UNL     1       4.235  16.187  19.583  0.00  0.00    +0.000 A 
ATOM     28  C   UNL     1       4.005  14.809  19.572  0.00  0.00    +0.000 A 
ATOM     29  N   UNL     1       2.817  14.241  19.919  0.00  0.00    +0.000 NA
ATOM     30  C   UNL     1       1.855  15.134  20.279  0.00  0.00    +0.000 A 
ATOM     31  C   UNL     1       2.080  16.506  20.299  0.00  0.00    +0.000 A 
ATOM     32  N   UNL     1       3.266  17.058  19.954  0.00  0.00    +0.000 NA
ENDBRANCH  22  30
ENDBRANCH   1  24
BRANCH   3  33
ATOM     33  C   UNL     1      -3.815  15.220  24.156  0.00  0.00    +0.000 C 
ATOM     34  N   UNL     1      -4.538  16.030  24.571  0.00  0.00    +0.000 NA
ENDBRANCH   3  33
TORSDOF 6
ENDMDL
