MODEL 1
REMARK VINA RESULT:      -8.6      0.000      0.000
REMARK  Name = 
REMARK  9 active torsions:
REMARK  status: ('A' for Active; 'I' for Inactive)
REMARK    1  A    between atoms: C_1  and  C_2
REMARK    2  A    between atoms: C_8  and  N_9
REMARK    3  A    between atoms: C_11  and  C_12
REMARK    4  A    between atoms: C_14  and  C_15
REMARK    5  A    between atoms: C_20  and  O_21
REMARK    6  A    between atoms: O_21  and  C_22
REMARK    7  A    between atoms: C_22  and  C_23
REMARK    8  A    between atoms: C_23  and  O_24
REMARK    9  A    between atoms: O_24  and  C_25
REMARK                            x       y       z     vdW  Elec       q    Type
REMARK                         _______ _______ _______ _____ _____    ______ ____
ROOT
ATOM      1  N   UNL     1       2.224   6.512  19.527  0.00  0.00    +0.000 N 
ATOM      2  N   UNL     1       1.213   5.694  19.913  0.00  0.00    +0.000 NA
ATOM      3  C   UNL     1       1.742   4.478  20.022  0.00  0.00    +0.000 A 
ATOM      4  C   UNL     1       0.851   3.364  20.434  0.00  0.00    +0.000 C 
ATOM      5  C   UNL     1       3.129   4.473  19.727  0.00  0.00    +0.000 A 
ATOM      6  C   UNL     1       4.189   3.544  19.712  0.00  0.00    +0.000 A 
ATOM      7  C   UNL     1       5.458   4.048  19.356  0.00  0.00    +0.000 A 
ATOM      8  C   UNL     1       5.637   5.389  19.054  0.00  0.00    +0.000 A 
ATOM      9  N   UNL     1       4.633   6.283  19.046  0.00  0.00    +0.000 NA
ATOM     10  C   UNL     1       3.415   5.796  19.383  0.00  0.00    +0.000 A 
ENDROOT
BRANCH   1  18
ATOM     11  C   UNL     1       1.143   8.252  21.695  0.00  0.00    +0.000 C 
ATOM     12  C   UNL     1       1.381   8.739  20.284  0.00  0.00    +0.000 A 
ATOM     13  C   UNL     1       1.069  10.070  19.933  0.00  0.00    +0.000 A 
ATOM     14 CL   UNL     1       0.360  11.191  21.048  0.00  0.00    +0.000 Cl
ATOM     15  C   UNL     1       1.326  10.560  18.649  0.00  0.00    +0.000 A 
ATOM     16  C   UNL     1       1.907   9.739  17.689  0.00  0.00    +0.000 A 
ATOM     17  C   UNL     1       2.229   8.420  18.005  0.00  0.00    +0.000 A 
ATOM     18  C   UNL     1       1.956   7.900  19.282  0.00  0.00    +0.000 A 
ENDBRANCH   1  18
BRANCH   6  19
ATOM     19  C   UNL     1       4.114   2.082  20.070  0.00  0.00    +0.000 C 
ATOM     20  F   UNL     1       5.300   1.425  20.075  0.00  0.00    +0.000 F 
ATOM     21  F   UNL     1       3.577   1.888  21.307  0.00  0.00    +0.000 F 
ATOM     22  F   UNL     1       3.315   1.392  19.208  0.00  0.00    +0.000 F 
ENDBRANCH   6  19
BRANCH   8  23
ATOM     23  O   UNL     1       6.842   5.957  18.738  0.00  0.00    +0.000 OA
BRANCH  23  24
ATOM     24  C   UNL     1       7.067   6.422  17.404  0.00  0.00    +0.000 C 
BRANCH  24  25
ATOM     25  C   UNL     1       7.118   5.252  16.422  0.00  0.00    +0.000 C 
BRANCH  25  26
ATOM     26  O   UNL     1       7.437   5.728  15.115  0.00  0.00    +0.000 OA
BRANCH  26  27
ATOM     27  C   UNL     1       6.984   4.947  14.080  0.00  0.00    +0.000 A 
ATOM     28  C   UNL     1       5.771   4.291  14.308  0.00  0.00    +0.000 A 
ATOM     29  C   UNL     1       5.217   3.471  13.322  0.00  0.00    +0.000 A 
ATOM     30  C   UNL     1       5.865   3.315  12.098  0.00  0.00    +0.000 A 
ATOM     31  C   UNL     1       7.061   3.986  11.858  0.00  0.00    +0.000 A 
ATOM     32  C   UNL     1       7.618   4.802  12.845  0.00  0.00    +0.000 A 
ENDBRANCH  26  27
ENDBRANCH  25  26
ENDBRANCH  24  25
ENDBRANCH  23  24
ENDBRANCH   8  23
TORSDOF 7
ENDMDL
MODEL 2
REMARK VINA RESULT:      -8.3      1.163      2.104
REMARK  Name = 
REMARK  9 active torsions:
REMARK  status: ('A' for Active; 'I' for Inactive)
REMARK    1  A    between atoms: C_1  and  C_2
REMARK    2  A    between atoms: C_8  and  N_9
REMARK    3  A    between atoms: C_11  and  C_12
REMARK    4  A    between atoms: C_14  and  C_15
REMARK    5  A    between atoms: C_20  and  O_21
REMARK    6  A    between atoms: O_21  and  C_22
REMARK    7  A    between atoms: C_22  and  C_23
REMARK    8  A    between atoms: C_23  and  O_24
REMARK    9  A    between atoms: O_24  and  C_25
REMARK                            x       y       z     vdW  Elec       q    Type
REMARK                         _______ _______ _______ _____ _____    ______ ____
ROOT
ATOM      1  N   UNL     1       1.795   6.598  20.044  0.00  0.00    +0.000 N 
ATOM      2  N   UNL     1       1.064   5.587  20.577  0.00  0.00    +0.000 NA
ATOM      3  C   UNL     1       1.547   4.464  20.050  0.00  0.00    +0.000 A 
ATOM      4  C   UNL     1       0.925   3.179  20.458  0.00  0.00    +0.000 C 
ATOM      5  C   UNL     1       2.627   4.712  19.166  0.00  0.00    +0.000 A 
ATOM      6  C   UNL     1       3.526   3.962  18.381  0.00  0.00    +0.000 A 
ATOM      7  C   UNL     1       4.489   4.698  17.658  0.00  0.00    +0.000 A 
ATOM      8  C   UNL     1       4.543   6.080  17.738  0.00  0.00    +0.000 A 
ATOM      9  N   UNL     1       3.681   6.810  18.467  0.00  0.00    +0.000 NA
ATOM     10  C   UNL     1       2.754   6.103  19.157  0.00  0.00    +0.000 A 
ENDROOT
BRANCH   1  18
ATOM     11  C   UNL     1       1.419   8.657  17.919  0.00  0.00    +0.000 C 
ATOM     12  C   UNL     1       1.360   8.971  19.397  0.00  0.00    +0.000 A 
ATOM     13  C   UNL     1       1.139  10.297  19.829  0.00  0.00    +0.000 A 
ATOM     14 CL   UNL     1       0.980  11.626  18.730  0.00  0.00    +0.000 Cl
ATOM     15  C   UNL     1       1.029  10.606  21.188  0.00  0.00    +0.000 A 
ATOM     16  C   UNL     1       1.129   9.603  22.145  0.00  0.00    +0.000 A 
ATOM     17  C   UNL     1       1.345   8.283  21.750  0.00  0.00    +0.000 A 
ATOM     18  C   UNL     1       1.483   7.954  20.391  0.00  0.00    +0.000 A 
ENDBRANCH   1  18
BRANCH   6  19
ATOM     19  C   UNL     1       3.587   2.461  18.263  0.00  0.00    +0.000 C 
ATOM     20  F   UNL     1       2.400   1.850  18.027  0.00  0.00    +0.000 F 
ATOM     21  F   UNL     1       4.415   2.064  17.257  0.00  0.00    +0.000 F 
ATOM     22  F   UNL     1       4.079   1.885  19.395  0.00  0.00    +0.000 F 
ENDBRANCH   6  19
BRANCH   8  23
ATOM     23  O   UNL     1       5.470   6.857  17.097  0.00  0.00    +0.000 OA
BRANCH  23  24
ATOM     24  C   UNL     1       6.862   6.583  17.284  0.00  0.00    +0.000 C 
BRANCH  24  25
ATOM     25  C   UNL     1       7.285   5.351  16.486  0.00  0.00    +0.000 C 
BRANCH  25  26
ATOM     26  O   UNL     1       7.582   5.720  15.140  0.00  0.00    +0.000 OA
BRANCH  26  27
ATOM     27  C   UNL     1       6.986   4.947  14.174  0.00  0.00    +0.000 A 
ATOM     28  C   UNL     1       7.671   4.870  12.958  0.00  0.00    +0.000 A 
ATOM     29  C   UNL     1       7.155   4.110  11.906  0.00  0.00    +0.000 A 
ATOM     30  C   UNL     1       5.960   3.412  12.068  0.00  0.00    +0.000 A 
ATOM     31  C   UNL     1       5.287   3.466  13.287  0.00  0.00    +0.000 A 
ATOM     32  C   UNL     1       5.800   4.230  14.337  0.00  0.00    +0.000 A 
ENDBRANCH  26  27
ENDBRANCH  25  26
ENDBRANCH  24  25
ENDBRANCH  23  24
ENDBRANCH   8  23
TORSDOF 7
ENDMDL
MODEL 3
REMARK VINA RESULT:      -8.3      1.439      2.909
REMARK  Name = 
REMARK  9 active torsions:
REMARK  status: ('A' for Active; 'I' for Inactive)
REMARK    1  A    between atoms: C_1  and  C_2
REMARK    2  A    between atoms: C_8  and  N_9
REMARK    3  A    between atoms: C_11  and  C_12
REMARK    4  A    between atoms: C_14  and  C_15
REMARK    5  A    between atoms: C_20  and  O_21
REMARK    6  A    between atoms: O_21  and  C_22
REMARK    7  A    between atoms: C_22  and  C_23
REMARK    8  A    between atoms: C_23  and  O_24
REMARK    9  A    between atoms: O_24  and  C_25
REMARK                            x       y       z     vdW  Elec       q    Type
REMARK                         _______ _______ _______ _____ _____    ______ ____
ROOT
ATOM      1  N   UNL     1       2.205   6.568  19.424  0.00  0.00    +0.000 N 
ATOM      2  N   UNL     1       1.736   5.893  20.503  0.00  0.00    +0.000 NA
ATOM      3  C   UNL     1       2.103   4.624  20.333  0.00  0.00    +0.000 A 
ATOM      4  C   UNL     1       1.716   3.641  21.376  0.00  0.00    +0.000 C 
ATOM      5  C   UNL     1       2.846   4.440  19.140  0.00  0.00    +0.000 A 
ATOM      6  C   UNL     1       3.507   3.388  18.474  0.00  0.00    +0.000 A 
ATOM      7  C   UNL     1       4.157   3.722  17.266  0.00  0.00    +0.000 A 
ATOM      8  C   UNL     1       4.147   5.021  16.783  0.00  0.00    +0.000 A 
ATOM      9  N   UNL     1       3.505   6.030  17.396  0.00  0.00    +0.000 NA
ATOM     10  C   UNL     1       2.878   5.707  18.553  0.00  0.00    +0.000 A 
ENDROOT
BRANCH   1  18
ATOM     11  C   UNL     1       1.006   8.094  21.689  0.00  0.00    +0.000 C 
ATOM     12  C   UNL     1       1.302   8.709  20.340  0.00  0.00    +0.000 A 
ATOM     13  C   UNL     1       0.988  10.065  20.097  0.00  0.00    +0.000 A 
ATOM     14 CL   UNL     1       0.216  11.073  21.275  0.00  0.00    +0.000 Cl
ATOM     15  C   UNL     1       1.298  10.671  18.876  0.00  0.00    +0.000 A 
ATOM     16  C   UNL     1       1.931   9.946  17.874  0.00  0.00    +0.000 A 
ATOM     17  C   UNL     1       2.255   8.606  18.083  0.00  0.00    +0.000 A 
ATOM     18  C   UNL     1       1.931   7.970  19.294  0.00  0.00    +0.000 A 
ENDBRANCH   1  18
BRANCH   6  19
ATOM     19  C   UNL     1       3.621   1.958  18.935  0.00  0.00    +0.000 C 
ATOM     20  F   UNL     1       4.136   1.095  18.025  0.00  0.00    +0.000 F 
ATOM     21  F   UNL     1       4.408   1.842  20.041  0.00  0.00    +0.000 F 
ATOM     22  F   UNL     1       2.410   1.443  19.288  0.00  0.00    +0.000 F 
ENDBRANCH   6  19
BRANCH   8  23
ATOM     23  O   UNL     1       4.785   5.427  15.642  0.00  0.00    +0.000 OA
BRANCH  23  24
ATOM     24  C   UNL     1       5.238   4.443  14.707  0.00  0.00    +0.000 C 
BRANCH  24  25
ATOM     25  C   UNL     1       6.762   4.341  14.720  0.00  0.00    +0.000 C 
BRANCH  25  26
ATOM     26  O   UNL     1       7.329   5.573  15.165  0.00  0.00    +0.000 OA
BRANCH  26  27
ATOM     27  C   UNL     1       7.536   5.668  16.519  0.00  0.00    +0.000 A 
ATOM     28  C   UNL     1       7.586   6.968  17.030  0.00  0.00    +0.000 A 
ATOM     29  C   UNL     1       7.791   7.181  18.395  0.00  0.00    +0.000 A 
ATOM     30  C   UNL     1       7.934   6.096  19.258  0.00  0.00    +0.000 A 
ATOM     31  C   UNL     1       7.860   4.799  18.756  0.00  0.00    +0.000 A 
ATOM     32  C   UNL     1       7.660   4.585  17.391  0.00  0.00    +0.000 A 
ENDBRANCH  26  27
ENDBRANCH  25  26
ENDBRANCH  24  25
ENDBRANCH  23  24
ENDBRANCH   8  23
TORSDOF 7
ENDMDL
MODEL 4
REMARK VINA RESULT:      -8.2      1.564      1.786
REMARK  Name = 
REMARK  9 active torsions:
REMARK  status: ('A' for Active; 'I' for Inactive)
REMARK    1  A    between atoms: C_1  and  C_2
REMARK    2  A    between atoms: C_8  and  N_9
REMARK    3  A    between atoms: C_11  and  C_12
REMARK    4  A    between atoms: C_14  and  C_15
REMARK    5  A    between atoms: C_20  and  O_21
REMARK    6  A    between atoms: O_21  and  C_22
REMARK    7  A    between atoms: C_22  and  C_23
REMARK    8  A    between atoms: C_23  and  O_24
REMARK    9  A    between atoms: O_24  and  C_25
REMARK                            x       y       z     vdW  Elec       q    Type
REMARK                         _______ _______ _______ _____ _____    ______ ____
ROOT
ATOM      1  N   UNL     1       2.278   6.232  18.860  0.00  0.00    +0.000 N 
ATOM      2  N   UNL     1       1.237   5.409  18.579  0.00  0.00    +0.000 NA
ATOM      3  C   UNL     1       1.733   4.174  18.576  0.00  0.00    +0.000 A 
ATOM      4  C   UNL     1       0.805   3.051  18.289  0.00  0.00    +0.000 C 
ATOM      5  C   UNL     1       3.118   4.155  18.878  0.00  0.00    +0.000 A 
ATOM      6  C   UNL     1       4.135   3.196  19.055  0.00  0.00    +0.000 A 
ATOM      7  C   UNL     1       5.414   3.692  19.387  0.00  0.00    +0.000 A 
ATOM      8  C   UNL     1       5.637   5.051  19.541  0.00  0.00    +0.000 A 
ATOM      9  N   UNL     1       4.682   5.980  19.356  0.00  0.00    +0.000 NA
ATOM     10  C   UNL     1       3.457   5.502  19.033  0.00  0.00    +0.000 A 
ENDROOT
BRANCH   1  18
ATOM     11  C   UNL     1       1.188   7.543  21.308  0.00  0.00    +0.000 C 
ATOM     12  C   UNL     1       1.490   8.294  20.030  0.00  0.00    +0.000 A 
ATOM     13  C   UNL     1       1.236   9.680  19.948  0.00  0.00    +0.000 A 
ATOM     14 CL   UNL     1       0.531  10.582  21.249  0.00  0.00    +0.000 Cl
ATOM     15  C   UNL     1       1.554  10.407  18.797  0.00  0.00    +0.000 A 
ATOM     16  C   UNL     1       2.137   9.773  17.706  0.00  0.00    +0.000 A 
ATOM     17  C   UNL     1       2.401   8.405  17.757  0.00  0.00    +0.000 A 
ATOM     18  C   UNL     1       2.068   7.650  18.895  0.00  0.00    +0.000 A 
ENDBRANCH   1  18
BRANCH   6  19
ATOM     19  C   UNL     1       3.990   1.699  18.962  0.00  0.00    +0.000 C 
ATOM     20  F   UNL     1       4.959   0.983  19.584  0.00  0.00    +0.000 F 
ATOM     21  F   UNL     1       2.812   1.268  19.494  0.00  0.00    +0.000 F 
ATOM     22  F   UNL     1       3.988   1.271  17.668  0.00  0.00    +0.000 F 
ENDBRANCH   6  19
BRANCH   8  23
ATOM     23  O   UNL     1       6.838   5.603  19.898  0.00  0.00    +0.000 OA
BRANCH  23  24
ATOM     24  C   UNL     1       7.886   5.682  18.929  0.00  0.00    +0.000 C 
BRANCH  24  25
ATOM     25  C   UNL     1       7.870   7.034  18.218  0.00  0.00    +0.000 C 
BRANCH  25  26
ATOM     26  O   UNL     1       7.825   6.841  16.805  0.00  0.00    +0.000 OA
BRANCH  26  27
ATOM     27  C   UNL     1       6.917   5.908  16.369  0.00  0.00    +0.000 A 
ATOM     28  C   UNL     1       5.622   6.387  16.149  0.00  0.00    +0.000 A 
ATOM     29  C   UNL     1       4.618   5.524  15.703  0.00  0.00    +0.000 A 
ATOM     30  C   UNL     1       4.906   4.182  15.461  0.00  0.00    +0.000 A 
ATOM     31  C   UNL     1       6.201   3.707  15.656  0.00  0.00    +0.000 A 
ATOM     32  C   UNL     1       7.203   4.568  16.106  0.00  0.00    +0.000 A 
ENDBRANCH  26  27
ENDBRANCH  25  26
ENDBRANCH  24  25
ENDBRANCH  23  24
ENDBRANCH   8  23
TORSDOF 7
ENDMDL
MODEL 5
REMARK VINA RESULT:      -8.1      0.898      1.723
REMARK  Name = 
REMARK  9 active torsions:
REMARK  status: ('A' for Active; 'I' for Inactive)
REMARK    1  A    between atoms: C_1  and  C_2
REMARK    2  A    between atoms: C_8  and  N_9
REMARK    3  A    between atoms: C_11  and  C_12
REMARK    4  A    between atoms: C_14  and  C_15
REMARK    5  A    between atoms: C_20  and  O_21
REMARK    6  A    between atoms: O_21  and  C_22
REMARK    7  A    between atoms: C_22  and  C_23
REMARK    8  A    between atoms: C_23  and  O_24
REMARK    9  A    between atoms: O_24  and  C_25
REMARK                            x       y       z     vdW  Elec       q    Type
REMARK                         _______ _______ _______ _____ _____    ______ ____
ROOT
ATOM      1  N   UNL     1       1.882   6.226  20.091  0.00  0.00    +0.000 N 
ATOM      2  N   UNL     1       0.899   5.310  20.273  0.00  0.00    +0.000 NA
ATOM      3  C   UNL     1       1.422   4.134  19.932  0.00  0.00    +0.000 A 
ATOM      4  C   UNL     1       0.557   2.932  20.031  0.00  0.00    +0.000 C 
ATOM      5  C   UNL     1       2.778   4.250  19.534  0.00  0.00    +0.000 A 
ATOM      6  C   UNL     1       3.822   3.395  19.126  0.00  0.00    +0.000 A 
ATOM      7  C   UNL     1       5.061   4.010  18.847  0.00  0.00    +0.000 A 
ATOM      8  C   UNL     1       5.229   5.379  18.987  0.00  0.00    +0.000 A 
ATOM      9  N   UNL     1       4.238   6.209  19.357  0.00  0.00    +0.000 NA
ATOM     10  C   UNL     1       3.048   5.618  19.620  0.00  0.00    +0.000 A 
ENDROOT
BRANCH   1  18
ATOM     11  C   UNL     1       1.893   8.195  17.850  0.00  0.00    +0.000 C 
ATOM     12  C   UNL     1       1.671   8.584  19.294  0.00  0.00    +0.000 A 
ATOM     13  C   UNL     1       1.476   9.940  19.638  0.00  0.00    +0.000 A 
ATOM     14 CL   UNL     1       1.532  11.220  18.472  0.00  0.00    +0.000 Cl
ATOM     15  C   UNL     1       1.218  10.321  20.958  0.00  0.00    +0.000 A 
ATOM     16  C   UNL     1       1.140   9.363  21.962  0.00  0.00    +0.000 A 
ATOM     17  C   UNL     1       1.326   8.016  21.654  0.00  0.00    +0.000 A 
ATOM     18  C   UNL     1       1.611   7.613  20.338  0.00  0.00    +0.000 A 
ENDBRANCH   1  18
BRANCH   6  19
ATOM     19  C   UNL     1       3.761   1.896  18.990  0.00  0.00    +0.000 C 
ATOM     20  F   UNL     1       2.572   1.332  19.321  0.00  0.00    +0.000 F 
ATOM     21  F   UNL     1       4.022   1.490  17.717  0.00  0.00    +0.000 F 
ATOM     22  F   UNL     1       4.690   1.280  19.773  0.00  0.00    +0.000 F 
ENDBRANCH   6  19
BRANCH   8  23
ATOM     23  O   UNL     1       6.409   6.040  18.773  0.00  0.00    +0.000 OA
BRANCH  23  24
ATOM     24  C   UNL     1       7.266   5.612  17.710  0.00  0.00    +0.000 C 
BRANCH  24  25
ATOM     25  C   UNL     1       6.678   5.989  16.351  0.00  0.00    +0.000 C 
BRANCH  25  26
ATOM     26  O   UNL     1       7.624   5.718  15.318  0.00  0.00    +0.000 OA
BRANCH  26  27
ATOM     27  C   UNL     1       7.139   5.001  14.252  0.00  0.00    +0.000 A 
ATOM     28  C   UNL     1       5.963   4.286  14.493  0.00  0.00    +0.000 A 
ATOM     29  C   UNL     1       5.381   3.523  13.478  0.00  0.00    +0.000 A 
ATOM     30  C   UNL     1       5.965   3.483  12.213  0.00  0.00    +0.000 A 
ATOM     31  C   UNL     1       7.124   4.213  11.962  0.00  0.00    +0.000 A 
ATOM     32  C   UNL     1       7.708   4.972  12.978  0.00  0.00    +0.000 A 
ENDBRANCH  26  27
ENDBRANCH  25  26
ENDBRANCH  24  25
ENDBRANCH  23  24
ENDBRANCH   8  23
TORSDOF 7
ENDMDL
MODEL 6
REMARK VINA RESULT:      -8.0      0.991      1.545
REMARK  Name = 
REMARK  9 active torsions:
REMARK  status: ('A' for Active; 'I' for Inactive)
REMARK    1  A    between atoms: C_1  and  C_2
REMARK    2  A    between atoms: C_8  and  N_9
REMARK    3  A    between atoms: C_11  and  C_12
REMARK    4  A    between atoms: C_14  and  C_15
REMARK    5  A    between atoms: C_20  and  O_21
REMARK    6  A    between atoms: O_21  and  C_22
REMARK    7  A    between atoms: C_22  and  C_23
REMARK    8  A    between atoms: C_23  and  O_24
REMARK    9  A    between atoms: O_24  and  C_25
REMARK                            x       y       z     vdW  Elec       q    Type
REMARK                         _______ _______ _______ _____ _____    ______ ____
ROOT
ATOM      1  N   UNL     1       2.258   6.214  18.911  0.00  0.00    +0.000 N 
ATOM      2  N   UNL     1       1.204   5.390  18.690  0.00  0.00    +0.000 NA
ATOM      3  C   UNL     1       1.697   4.153  18.683  0.00  0.00    +0.000 A 
ATOM      4  C   UNL     1       0.755   3.028  18.455  0.00  0.00    +0.000 C 
ATOM      5  C   UNL     1       3.094   4.136  18.923  0.00  0.00    +0.000 A 
ATOM      6  C   UNL     1       4.116   3.176  19.069  0.00  0.00    +0.000 A 
ATOM      7  C   UNL     1       5.410   3.674  19.336  0.00  0.00    +0.000 A 
ATOM      8  C   UNL     1       5.642   5.035  19.458  0.00  0.00    +0.000 A 
ATOM      9  N   UNL     1       4.681   5.963  19.303  0.00  0.00    +0.000 NA
ATOM     10  C   UNL     1       3.442   5.484  19.042  0.00  0.00    +0.000 A 
ENDROOT
BRANCH   1  18
ATOM     11  C   UNL     1       1.196   7.553  21.355  0.00  0.00    +0.000 C 
ATOM     12  C   UNL     1       1.488   8.290  20.067  0.00  0.00    +0.000 A 
ATOM     13  C   UNL     1       1.238   9.677  19.974  0.00  0.00    +0.000 A 
ATOM     14 CL   UNL     1       0.547  10.594  21.272  0.00  0.00    +0.000 Cl
ATOM     15  C   UNL     1       1.546  10.391  18.813  0.00  0.00    +0.000 A 
ATOM     16  C   UNL     1       2.117   9.744  17.723  0.00  0.00    +0.000 A 
ATOM     17  C   UNL     1       2.378   8.375  17.784  0.00  0.00    +0.000 A 
ATOM     18  C   UNL     1       2.053   7.633  18.933  0.00  0.00    +0.000 A 
ENDBRANCH   1  18
BRANCH   6  19
ATOM     19  C   UNL     1       3.964   1.678  19.006  0.00  0.00    +0.000 C 
ATOM     20  F   UNL     1       3.964   1.149  17.757  0.00  0.00    +0.000 F 
ATOM     21  F   UNL     1       4.958   1.037  19.680  0.00  0.00    +0.000 F 
ATOM     22  F   UNL     1       2.800   1.264  19.581  0.00  0.00    +0.000 F 
ENDBRANCH   6  19
BRANCH   8  23
ATOM     23  O   UNL     1       6.859   5.589  19.753  0.00  0.00    +0.000 OA
BRANCH  23  24
ATOM     24  C   UNL     1       7.805   5.797  18.700  0.00  0.00    +0.000 C 
BRANCH  24  25
ATOM     25  C   UNL     1       7.197   6.641  17.581  0.00  0.00    +0.000 C 
BRANCH  25  26
ATOM     26  O   UNL     1       7.716   6.223  16.319  0.00  0.00    +0.000 OA
BRANCH  26  27
ATOM     27  C   UNL     1       6.870   5.449  15.564  0.00  0.00    +0.000 A 
ATOM     28  C   UNL     1       7.398   4.985  14.356  0.00  0.00    +0.000 A 
ATOM     29  C   UNL     1       6.624   4.188  13.508  0.00  0.00    +0.000 A 
ATOM     30  C   UNL     1       5.324   3.840  13.871  0.00  0.00    +0.000 A 
ATOM     31  C   UNL     1       4.803   4.281  15.085  0.00  0.00    +0.000 A 
ATOM     32  C   UNL     1       5.574   5.081  15.930  0.00  0.00    +0.000 A 
ENDBRANCH  26  27
ENDBRANCH  25  26
ENDBRANCH  24  25
ENDBRANCH  23  24
ENDBRANCH   8  23
TORSDOF 7
ENDMDL
MODEL 7
REMARK VINA RESULT:      -7.9      2.497      4.313
REMARK  Name = 
REMARK  9 active torsions:
REMARK  status: ('A' for Active; 'I' for Inactive)
REMARK    1  A    between atoms: C_1  and  C_2
REMARK    2  A    between atoms: C_8  and  N_9
REMARK    3  A    between atoms: C_11  and  C_12
REMARK    4  A    between atoms: C_14  and  C_15
REMARK    5  A    between atoms: C_20  and  O_21
REMARK    6  A    between atoms: O_21  and  C_22
REMARK    7  A    between atoms: C_22  and  C_23
REMARK    8  A    between atoms: C_23  and  O_24
REMARK    9  A    between atoms: O_24  and  C_25
REMARK                            x       y       z     vdW  Elec       q    Type
REMARK                         _______ _______ _______ _____ _____    ______ ____
ROOT
ATOM      1  N   UNL     1       2.217   6.711  19.614  0.00  0.00    +0.000 N 
ATOM      2  N   UNL     1       1.382   5.943  20.356  0.00  0.00    +0.000 NA
ATOM      3  C   UNL     1       1.922   4.726  20.380  0.00  0.00    +0.000 A 
ATOM      4  C   UNL     1       1.208   3.662  21.131  0.00  0.00    +0.000 C 
ATOM      5  C   UNL     1       3.145   4.672  19.666  0.00  0.00    +0.000 A 
ATOM      6  C   UNL     1       4.148   3.723  19.385  0.00  0.00    +0.000 A 
ATOM      7  C   UNL     1       5.240   4.176  18.613  0.00  0.00    +0.000 A 
ATOM      8  C   UNL     1       5.311   5.489  18.174  0.00  0.00    +0.000 A 
ATOM      9  N   UNL     1       4.353   6.400  18.418  0.00  0.00    +0.000 NA
ATOM     10  C   UNL     1       3.305   5.963  19.155  0.00  0.00    +0.000 A 
ENDROOT
BRANCH   1  18
ATOM     11  C   UNL     1       1.158   8.431  21.808  0.00  0.00    +0.000 C 
ATOM     12  C   UNL     1       1.316   8.910  20.383  0.00  0.00    +0.000 A 
ATOM     13  C   UNL     1       0.935  10.224  20.032  0.00  0.00    +0.000 A 
ATOM     14 CL   UNL     1       0.228  11.328  21.165  0.00  0.00    +0.000 Cl
ATOM     15  C   UNL     1       1.118  10.708  18.734  0.00  0.00    +0.000 A 
ATOM     16  C   UNL     1       1.691   9.900  17.758  0.00  0.00    +0.000 A 
ATOM     17  C   UNL     1       2.080   8.599  18.074  0.00  0.00    +0.000 A 
ATOM     18  C   UNL     1       1.883   8.083  19.367  0.00  0.00    +0.000 A 
ENDBRANCH   1  18
BRANCH   6  19
ATOM     19  C   UNL     1       4.193   2.292  19.853  0.00  0.00    +0.000 C 
ATOM     20  F   UNL     1       5.336   1.622  19.559  0.00  0.00    +0.000 F 
ATOM     21  F   UNL     1       4.043   2.193  21.203  0.00  0.00    +0.000 F 
ATOM     22  F   UNL     1       3.184   1.552  19.313  0.00  0.00    +0.000 F 
ENDBRANCH   6  19
BRANCH   8  23
ATOM     23  O   UNL     1       6.354   6.009  17.455  0.00  0.00    +0.000 OA
BRANCH  23  24
ATOM     24  C   UNL     1       7.548   6.400  18.139  0.00  0.00    +0.000 C 
BRANCH  24  25
ATOM     25  C   UNL     1       7.880   7.864  17.859  0.00  0.00    +0.000 C 
BRANCH  25  26
ATOM     26  O   UNL     1       8.681   8.393  18.916  0.00  0.00    +0.000 OA
BRANCH  26  27
ATOM     27  C   UNL     1       8.924   9.743  18.849  0.00  0.00    +0.000 A 
ATOM     28  C   UNL     1       8.315  10.411  17.784  0.00  0.00    +0.000 A 
ATOM     29  C   UNL     1       8.495  11.787  17.620  0.00  0.00    +0.000 A 
ATOM     30  C   UNL     1       9.272  12.503  18.528  0.00  0.00    +0.000 A 
ATOM     31  C   UNL     1       9.860  11.845  19.605  0.00  0.00    +0.000 A 
ATOM     32  C   UNL     1       9.685  10.469  19.766  0.00  0.00    +0.000 A 
ENDBRANCH  26  27
ENDBRANCH  25  26
ENDBRANCH  24  25
ENDBRANCH  23  24
ENDBRANCH   8  23
TORSDOF 7
ENDMDL
MODEL 8
REMARK VINA RESULT:      -7.9      2.573      4.385
REMARK  Name = 
REMARK  9 active torsions:
REMARK  status: ('A' for Active; 'I' for Inactive)
REMARK    1  A    between atoms: C_1  and  C_2
REMARK    2  A    between atoms: C_8  and  N_9
REMARK    3  A    between atoms: C_11  and  C_12
REMARK    4  A    between atoms: C_14  and  C_15
REMARK    5  A    between atoms: C_20  and  O_21
REMARK    6  A    between atoms: O_21  and  C_22
REMARK    7  A    between atoms: C_22  and  C_23
REMARK    8  A    between atoms: C_23  and  O_24
REMARK    9  A    between atoms: O_24  and  C_25
REMARK                            x       y       z     vdW  Elec       q    Type
REMARK                         _______ _______ _______ _____ _____    ______ ____
ROOT
ATOM      1  N   UNL     1       2.263   6.585  19.568  0.00  0.00    +0.000 N 
ATOM      2  N   UNL     1       1.311   5.793  20.122  0.00  0.00    +0.000 NA
ATOM      3  C   UNL     1       1.843   4.575  20.201  0.00  0.00    +0.000 A 
ATOM      4  C   UNL     1       1.011   3.488  20.775  0.00  0.00    +0.000 C 
ATOM      5  C   UNL     1       3.175   4.543  19.716  0.00  0.00    +0.000 A 
ATOM      6  C   UNL     1       4.216   3.603  19.588  0.00  0.00    +0.000 A 
ATOM      7  C   UNL     1       5.426   4.079  19.039  0.00  0.00    +0.000 A 
ATOM      8  C   UNL     1       5.570   5.406  18.666  0.00  0.00    +0.000 A 
ATOM      9  N   UNL     1       4.580   6.310  18.764  0.00  0.00    +0.000 NA
ATOM     10  C   UNL     1       3.418   5.850  19.286  0.00  0.00    +0.000 A 
ENDROOT
BRANCH   1  18
ATOM     11  C   UNL     1       1.160   8.327  21.723  0.00  0.00    +0.000 C 
ATOM     12  C   UNL     1       1.387   8.804  20.307  0.00  0.00    +0.000 A 
ATOM     13  C   UNL     1       1.052  10.128  19.945  0.00  0.00    +0.000 A 
ATOM     14 CL   UNL     1       0.328  11.247  21.052  0.00  0.00    +0.000 Cl
ATOM     15  C   UNL     1       1.299  10.609  18.656  0.00  0.00    +0.000 A 
ATOM     16  C   UNL     1       1.890   9.789  17.702  0.00  0.00    +0.000 A 
ATOM     17  C   UNL     1       2.234   8.478  18.029  0.00  0.00    +0.000 A 
ATOM     18  C   UNL     1       1.973   7.965  19.311  0.00  0.00    +0.000 A 
ENDBRANCH   1  18
BRANCH   6  19
ATOM     19  C   UNL     1       4.182   2.156  20.007  0.00  0.00    +0.000 C 
ATOM     20  F   UNL     1       5.349   1.481  19.855  0.00  0.00    +0.000 F 
ATOM     21  F   UNL     1       3.841   2.014  21.318  0.00  0.00    +0.000 F 
ATOM     22  F   UNL     1       3.254   1.448  19.305  0.00  0.00    +0.000 F 
ENDBRANCH   6  19
BRANCH   8  23
ATOM     23  O   UNL     1       6.723   5.948  18.164  0.00  0.00    +0.000 OA
BRANCH  23  24
ATOM     24  C   UNL     1       6.679   7.243  17.557  0.00  0.00    +0.000 C 
BRANCH  24  25
ATOM     25  C   UNL     1       7.934   8.045  17.898  0.00  0.00    +0.000 C 
BRANCH  25  26
ATOM     26  O   UNL     1       7.779   9.397  17.467  0.00  0.00    +0.000 OA
BRANCH  26  27
ATOM     27  C   UNL     1       8.518  10.323  18.162  0.00  0.00    +0.000 A 
ATOM     28  C   UNL     1       9.130   9.852  19.327  0.00  0.00    +0.000 A 
ATOM     29  C   UNL     1       9.905  10.709  20.112  0.00  0.00    +0.000 A 
ATOM     30  C   UNL     1      10.085  12.036  19.728  0.00  0.00    +0.000 A 
ATOM     31  C   UNL     1       9.497  12.503  18.555  0.00  0.00    +0.000 A 
ATOM     32  C   UNL     1       8.718  11.648  17.773  0.00  0.00    +0.000 A 
ENDBRANCH  26  27
ENDBRANCH  25  26
ENDBRANCH  24  25
ENDBRANCH  23  24
ENDBRANCH   8  23
TORSDOF 7
ENDMDL
MODEL 9
REMARK VINA RESULT:      -7.8      2.831      4.814
REMARK  Name = 
REMARK  9 active torsions:
REMARK  status: ('A' for Active; 'I' for Inactive)
REMARK    1  A    between atoms: C_1  and  C_2
REMARK    2  A    between atoms: C_8  and  N_9
REMARK    3  A    between atoms: C_11  and  C_12
REMARK    4  A    between atoms: C_14  and  C_15
REMARK    5  A    between atoms: C_20  and  O_21
REMARK    6  A    between atoms: O_21  and  C_22
REMARK    7  A    between atoms: C_22  and  C_23
REMARK    8  A    between atoms: C_23  and  O_24
REMARK    9  A    between atoms: O_24  and  C_25
REMARK                            x       y       z     vdW  Elec       q    Type
REMARK                         _______ _______ _______ _____ _____    ______ ____
ROOT
ATOM      1  N   UNL     1       1.840   6.654  19.880  0.00  0.00    +0.000 N 
ATOM      2  N   UNL     1       1.081   5.614  20.304  0.00  0.00    +0.000 NA
ATOM      3  C   UNL     1       1.597   4.525  19.738  0.00  0.00    +0.000 A 
ATOM      4  C   UNL     1       0.954   3.218  20.027  0.00  0.00    +0.000 C 
ATOM      5  C   UNL     1       2.728   4.826  18.939  0.00  0.00    +0.000 A 
ATOM      6  C   UNL     1       3.675   4.125  18.165  0.00  0.00    +0.000 A 
ATOM      7  C   UNL     1       4.679   4.903  17.548  0.00  0.00    +0.000 A 
ATOM      8  C   UNL     1       4.725   6.277  17.718  0.00  0.00    +0.000 A 
ATOM      9  N   UNL     1       3.818   6.962  18.437  0.00  0.00    +0.000 NA
ATOM     10  C   UNL     1       2.853   6.215  19.024  0.00  0.00    +0.000 A 
ENDROOT
BRANCH   1  18
ATOM     11  C   UNL     1       1.314   8.778  17.854  0.00  0.00    +0.000 C 
ATOM     12  C   UNL     1       1.310   9.036  19.344  0.00  0.00    +0.000 A 
ATOM     13  C   UNL     1       1.071  10.338  19.836  0.00  0.00    +0.000 A 
ATOM     14 CL   UNL     1       0.826  11.702  18.796  0.00  0.00    +0.000 Cl
ATOM     15  C   UNL     1       1.011  10.592  21.209  0.00  0.00    +0.000 A 
ATOM     16  C   UNL     1       1.182   9.558  22.122  0.00  0.00    +0.000 A 
ATOM     17  C   UNL     1       1.418   8.261  21.668  0.00  0.00    +0.000 A 
ATOM     18  C   UNL     1       1.506   7.987  20.292  0.00  0.00    +0.000 A 
ENDBRANCH   1  18
BRANCH   6  19
ATOM     19  C   UNL     1       3.746   2.634  17.957  0.00  0.00    +0.000 C 
ATOM     20  F   UNL     1       2.620   2.065  17.459  0.00  0.00    +0.000 F 
ATOM     21  F   UNL     1       4.746   2.288  17.100  0.00  0.00    +0.000 F 
ATOM     22  F   UNL     1       4.010   1.974  19.119  0.00  0.00    +0.000 F 
ENDBRANCH   6  19
BRANCH   8  23
ATOM     23  O   UNL     1       5.688   7.091  17.184  0.00  0.00    +0.000 OA
BRANCH  23  24
ATOM     24  C   UNL     1       7.041   6.957  17.628  0.00  0.00    +0.000 C 
BRANCH  24  25
ATOM     25  C   UNL     1       7.813   8.258  17.420  0.00  0.00    +0.000 C 
BRANCH  25  26
ATOM     26  O   UNL     1       8.478   8.629  18.627  0.00  0.00    +0.000 OA
BRANCH  26  27
ATOM     27  C   UNL     1       8.862   9.945  18.705  0.00  0.00    +0.000 A 
ATOM     28  C   UNL     1       9.592  10.291  19.846  0.00  0.00    +0.000 A 
ATOM     29  C   UNL     1      10.034  11.604  20.028  0.00  0.00    +0.000 A 
ATOM     30  C   UNL     1       9.762  12.573  19.063  0.00  0.00    +0.000 A 
ATOM     31  C   UNL     1       9.057  12.226  17.914  0.00  0.00    +0.000 A 
ATOM     32  C   UNL     1       8.610  10.915  17.734  0.00  0.00    +0.000 A 
ENDBRANCH  26  27
ENDBRANCH  25  26
ENDBRANCH  24  25
ENDBRANCH  23  24
ENDBRANCH   8  23
TORSDOF 7
ENDMDL
