MODEL 1
REMARK VINA RESULT:      -8.1      0.000      0.000
REMARK  Name = 
REMARK  8 active torsions:
REMARK  status: ('A' for Active; 'I' for Inactive)
REMARK    1  A    between atoms: C_1  and  C_2
REMARK    2  A    between atoms: C_2  and  C_3
REMARK    3  A    between atoms: C_5  and  O_6
REMARK    4  A    between atoms: C_8  and  C_10
REMARK    5  A    between atoms: C_16  and  C_17
REMARK    6  A    between atoms: C_17  and  C_19
REMARK    7  A    between atoms: C_22  and  N_23
REMARK    8  A    between atoms: C_27  and  C_28
REMARK                            x       y       z     vdW  Elec       q    Type
REMARK                         _______ _______ _______ _____ _____    ______ ____
ROOT
ATOM      1  C   UNL     1       1.997   3.654  19.493  0.00  0.00    +0.000 A 
ATOM      2  N   UNL     1       1.887   2.617  18.601  0.00  0.00    +0.000 NA
ATOM      3  C   UNL     1       2.654   2.945  17.597  0.00  0.00    +0.000 A 
ATOM      4  N   UNL     1       3.367   4.104  17.806  0.00  0.00    +0.000 N 
ATOM      5  C   UNL     1       4.337   4.622  16.924  0.00  0.00    +0.000 C 
ATOM      6  O   UNL     1       4.156   4.444  15.720  0.00  0.00    +0.000 OA
ATOM      7  C   UNL     1       2.904   4.617  19.033  0.00  0.00    +0.000 A 
ENDROOT
BRANCH   5   8
ATOM      8  C   UNL     1       5.594   5.307  17.334  0.00  0.00    +0.000 A 
ATOM      9  C   UNL     1       5.840   6.642  16.989  0.00  0.00    +0.000 A 
ATOM     10  C   UNL     1       7.006   7.271  17.429  0.00  0.00    +0.000 A 
ATOM     11  C   UNL     1       7.913   6.582  18.235  0.00  0.00    +0.000 A 
ATOM     12  C   UNL     1       7.665   5.257  18.594  0.00  0.00    +0.000 A 
ATOM     13  C   UNL     1       6.508   4.618  18.145  0.00  0.00    +0.000 A 
ENDBRANCH   5   8
BRANCH   1  15
ATOM     14  C   UNL     1       1.558   2.642  21.791  0.00  0.00    +0.000 C 
ATOM     15  C   UNL     1       1.127   3.622  20.715  0.00  0.00    +0.000 C 
ENDBRANCH   1  15
BRANCH   3  16
ATOM     16  O   UNL     1       2.759   2.155  16.547  0.00  0.00    +0.000 OA
ATOM     17  H   UNL     1       2.305   1.349  16.850  0.00  0.00    +0.000 HD
ENDBRANCH   3  16
BRANCH   7  18
ATOM     18  C   UNL     1       3.228   5.956  19.504  0.00  0.00    +0.000 C 
ATOM     19  O   UNL     1       4.286   6.208  20.079  0.00  0.00    +0.000 OA
BRANCH  18  20
ATOM     20  C   UNL     1       2.378   7.132  19.207  0.00  0.00    +0.000 A 
ATOM     21  C   UNL     1       1.710   7.715  20.290  0.00  0.00    +0.000 A 
ATOM     22  C   UNL     1       1.096   8.956  20.149  0.00  0.00    +0.000 A 
ATOM     23  C   UNL     1       1.137   9.626  18.921  0.00  0.00    +0.000 A 
ATOM     24  C   UNL     1       1.701   8.984  17.808  0.00  0.00    +0.000 A 
ATOM     25  C   UNL     1       2.290   7.719  17.943  0.00  0.00    +0.000 A 
BRANCH  23  26
ATOM     26  N   UNL     1       0.685  10.975  18.861  0.00  0.00    +0.000 N 
ATOM     27  C   UNL     1       1.469  12.077  19.142  0.00  0.00    +0.000 A 
ATOM     28  C   UNL     1       0.707  13.181  18.862  0.00  0.00    +0.000 A 
ATOM     29  N   UNL     1      -0.537  12.806  18.455  0.00  0.00    +0.000 NA
ATOM     30  C   UNL     1      -0.553  11.486  18.486  0.00  0.00    +0.000 A 
ATOM     31  C   UNL     1      -1.783  10.682  18.271  0.00  0.00    +0.000 C 
ENDBRANCH  23  26
ENDBRANCH  18  20
ENDBRANCH   7  18
TORSDOF 6
ENDMDL
MODEL 2
REMARK VINA RESULT:      -7.8      0.464      1.093
REMARK  Name = 
REMARK  8 active torsions:
REMARK  status: ('A' for Active; 'I' for Inactive)
REMARK    1  A    between atoms: C_1  and  C_2
REMARK    2  A    between atoms: C_2  and  C_3
REMARK    3  A    between atoms: C_5  and  O_6
REMARK    4  A    between atoms: C_8  and  C_10
REMARK    5  A    between atoms: C_16  and  C_17
REMARK    6  A    between atoms: C_17  and  C_19
REMARK    7  A    between atoms: C_22  and  N_23
REMARK    8  A    between atoms: C_27  and  C_28
REMARK                            x       y       z     vdW  Elec       q    Type
REMARK                         _______ _______ _______ _____ _____    ______ ____
ROOT
ATOM      1  C   UNL     1       2.103   3.762  19.469  0.00  0.00    +0.000 A 
ATOM      2  N   UNL     1       2.050   2.682  18.623  0.00  0.00    +0.000 NA
ATOM      3  C   UNL     1       2.857   2.975  17.641  0.00  0.00    +0.000 A 
ATOM      4  N   UNL     1       3.544   4.154  17.826  0.00  0.00    +0.000 N 
ATOM      5  C   UNL     1       4.547   4.645  16.966  0.00  0.00    +0.000 C 
ATOM      6  O   UNL     1       4.425   4.408  15.765  0.00  0.00    +0.000 OA
ATOM      7  C   UNL     1       3.017   4.717  19.005  0.00  0.00    +0.000 A 
ENDROOT
BRANCH   5   8
ATOM      8  C   UNL     1       5.774   5.369  17.401  0.00  0.00    +0.000 A 
ATOM      9  C   UNL     1       6.027   6.683  16.987  0.00  0.00    +0.000 A 
ATOM     10  C   UNL     1       7.161   7.352  17.450  0.00  0.00    +0.000 A 
ATOM     11  C   UNL     1       8.029   6.724  18.345  0.00  0.00    +0.000 A 
ATOM     12  C   UNL     1       7.773   5.421  18.770  0.00  0.00    +0.000 A 
ATOM     13  C   UNL     1       6.648   4.743  18.301  0.00  0.00    +0.000 A 
ENDBRANCH   5   8
BRANCH   1  15
ATOM     14  C   UNL     1       1.409   2.669  21.664  0.00  0.00    +0.000 C 
ATOM     15  C   UNL     1       1.177   3.774  20.649  0.00  0.00    +0.000 C 
ENDBRANCH   1  15
BRANCH   3  16
ATOM     16  O   UNL     1       3.022   2.138  16.636  0.00  0.00    +0.000 OA
ATOM     17  H   UNL     1       3.882   2.416  16.275  0.00  0.00    +0.000 HD
ENDBRANCH   3  16
BRANCH   7  18
ATOM     18  C   UNL     1       3.299   6.082  19.426  0.00  0.00    +0.000 C 
ATOM     19  O   UNL     1       4.370   6.397  19.942  0.00  0.00    +0.000 OA
BRANCH  18  20
ATOM     20  C   UNL     1       2.383   7.209  19.140  0.00  0.00    +0.000 A 
ATOM     21  C   UNL     1       1.737   7.788  20.238  0.00  0.00    +0.000 A 
ATOM     22  C   UNL     1       1.060   8.996  20.096  0.00  0.00    +0.000 A 
ATOM     23  C   UNL     1       1.014   9.635  18.852  0.00  0.00    +0.000 A 
ATOM     24  C   UNL     1       1.557   8.992  17.730  0.00  0.00    +0.000 A 
ATOM     25  C   UNL     1       2.211   7.759  17.867  0.00  0.00    +0.000 A 
BRANCH  23  26
ATOM     26  N   UNL     1       0.496  10.960  18.780  0.00  0.00    +0.000 N 
ATOM     27  C   UNL     1      -0.836  11.290  18.937  0.00  0.00    +0.000 A 
ATOM     28  C   UNL     1      -0.906  12.658  18.912  0.00  0.00    +0.000 A 
ATOM     29  N   UNL     1       0.331  13.190  18.706  0.00  0.00    +0.000 NA
ATOM     30  C   UNL     1       1.159  12.169  18.596  0.00  0.00    +0.000 A 
ATOM     31  C   UNL     1       2.583  12.314  18.201  0.00  0.00    +0.000 C 
ENDBRANCH  23  26
ENDBRANCH  18  20
ENDBRANCH   7  18
TORSDOF 6
ENDMDL
MODEL 3
REMARK VINA RESULT:      -7.6      0.564      1.526
REMARK  Name = 
REMARK  8 active torsions:
REMARK  status: ('A' for Active; 'I' for Inactive)
REMARK    1  A    between atoms: C_1  and  C_2
REMARK    2  A    between atoms: C_2  and  C_3
REMARK    3  A    between atoms: C_5  and  O_6
REMARK    4  A    between atoms: C_8  and  C_10
REMARK    5  A    between atoms: C_16  and  C_17
REMARK    6  A    between atoms: C_17  and  C_19
REMARK    7  A    between atoms: C_22  and  N_23
REMARK    8  A    between atoms: C_27  and  C_28
REMARK                            x       y       z     vdW  Elec       q    Type
REMARK                         _______ _______ _______ _____ _____    ______ ____
ROOT
ATOM      1  C   UNL     1       1.835   3.934  19.065  0.00  0.00    +0.000 A 
ATOM      2  N   UNL     1       1.700   3.034  18.037  0.00  0.00    +0.000 NA
ATOM      3  C   UNL     1       2.570   3.405  17.139  0.00  0.00    +0.000 A 
ATOM      4  N   UNL     1       3.370   4.449  17.547  0.00  0.00    +0.000 N 
ATOM      5  C   UNL     1       4.452   4.971  16.808  0.00  0.00    +0.000 C 
ATOM      6  O   UNL     1       4.350   4.966  15.581  0.00  0.00    +0.000 OA
ATOM      7  C   UNL     1       2.862   4.849  18.798  0.00  0.00    +0.000 A 
ENDROOT
BRANCH   5   8
ATOM      8  C   UNL     1       5.731   5.466  17.388  0.00  0.00    +0.000 A 
ATOM      9  C   UNL     1       6.159   6.784  17.184  0.00  0.00    +0.000 A 
ATOM     10  C   UNL     1       7.338   7.233  17.781  0.00  0.00    +0.000 A 
ATOM     11  C   UNL     1       8.077   6.379  18.601  0.00  0.00    +0.000 A 
ATOM     12  C   UNL     1       7.647   5.071  18.819  0.00  0.00    +0.000 A 
ATOM     13  C   UNL     1       6.476   4.612  18.214  0.00  0.00    +0.000 A 
ENDBRANCH   5   8
BRANCH   1  15
ATOM     14  C   UNL     1       1.289   2.901  21.330  0.00  0.00    +0.000 C 
ATOM     15  C   UNL     1       0.872   3.838  20.211  0.00  0.00    +0.000 C 
ENDBRANCH   1  15
BRANCH   3  16
ATOM     16  O   UNL     1       2.684   2.747  16.002  0.00  0.00    +0.000 OA
ATOM     17  H   UNL     1       2.200   3.321  15.383  0.00  0.00    +0.000 HD
ENDBRANCH   3  16
BRANCH   7  18
ATOM     18  C   UNL     1       3.271   6.078  19.463  0.00  0.00    +0.000 C 
ATOM     19  O   UNL     1       4.324   6.159  20.093  0.00  0.00    +0.000 OA
BRANCH  18  20
ATOM     20  C   UNL     1       2.525   7.348  19.316  0.00  0.00    +0.000 A 
ATOM     21  C   UNL     1       2.543   7.944  18.049  0.00  0.00    +0.000 A 
ATOM     22  C   UNL     1       1.677   8.994  17.757  0.00  0.00    +0.000 A 
ATOM     23  C   UNL     1       0.788   9.465  18.730  0.00  0.00    +0.000 A 
ATOM     24  C   UNL     1       0.859   8.948  20.032  0.00  0.00    +0.000 A 
ATOM     25  C   UNL     1       1.755   7.913  20.335  0.00  0.00    +0.000 A 
BRANCH  23  26
ATOM     26  N   UNL     1      -0.222  10.393  18.344  0.00  0.00    +0.000 N 
ATOM     27  C   UNL     1      -1.394  10.050  17.699  0.00  0.00    +0.000 A 
ATOM     28  C   UNL     1      -2.139  11.196  17.607  0.00  0.00    +0.000 A 
ATOM     29  N   UNL     1      -1.455  12.248  18.136  0.00  0.00    +0.000 NA
ATOM     30  C   UNL     1      -0.297  11.766  18.547  0.00  0.00    +0.000 A 
ATOM     31  C   UNL     1       0.813  12.622  19.038  0.00  0.00    +0.000 C 
ENDBRANCH  23  26
ENDBRANCH  18  20
ENDBRANCH   7  18
TORSDOF 6
ENDMDL
MODEL 4
REMARK VINA RESULT:      -7.5      1.908      4.444
REMARK  Name = 
REMARK  8 active torsions:
REMARK  status: ('A' for Active; 'I' for Inactive)
REMARK    1  A    between atoms: C_1  and  C_2
REMARK    2  A    between atoms: C_2  and  C_3
REMARK    3  A    between atoms: C_5  and  O_6
REMARK    4  A    between atoms: C_8  and  C_10
REMARK    5  A    between atoms: C_16  and  C_17
REMARK    6  A    between atoms: C_17  and  C_19
REMARK    7  A    between atoms: C_22  and  N_23
REMARK    8  A    between atoms: C_27  and  C_28
REMARK                            x       y       z     vdW  Elec       q    Type
REMARK                         _______ _______ _______ _____ _____    ______ ____
ROOT
ATOM      1  C   UNL     1       6.081   6.059  16.597  0.00  0.00    +0.000 A 
ATOM      2  N   UNL     1       6.461   5.322  15.503  0.00  0.00    +0.000 NA
ATOM      3  C   UNL     1       5.956   4.135  15.696  0.00  0.00    +0.000 A 
ATOM      4  N   UNL     1       5.158   4.052  16.814  0.00  0.00    +0.000 N 
ATOM      5  C   UNL     1       4.416   2.914  17.191  0.00  0.00    +0.000 C 
ATOM      6  O   UNL     1       4.902   1.813  16.932  0.00  0.00    +0.000 OA
ATOM      7  C   UNL     1       5.272   5.301  17.454  0.00  0.00    +0.000 A 
ENDROOT
BRANCH   5   8
ATOM      8  C   UNL     1       3.064   2.936  17.815  0.00  0.00    +0.000 A 
ATOM      9  C   UNL     1       2.791   2.209  18.981  0.00  0.00    +0.000 A 
ATOM     10  C   UNL     1       1.528   2.288  19.570  0.00  0.00    +0.000 A 
ATOM     11  C   UNL     1       0.546   3.111  19.016  0.00  0.00    +0.000 A 
ATOM     12  C   UNL     1       0.819   3.848  17.864  0.00  0.00    +0.000 A 
ATOM     13  C   UNL     1       2.075   3.762  17.263  0.00  0.00    +0.000 A 
ENDBRANCH   5   8
BRANCH   1  15
ATOM     14  C   UNL     1       7.751   7.624  17.718  0.00  0.00    +0.000 C 
ATOM     15  C   UNL     1       6.616   7.454  16.724  0.00  0.00    +0.000 C 
ENDBRANCH   1  15
BRANCH   3  16
ATOM     16  O   UNL     1       6.157   3.171  14.819  0.00  0.00    +0.000 OA
ATOM     17  H   UNL     1       5.607   2.451  15.175  0.00  0.00    +0.000 HD
ENDBRANCH   3  16
BRANCH   7  18
ATOM     18  C   UNL     1       4.776   5.550  18.801  0.00  0.00    +0.000 C 
ATOM     19  O   UNL     1       5.401   5.201  19.801  0.00  0.00    +0.000 OA
BRANCH  18  20
ATOM     20  C   UNL     1       3.563   6.356  19.065  0.00  0.00    +0.000 A 
ATOM     21  C   UNL     1       2.824   6.024  20.207  0.00  0.00    +0.000 A 
ATOM     22  C   UNL     1       1.823   6.875  20.666  0.00  0.00    +0.000 A 
ATOM     23  C   UNL     1       1.543   8.065  19.985  0.00  0.00    +0.000 A 
ATOM     24  C   UNL     1       2.202   8.334  18.776  0.00  0.00    +0.000 A 
ATOM     25  C   UNL     1       3.187   7.460  18.296  0.00  0.00    +0.000 A 
BRANCH  23  26
ATOM     26  N   UNL     1       0.664   9.010  20.588  0.00  0.00    +0.000 N 
ATOM     27  C   UNL     1       0.488   9.157  21.950  0.00  0.00    +0.000 A 
ATOM     28  C   UNL     1      -0.343  10.232  22.123  0.00  0.00    +0.000 A 
ATOM     29  N   UNL     1      -0.722  10.735  20.916  0.00  0.00    +0.000 NA
ATOM     30  C   UNL     1      -0.142   9.979  20.002  0.00  0.00    +0.000 A 
ATOM     31  C   UNL     1      -0.431  10.091  18.550  0.00  0.00    +0.000 C 
ENDBRANCH  23  26
ENDBRANCH  18  20
ENDBRANCH   7  18
TORSDOF 6
ENDMDL
MODEL 5
REMARK VINA RESULT:      -7.3      1.676      4.214
REMARK  Name = 
REMARK  8 active torsions:
REMARK  status: ('A' for Active; 'I' for Inactive)
REMARK    1  A    between atoms: C_1  and  C_2
REMARK    2  A    between atoms: C_2  and  C_3
REMARK    3  A    between atoms: C_5  and  O_6
REMARK    4  A    between atoms: C_8  and  C_10
REMARK    5  A    between atoms: C_16  and  C_17
REMARK    6  A    between atoms: C_17  and  C_19
REMARK    7  A    between atoms: C_22  and  N_23
REMARK    8  A    between atoms: C_27  and  C_28
REMARK                            x       y       z     vdW  Elec       q    Type
REMARK                         _______ _______ _______ _____ _____    ______ ____
ROOT
ATOM      1  C   UNL     1       5.602   5.572  16.472  0.00  0.00    +0.000 A 
ATOM      2  N   UNL     1       5.903   4.578  15.575  0.00  0.00    +0.000 NA
ATOM      3  C   UNL     1       5.439   3.482  16.107  0.00  0.00    +0.000 A 
ATOM      4  N   UNL     1       4.739   3.691  17.274  0.00  0.00    +0.000 N 
ATOM      5  C   UNL     1       4.052   2.691  17.992  0.00  0.00    +0.000 C 
ATOM      6  O   UNL     1       4.535   1.559  17.982  0.00  0.00    +0.000 OA
ATOM      7  C   UNL     1       4.883   5.063  17.561  0.00  0.00    +0.000 A 
ENDROOT
BRANCH   5   8
ATOM      8  C   UNL     1       2.757   2.877  18.703  0.00  0.00    +0.000 A 
ATOM      9  C   UNL     1       1.573   3.135  18.000  0.00  0.00    +0.000 A 
ATOM     10  C   UNL     1       0.366   3.256  18.691  0.00  0.00    +0.000 A 
ATOM     11  C   UNL     1       0.333   3.095  20.077  0.00  0.00    +0.000 A 
ATOM     12  C   UNL     1       1.507   2.824  20.779  0.00  0.00    +0.000 A 
ATOM     13  C   UNL     1       2.718   2.715  20.095  0.00  0.00    +0.000 A 
ENDBRANCH   5   8
BRANCH   1  15
ATOM     14  C   UNL     1       7.175   7.457  17.159  0.00  0.00    +0.000 C 
ATOM     15  C   UNL     1       6.121   6.951  16.191  0.00  0.00    +0.000 C 
ENDBRANCH   1  15
BRANCH   3  16
ATOM     16  O   UNL     1       5.583   2.324  15.493  0.00  0.00    +0.000 OA
ATOM     17  H   UNL     1       4.770   1.854  15.747  0.00  0.00    +0.000 HD
ENDBRANCH   3  16
BRANCH   7  18
ATOM     18  C   UNL     1       4.496   5.651  18.836  0.00  0.00    +0.000 C 
ATOM     19  O   UNL     1       5.172   5.505  19.853  0.00  0.00    +0.000 OA
BRANCH  18  20
ATOM     20  C   UNL     1       3.347   6.574  18.971  0.00  0.00    +0.000 A 
ATOM     21  C   UNL     1       2.548   6.420  20.110  0.00  0.00    +0.000 A 
ATOM     22  C   UNL     1       1.606   7.390  20.442  0.00  0.00    +0.000 A 
ATOM     23  C   UNL     1       1.448   8.523  19.635  0.00  0.00    +0.000 A 
ATOM     24  C   UNL     1       2.164   8.613  18.432  0.00  0.00    +0.000 A 
ATOM     25  C   UNL     1       3.088   7.619  18.081  0.00  0.00    +0.000 A 
BRANCH  23  26
ATOM     26  N   UNL     1       0.632   9.591  20.106  0.00  0.00    +0.000 N 
ATOM     27  C   UNL     1       0.704  10.131  21.376  0.00  0.00    +0.000 A 
ATOM     28  C   UNL     1      -0.154  11.197  21.397  0.00  0.00    +0.000 A 
ATOM     29  N   UNL     1      -0.788  11.317  20.198  0.00  0.00    +0.000 NA
ATOM     30  C   UNL     1      -0.337  10.334  19.441  0.00  0.00    +0.000 A 
ATOM     31  C   UNL     1      -0.900  10.009  18.106  0.00  0.00    +0.000 C 
ENDBRANCH  23  26
ENDBRANCH  18  20
ENDBRANCH   7  18
TORSDOF 6
ENDMDL
MODEL 6
REMARK VINA RESULT:      -7.1      1.757      4.356
REMARK  Name = 
REMARK  8 active torsions:
REMARK  status: ('A' for Active; 'I' for Inactive)
REMARK    1  A    between atoms: C_1  and  C_2
REMARK    2  A    between atoms: C_2  and  C_3
REMARK    3  A    between atoms: C_5  and  O_6
REMARK    4  A    between atoms: C_8  and  C_10
REMARK    5  A    between atoms: C_16  and  C_17
REMARK    6  A    between atoms: C_17  and  C_19
REMARK    7  A    between atoms: C_22  and  N_23
REMARK    8  A    between atoms: C_27  and  C_28
REMARK                            x       y       z     vdW  Elec       q    Type
REMARK                         _______ _______ _______ _____ _____    ______ ____
ROOT
ATOM      1  C   UNL     1       5.559   5.422  16.508  0.00  0.00    +0.000 A 
ATOM      2  N   UNL     1       5.850   4.400  15.639  0.00  0.00    +0.000 NA
ATOM      3  C   UNL     1       5.393   3.321  16.212  0.00  0.00    +0.000 A 
ATOM      4  N   UNL     1       4.706   3.567  17.379  0.00  0.00    +0.000 N 
ATOM      5  C   UNL     1       4.029   2.589  18.136  0.00  0.00    +0.000 C 
ATOM      6  O   UNL     1       4.513   1.458  18.157  0.00  0.00    +0.000 OA
ATOM      7  C   UNL     1       4.852   4.947  17.621  0.00  0.00    +0.000 A 
ENDROOT
BRANCH   5   8
ATOM      8  C   UNL     1       2.742   2.797  18.856  0.00  0.00    +0.000 A 
ATOM      9  C   UNL     1       1.556   3.065  18.161  0.00  0.00    +0.000 A 
ATOM     10  C   UNL     1       0.356   3.207  18.860  0.00  0.00    +0.000 A 
ATOM     11  C   UNL     1       0.332   3.056  20.247  0.00  0.00    +0.000 A 
ATOM     12  C   UNL     1       1.507   2.775  20.942  0.00  0.00    +0.000 A 
ATOM     13  C   UNL     1       2.712   2.645  20.250  0.00  0.00    +0.000 A 
ENDBRANCH   5   8
BRANCH   1  15
ATOM     14  C   UNL     1       7.003   7.401  17.211  0.00  0.00    +0.000 C 
ATOM     15  C   UNL     1       6.072   6.792  16.177  0.00  0.00    +0.000 C 
ENDBRANCH   1  15
BRANCH   3  16
ATOM     16  O   UNL     1       5.532   2.144  15.633  0.00  0.00    +0.000 OA
ATOM     17  H   UNL     1       6.458   2.169  15.336  0.00  0.00    +0.000 HD
ENDBRANCH   3  16
BRANCH   7  18
ATOM     18  C   UNL     1       4.480   5.574  18.881  0.00  0.00    +0.000 C 
ATOM     19  O   UNL     1       5.179   5.480  19.888  0.00  0.00    +0.000 OA
BRANCH  18  20
ATOM     20  C   UNL     1       3.316   6.480  19.006  0.00  0.00    +0.000 A 
ATOM     21  C   UNL     1       2.534   6.343  20.159  0.00  0.00    +0.000 A 
ATOM     22  C   UNL     1       1.579   7.305  20.477  0.00  0.00    +0.000 A 
ATOM     23  C   UNL     1       1.390   8.412  19.641  0.00  0.00    +0.000 A 
ATOM     24  C   UNL     1       2.089   8.482  18.427  0.00  0.00    +0.000 A 
ATOM     25  C   UNL     1       3.027   7.496  18.091  0.00  0.00    +0.000 A 
BRANCH  23  26
ATOM     26  N   UNL     1       0.560   9.478  20.094  0.00  0.00    +0.000 N 
ATOM     27  C   UNL     1      -0.123  10.345  19.263  0.00  0.00    +0.000 A 
ATOM     28  C   UNL     1      -0.885  11.143  20.074  0.00  0.00    +0.000 A 
ATOM     29  N   UNL     1      -0.672  10.830  21.382  0.00  0.00    +0.000 NA
ATOM     30  C   UNL     1       0.218   9.855  21.387  0.00  0.00    +0.000 A 
ATOM     31  C   UNL     1       0.849   9.336  22.627  0.00  0.00    +0.000 C 
ENDBRANCH  23  26
ENDBRANCH  18  20
ENDBRANCH   7  18
TORSDOF 6
ENDMDL
MODEL 7
REMARK VINA RESULT:      -7.1      0.831      1.279
REMARK  Name = 
REMARK  8 active torsions:
REMARK  status: ('A' for Active; 'I' for Inactive)
REMARK    1  A    between atoms: C_1  and  C_2
REMARK    2  A    between atoms: C_2  and  C_3
REMARK    3  A    between atoms: C_5  and  O_6
REMARK    4  A    between atoms: C_8  and  C_10
REMARK    5  A    between atoms: C_16  and  C_17
REMARK    6  A    between atoms: C_17  and  C_19
REMARK    7  A    between atoms: C_22  and  N_23
REMARK    8  A    between atoms: C_27  and  C_28
REMARK                            x       y       z     vdW  Elec       q    Type
REMARK                         _______ _______ _______ _____ _____    ______ ____
ROOT
ATOM      1  C   UNL     1       1.899   3.595  19.362  0.00  0.00    +0.000 A 
ATOM      2  N   UNL     1       1.784   2.649  18.375  0.00  0.00    +0.000 NA
ATOM      3  C   UNL     1       2.575   3.051  17.419  0.00  0.00    +0.000 A 
ATOM      4  N   UNL     1       3.310   4.169  17.746  0.00  0.00    +0.000 N 
ATOM      5  C   UNL     1       4.307   4.744  16.933  0.00  0.00    +0.000 C 
ATOM      6  O   UNL     1       4.144   4.683  15.714  0.00  0.00    +0.000 OA
ATOM      7  C   UNL     1       2.835   4.576  19.009  0.00  0.00    +0.000 A 
ENDROOT
BRANCH   5   8
ATOM      8  C   UNL     1       5.571   5.358  17.425  0.00  0.00    +0.000 A 
ATOM      9  C   UNL     1       6.517   4.605  18.133  0.00  0.00    +0.000 A 
ATOM     10  C   UNL     1       7.714   5.196  18.539  0.00  0.00    +0.000 A 
ATOM     11  C   UNL     1       7.982   6.527  18.219  0.00  0.00    +0.000 A 
ATOM     12  C   UNL     1       7.050   7.277  17.503  0.00  0.00    +0.000 A 
ATOM     13  C   UNL     1       5.846   6.695  17.105  0.00  0.00    +0.000 A 
ENDBRANCH   5   8
BRANCH   1  15
ATOM     14  C   UNL     1       1.637   2.804  21.771  0.00  0.00    +0.000 C 
ATOM     15  C   UNL     1       1.007   3.470  20.561  0.00  0.00    +0.000 C 
ENDBRANCH   1  15
BRANCH   3  16
ATOM     16  O   UNL     1       2.682   2.360  16.301  0.00  0.00    +0.000 OA
ATOM     17  H   UNL     1       1.964   2.731  15.760  0.00  0.00    +0.000 HD
ENDBRANCH   3  16
BRANCH   7  18
ATOM     18  C   UNL     1       3.179   5.858  19.608  0.00  0.00    +0.000 C 
ATOM     19  O   UNL     1       4.257   6.048  20.169  0.00  0.00    +0.000 OA
BRANCH  18  20
ATOM     20  C   UNL     1       2.324   7.058  19.466  0.00  0.00    +0.000 A 
ATOM     21  C   UNL     1       1.650   7.489  20.615  0.00  0.00    +0.000 A 
ATOM     22  C   UNL     1       1.029   8.735  20.638  0.00  0.00    +0.000 A 
ATOM     23  C   UNL     1       1.069   9.561  19.509  0.00  0.00    +0.000 A 
ATOM     24  C   UNL     1       1.639   9.076  18.323  0.00  0.00    +0.000 A 
ATOM     25  C   UNL     1       2.235   7.807  18.291  0.00  0.00    +0.000 A 
BRANCH  23  26
ATOM     26  N   UNL     1       0.609  10.905  19.627  0.00  0.00    +0.000 N 
ATOM     27  C   UNL     1       0.880  11.908  18.718  0.00  0.00    +0.000 A 
ATOM     28  C   UNL     1       0.175  13.008  19.127  0.00  0.00    +0.000 A 
ATOM     29  N   UNL     1      -0.496  12.737  20.281  0.00  0.00    +0.000 NA
ATOM     30  C   UNL     1      -0.206  11.487  20.592  0.00  0.00    +0.000 A 
ATOM     31  C   UNL     1      -0.605  10.853  21.873  0.00  0.00    +0.000 C 
ENDBRANCH  23  26
ENDBRANCH  18  20
ENDBRANCH   7  18
TORSDOF 6
ENDMDL
MODEL 8
REMARK VINA RESULT:      -7.0      7.332      9.538
REMARK  Name = 
REMARK  8 active torsions:
REMARK  status: ('A' for Active; 'I' for Inactive)
REMARK    1  A    between atoms: C_1  and  C_2
REMARK    2  A    between atoms: C_2  and  C_3
REMARK    3  A    between atoms: C_5  and  O_6
REMARK    4  A    between atoms: C_8  and  C_10
REMARK    5  A    between atoms: C_16  and  C_17
REMARK    6  A    between atoms: C_17  and  C_19
REMARK    7  A    between atoms: C_22  and  N_23
REMARK    8  A    between atoms: C_27  and  C_28
REMARK                            x       y       z     vdW  Elec       q    Type
REMARK                         _______ _______ _______ _____ _____    ______ ____
ROOT
ATOM      1  C   UNL     1      -3.239  11.428  17.299  0.00  0.00    +0.000 A 
ATOM      2  N   UNL     1      -4.587  11.685  17.285  0.00  0.00    +0.000 NA
ATOM      3  C   UNL     1      -4.886  12.014  18.511  0.00  0.00    +0.000 A 
ATOM      4  N   UNL     1      -3.791  12.100  19.341  0.00  0.00    +0.000 N 
ATOM      5  C   UNL     1      -3.828  12.533  20.682  0.00  0.00    +0.000 C 
ATOM      6  O   UNL     1      -4.836  12.260  21.334  0.00  0.00    +0.000 OA
ATOM      7  C   UNL     1      -2.697  11.662  18.569  0.00  0.00    +0.000 A 
ENDROOT
BRANCH   5   8
ATOM      8  C   UNL     1      -2.779  13.350  21.352  0.00  0.00    +0.000 A 
ATOM      9  C   UNL     1      -2.546  14.680  20.979  0.00  0.00    +0.000 A 
ATOM     10  C   UNL     1      -1.590  15.436  21.659  0.00  0.00    +0.000 A 
ATOM     11  C   UNL     1      -0.884  14.877  22.726  0.00  0.00    +0.000 A 
ATOM     12  C   UNL     1      -1.123  13.558  23.110  0.00  0.00    +0.000 A 
ATOM     13  C   UNL     1      -2.069  12.794  22.425  0.00  0.00    +0.000 A 
ENDBRANCH   5   8
BRANCH   1  15
ATOM     14  C   UNL     1      -3.570  10.238  15.069  0.00  0.00    +0.000 C 
ATOM     15  C   UNL     1      -2.612  10.903  16.041  0.00  0.00    +0.000 C 
ENDBRANCH   1  15
BRANCH   3  16
ATOM     16  O   UNL     1      -6.128  12.309  18.842  0.00  0.00    +0.000 OA
ATOM     17  H   UNL     1      -6.624  12.023  18.055  0.00  0.00    +0.000 HD
ENDBRANCH   3  16
BRANCH   7  18
ATOM     18  C   UNL     1      -1.390  11.371  19.142  0.00  0.00    +0.000 C 
ATOM     19  O   UNL     1      -1.080  10.242  19.519  0.00  0.00    +0.000 OA
BRANCH  18  20
ATOM     20  C   UNL     1      -0.299  12.370  19.184  0.00  0.00    +0.000 A 
ATOM     21  C   UNL     1      -0.449  13.499  18.369  0.00  0.00    +0.000 A 
ATOM     22  C   UNL     1       0.394  14.595  18.528  0.00  0.00    +0.000 A 
ATOM     23  C   UNL     1       1.402  14.573  19.498  0.00  0.00    +0.000 A 
ATOM     24  C   UNL     1       1.626  13.396  20.228  0.00  0.00    +0.000 A 
ATOM     25  C   UNL     1       0.798  12.280  20.044  0.00  0.00    +0.000 A 
BRANCH  23  26
ATOM     26  N   UNL     1       2.111  15.777  19.778  0.00  0.00    +0.000 N 
ATOM     27  C   UNL     1       1.927  16.548  20.909  0.00  0.00    +0.000 A 
ATOM     28  C   UNL     1       2.864  17.546  20.859  0.00  0.00    +0.000 A 
ATOM     29  N   UNL     1       3.599  17.446  19.717  0.00  0.00    +0.000 NA
ATOM     30  C   UNL     1       3.122  16.404  19.060  0.00  0.00    +0.000 A 
ATOM     31  C   UNL     1       3.542  16.050  17.681  0.00  0.00    +0.000 C 
ENDBRANCH  23  26
ENDBRANCH  18  20
ENDBRANCH   7  18
TORSDOF 6
ENDMDL
MODEL 9
REMARK VINA RESULT:      -7.0      1.653      2.339
REMARK  Name = 
REMARK  8 active torsions:
REMARK  status: ('A' for Active; 'I' for Inactive)
REMARK    1  A    between atoms: C_1  and  C_2
REMARK    2  A    between atoms: C_2  and  C_3
REMARK    3  A    between atoms: C_5  and  O_6
REMARK    4  A    between atoms: C_8  and  C_10
REMARK    5  A    between atoms: C_16  and  C_17
REMARK    6  A    between atoms: C_17  and  C_19
REMARK    7  A    between atoms: C_22  and  N_23
REMARK    8  A    between atoms: C_27  and  C_28
REMARK                            x       y       z     vdW  Elec       q    Type
REMARK                         _______ _______ _______ _____ _____    ______ ____
ROOT
ATOM      1  C   UNL     1       2.250   3.745  18.530  0.00  0.00    +0.000 A 
ATOM      2  N   UNL     1       2.634   2.443  18.325  0.00  0.00    +0.000 NA
ATOM      3  C   UNL     1       3.781   2.516  17.709  0.00  0.00    +0.000 A 
ATOM      4  N   UNL     1       4.256   3.802  17.579  0.00  0.00    +0.000 N 
ATOM      5  C   UNL     1       5.514   4.146  17.045  0.00  0.00    +0.000 C 
ATOM      6  O   UNL     1       5.956   3.436  16.142  0.00  0.00    +0.000 OA
ATOM      7  C   UNL     1       3.230   4.634  18.068  0.00  0.00    +0.000 A 
ENDROOT
BRANCH   5   8
ATOM      8  C   UNL     1       6.380   5.257  17.529  0.00  0.00    +0.000 A 
ATOM      9  C   UNL     1       7.020   5.189  18.773  0.00  0.00    +0.000 A 
ATOM     10  C   UNL     1       7.865   6.224  19.179  0.00  0.00    +0.000 A 
ATOM     11  C   UNL     1       8.093   7.312  18.336  0.00  0.00    +0.000 A 
ATOM     12  C   UNL     1       7.470   7.377  17.091  0.00  0.00    +0.000 A 
ATOM     13  C   UNL     1       6.614   6.352  16.686  0.00  0.00    +0.000 A 
ENDBRANCH   5   8
BRANCH   1  15
ATOM     14  C   UNL     1       0.673   3.404  20.503  0.00  0.00    +0.000 C 
ATOM     15  C   UNL     1       0.894   3.992  19.120  0.00  0.00    +0.000 C 
ENDBRANCH   1  15
BRANCH   3  16
ATOM     16  O   UNL     1       4.419   1.420  17.348  0.00  0.00    +0.000 OA
ATOM     17  H   UNL     1       3.930   0.730  17.828  0.00  0.00    +0.000 HD
ENDBRANCH   3  16
BRANCH   7  18
ATOM     18  C   UNL     1       3.229   6.079  17.888  0.00  0.00    +0.000 C 
ATOM     19  O   UNL     1       3.579   6.606  16.833  0.00  0.00    +0.000 OA
BRANCH  18  20
ATOM     20  C   UNL     1       2.679   7.007  18.902  0.00  0.00    +0.000 A 
ATOM     21  C   UNL     1       2.363   8.300  18.465  0.00  0.00    +0.000 A 
ATOM     22  C   UNL     1       1.619   9.151  19.277  0.00  0.00    +0.000 A 
ATOM     23  C   UNL     1       1.189   8.723  20.538  0.00  0.00    +0.000 A 
ATOM     24  C   UNL     1       1.611   7.475  21.020  0.00  0.00    +0.000 A 
ATOM     25  C   UNL     1       2.388   6.631  20.215  0.00  0.00    +0.000 A 
BRANCH  23  26
ATOM     26  N   UNL     1       0.261   9.531  21.256  0.00  0.00    +0.000 N 
ATOM     27  C   UNL     1       0.134   9.544  22.632  0.00  0.00    +0.000 A 
ATOM     28  C   UNL     1      -0.775  10.523  22.932  0.00  0.00    +0.000 A 
ATOM     29  N   UNL     1      -1.250  11.093  21.790  0.00  0.00    +0.000 NA
ATOM     30  C   UNL     1      -0.649  10.474  20.790  0.00  0.00    +0.000 A 
ATOM     31  C   UNL     1      -1.011  10.685  19.366  0.00  0.00    +0.000 C 
ENDBRANCH  23  26
ENDBRANCH  18  20
ENDBRANCH   7  18
TORSDOF 6
ENDMDL
