MODEL 1
REMARK VINA RESULT:      -7.7      0.000      0.000
REMARK  Name = 
REMARK  5 active torsions:
REMARK  status: ('A' for Active; 'I' for Inactive)
REMARK    1  A    between atoms: C_2  and  C_21
REMARK    2  A    between atoms: N_3  and  C_4
REMARK    3  A    between atoms: C_4  and  C_5
REMARK    4  A    between atoms: N_11  and  C_12
REMARK    5  A    between atoms: C_12  and  C_13
REMARK                            x       y       z     vdW  Elec       q    Type
REMARK                         _______ _______ _______ _____ _____    ______ ____
ROOT
ATOM      1  C   UNL     1       6.871   5.975  16.298  0.00  0.00    +0.000 C 
ATOM      2  O   UNL     1       7.535   4.707  16.498  0.00  0.00    +0.000 OA
ATOM      3  C   UNL     1       7.530   4.255  17.861  0.00  0.00    +0.000 C 
ATOM      4  C   UNL     1       8.084   5.280  18.890  0.00  0.00    +0.000 C 
ATOM      5  C   UNL     1       7.982   6.680  18.437  0.00  0.00    +0.000 A 
ATOM      6  C   UNL     1       8.350   7.890  18.976  0.00  0.00    +0.000 A 
ATOM      7  N   UNL     1       8.046   8.840  18.038  0.00  0.00    +0.000 N 
ATOM      8  N   UNL     1       7.455   8.328  16.937  0.00  0.00    +0.000 NA
ATOM      9  C   UNL     1       7.438   7.019  17.182  0.00  0.00    +0.000 A 
ENDROOT
BRANCH   1  10
ATOM     10  C   UNL     1       5.344   5.866  16.469  0.00  0.00    +0.000 C 
BRANCH  10  13
ATOM     11  O   UNL     1       2.880   5.503  17.796  0.00  0.00    +0.000 OA
ATOM     12  C   UNL     1       3.392   6.615  17.847  0.00  0.00    +0.000 C 
ATOM     13  N   UNL     1       4.624   6.883  17.268  0.00  0.00    +0.000 N 
ATOM     14  H   UNL     1       5.024   7.809  17.310  0.00  0.00    +0.000 HD
BRANCH  12  15
ATOM     15  C   UNL     1       2.606   7.706  18.485  0.00  0.00    +0.000 A 
ATOM     16  C   UNL     1       2.186   7.510  19.810  0.00  0.00    +0.000 A 
ATOM     17  C   UNL     1       1.356   8.448  20.391  0.00  0.00    +0.000 A 
ATOM     18  N   UNL     1       0.927   9.555  19.751  0.00  0.00    +0.000 NA
ATOM     19  C   UNL     1       1.340   9.723  18.478  0.00  0.00    +0.000 A 
ATOM     20  C   UNL     1       2.176   8.839  17.803  0.00  0.00    +0.000 A 
ENDBRANCH  12  15
ENDBRANCH  10  13
ENDBRANCH   1  10
BRANCH   7  21
ATOM     21  C   UNL     1       8.320  10.264  18.121  0.00  0.00    +0.000 C 
BRANCH  21  22
ATOM     22  C   UNL     1       9.668  10.601  18.792  0.00  0.00    +0.000 C 
ATOM     23  C   UNL     1       9.456  11.249  20.171  0.00  0.00    +0.000 C 
ATOM     24  C   UNL     1      10.686  11.975  20.690  0.00  0.00    +0.000 C 
ATOM     25  O   UNL     1      11.174  12.887  19.708  0.00  0.00    +0.000 OA
ATOM     26  C   UNL     1      11.641  12.205  18.551  0.00  0.00    +0.000 C 
ATOM     27  C   UNL     1      10.490  11.498  17.850  0.00  0.00    +0.000 C 
ENDBRANCH  21  22
ENDBRANCH   7  21
TORSDOF 5
ENDMDL
MODEL 2
REMARK VINA RESULT:      -7.5      2.667      8.022
REMARK  Name = 
REMARK  5 active torsions:
REMARK  status: ('A' for Active; 'I' for Inactive)
REMARK    1  A    between atoms: C_2  and  C_21
REMARK    2  A    between atoms: N_3  and  C_4
REMARK    3  A    between atoms: C_4  and  C_5
REMARK    4  A    between atoms: N_11  and  C_12
REMARK    5  A    between atoms: C_12  and  C_13
REMARK                            x       y       z     vdW  Elec       q    Type
REMARK                         _______ _______ _______ _____ _____    ______ ____
ROOT
ATOM      1  C   UNL     1       7.200   5.812  18.591  0.00  0.00    +0.000 C 
ATOM      2  O   UNL     1       7.872   4.653  18.048  0.00  0.00    +0.000 OA
ATOM      3  C   UNL     1       7.480   4.328  16.705  0.00  0.00    +0.000 C 
ATOM      4  C   UNL     1       5.948   4.165  16.493  0.00  0.00    +0.000 C 
ATOM      5  C   UNL     1       5.138   4.901  17.483  0.00  0.00    +0.000 A 
ATOM      6  C   UNL     1       3.788   5.033  17.705  0.00  0.00    +0.000 A 
ATOM      7  N   UNL     1       3.655   5.807  18.828  0.00  0.00    +0.000 N 
ATOM      8  N   UNL     1       4.838   6.230  19.324  0.00  0.00    +0.000 NA
ATOM      9  C   UNL     1       5.729   5.660  18.512  0.00  0.00    +0.000 A 
ENDROOT
BRANCH   1  10
ATOM     10  C   UNL     1       7.663   7.120  17.922  0.00  0.00    +0.000 C 
BRANCH  10  13
ATOM     11  O   UNL     1       7.791   9.906  17.492  0.00  0.00    +0.000 OA
ATOM     12  C   UNL     1       8.500   9.437  18.374  0.00  0.00    +0.000 C 
ATOM     13  N   UNL     1       8.475   8.088  18.695  0.00  0.00    +0.000 N 
ATOM     14  H   UNL     1       9.076   7.717  19.417  0.00  0.00    +0.000 HD
BRANCH  12  15
ATOM     15  C   UNL     1       9.462  10.354  19.044  0.00  0.00    +0.000 A 
ATOM     16  C   UNL     1       9.215  10.682  20.386  0.00  0.00    +0.000 A 
ATOM     17  C   UNL     1      10.019  11.620  21.001  0.00  0.00    +0.000 A 
ATOM     18  N   UNL     1      11.041  12.242  20.378  0.00  0.00    +0.000 NA
ATOM     19  C   UNL     1      11.260  11.915  19.088  0.00  0.00    +0.000 A 
ATOM     20  C   UNL     1      10.509  10.982  18.379  0.00  0.00    +0.000 A 
ENDBRANCH  12  15
ENDBRANCH  10  13
ENDBRANCH   1  10
BRANCH   7  21
ATOM     21  C   UNL     1       2.417   6.161  19.498  0.00  0.00    +0.000 C 
BRANCH  21  22
ATOM     22  C   UNL     1       1.653   4.952  20.076  0.00  0.00    +0.000 C 
ATOM     23  C   UNL     1       2.471   4.250  21.174  0.00  0.00    +0.000 C 
ATOM     24  C   UNL     1       1.983   2.844  21.482  0.00  0.00    +0.000 C 
ATOM     25  O   UNL     1       1.881   2.081  20.282  0.00  0.00    +0.000 OA
ATOM     26  C   UNL     1       0.884   2.608  19.414  0.00  0.00    +0.000 C 
ATOM     27  C   UNL     1       1.280   3.995  18.931  0.00  0.00    +0.000 C 
ENDBRANCH  21  22
ENDBRANCH   7  21
TORSDOF 5
ENDMDL
MODEL 3
REMARK VINA RESULT:      -7.5      2.253      2.854
REMARK  Name = 
REMARK  5 active torsions:
REMARK  status: ('A' for Active; 'I' for Inactive)
REMARK    1  A    between atoms: C_2  and  C_21
REMARK    2  A    between atoms: N_3  and  C_4
REMARK    3  A    between atoms: C_4  and  C_5
REMARK    4  A    between atoms: N_11  and  C_12
REMARK    5  A    between atoms: C_12  and  C_13
REMARK                            x       y       z     vdW  Elec       q    Type
REMARK                         _______ _______ _______ _____ _____    ______ ____
ROOT
ATOM      1  C   UNL     1       6.158   6.618  16.671  0.00  0.00    +0.000 C 
ATOM      2  O   UNL     1       6.540   5.226  16.748  0.00  0.00    +0.000 OA
ATOM      3  C   UNL     1       6.739   4.749  18.088  0.00  0.00    +0.000 C 
ATOM      4  C   UNL     1       7.733   5.591  18.938  0.00  0.00    +0.000 C 
ATOM      5  C   UNL     1       7.856   6.989  18.483  0.00  0.00    +0.000 A 
ATOM      6  C   UNL     1       8.606   8.066  18.894  0.00  0.00    +0.000 A 
ATOM      7  N   UNL     1       8.325   9.086  18.024  0.00  0.00    +0.000 N 
ATOM      8  N   UNL     1       7.398   8.755  17.100  0.00  0.00    +0.000 NA
ATOM      9  C   UNL     1       7.135   7.478  17.376  0.00  0.00    +0.000 A 
ENDROOT
BRANCH   1  10
ATOM     10  C   UNL     1       4.727   6.859  17.186  0.00  0.00    +0.000 C 
BRANCH  10  13
ATOM     11  O   UNL     1       2.769   6.839  19.218  0.00  0.00    +0.000 OA
ATOM     12  C   UNL     1       2.981   5.787  18.626  0.00  0.00    +0.000 C 
ATOM     13  N   UNL     1       3.889   5.704  17.581  0.00  0.00    +0.000 N 
ATOM     14  H   UNL     1       4.059   4.825  17.114  0.00  0.00    +0.000 HD
BRANCH  12  15
ATOM     15  C   UNL     1       2.288   4.567  19.123  0.00  0.00    +0.000 A 
ATOM     16  C   UNL     1       1.894   3.615  18.171  0.00  0.00    +0.000 A 
ATOM     17  C   UNL     1       1.146   2.530  18.583  0.00  0.00    +0.000 A 
ATOM     18  N   UNL     1       0.774   2.332  19.865  0.00  0.00    +0.000 NA
ATOM     19  C   UNL     1       1.161   3.260  20.763  0.00  0.00    +0.000 A 
ATOM     20  C   UNL     1       1.916   4.385  20.450  0.00  0.00    +0.000 A 
ENDBRANCH  12  15
ENDBRANCH  10  13
ENDBRANCH   1  10
BRANCH   7  21
ATOM     21  C   UNL     1       8.931  10.405  18.007  0.00  0.00    +0.000 C 
BRANCH  21  22
ATOM     22  C   UNL     1       9.846  10.687  19.217  0.00  0.00    +0.000 C 
ATOM     23  C   UNL     1       9.134  11.562  20.261  0.00  0.00    +0.000 C 
ATOM     24  C   UNL     1      10.085  12.215  21.250  0.00  0.00    +0.000 C 
ATOM     25  O   UNL     1      11.126  12.900  20.557  0.00  0.00    +0.000 OA
ATOM     26  C   UNL     1      11.951  11.996  19.832  0.00  0.00    +0.000 C 
ATOM     27  C   UNL     1      11.156  11.325  18.722  0.00  0.00    +0.000 C 
ENDBRANCH  21  22
ENDBRANCH   7  21
TORSDOF 5
ENDMDL
MODEL 4
REMARK VINA RESULT:      -7.5      4.144      7.308
REMARK  Name = 
REMARK  5 active torsions:
REMARK  status: ('A' for Active; 'I' for Inactive)
REMARK    1  A    between atoms: C_2  and  C_21
REMARK    2  A    between atoms: N_3  and  C_4
REMARK    3  A    between atoms: C_4  and  C_5
REMARK    4  A    between atoms: N_11  and  C_12
REMARK    5  A    between atoms: C_12  and  C_13
REMARK                            x       y       z     vdW  Elec       q    Type
REMARK                         _______ _______ _______ _____ _____    ______ ____
ROOT
ATOM      1  C   UNL     1       3.075   3.462  20.530  0.00  0.00    +0.000 C 
ATOM      2  O   UNL     1       2.015   2.490  20.673  0.00  0.00    +0.000 OA
ATOM      3  C   UNL     1       1.551   1.946  19.427  0.00  0.00    +0.000 C 
ATOM      4  C   UNL     1       1.124   3.005  18.371  0.00  0.00    +0.000 C 
ATOM      5  C   UNL     1       1.771   4.317  18.561  0.00  0.00    +0.000 A 
ATOM      6  C   UNL     1       1.689   5.527  17.913  0.00  0.00    +0.000 A 
ATOM      7  N   UNL     1       2.494   6.391  18.607  0.00  0.00    +0.000 N 
ATOM      8  N   UNL     1       3.136   5.806  19.641  0.00  0.00    +0.000 NA
ATOM      9  C   UNL     1       2.676   4.555  19.614  0.00  0.00    +0.000 A 
ENDROOT
BRANCH   1  10
ATOM     10  C   UNL     1       4.401   2.816  20.087  0.00  0.00    +0.000 C 
BRANCH  10  13
ATOM     11  O   UNL     1       6.269   4.903  19.744  0.00  0.00    +0.000 OA
ATOM     12  C   UNL     1       5.903   4.302  18.741  0.00  0.00    +0.000 C 
ATOM     13  N   UNL     1       5.024   3.231  18.809  0.00  0.00    +0.000 N 
ATOM     14  H   UNL     1       4.723   2.756  17.970  0.00  0.00    +0.000 HD
BRANCH  12  15
ATOM     15  C   UNL     1       6.369   4.813  17.424  0.00  0.00    +0.000 A 
ATOM     16  C   UNL     1       6.203   3.976  16.310  0.00  0.00    +0.000 A 
ATOM     17  C   UNL     1       6.730   4.369  15.096  0.00  0.00    +0.000 A 
ATOM     18  N   UNL     1       7.398   5.528  14.919  0.00  0.00    +0.000 NA
ATOM     19  C   UNL     1       7.548   6.317  16.003  0.00  0.00    +0.000 A 
ATOM     20  C   UNL     1       7.055   6.012  17.267  0.00  0.00    +0.000 A 
ENDBRANCH  12  15
ENDBRANCH  10  13
ENDBRANCH   1  10
BRANCH   7  21
ATOM     21  C   UNL     1       2.675   7.809  18.347  0.00  0.00    +0.000 C 
BRANCH  21  22
ATOM     22  C   UNL     1       1.468   8.677  18.756  0.00  0.00    +0.000 C 
ATOM     23  C   UNL     1       1.621  10.119  18.243  0.00  0.00    +0.000 C 
ATOM     24  C   UNL     1       0.707  11.109  18.947  0.00  0.00    +0.000 C 
ATOM     25  O   UNL     1       0.852  10.996  20.361  0.00  0.00    +0.000 OA
ATOM     26  C   UNL     1       0.410   9.728  20.830  0.00  0.00    +0.000 C 
ATOM     27  C   UNL     1       1.299   8.621  20.284  0.00  0.00    +0.000 C 
ENDBRANCH  21  22
ENDBRANCH   7  21
TORSDOF 5
ENDMDL
MODEL 5
REMARK VINA RESULT:      -7.4      2.032      7.206
REMARK  Name = 
REMARK  5 active torsions:
REMARK  status: ('A' for Active; 'I' for Inactive)
REMARK    1  A    between atoms: C_2  and  C_21
REMARK    2  A    between atoms: N_3  and  C_4
REMARK    3  A    between atoms: C_4  and  C_5
REMARK    4  A    between atoms: N_11  and  C_12
REMARK    5  A    between atoms: C_12  and  C_13
REMARK                            x       y       z     vdW  Elec       q    Type
REMARK                         _______ _______ _______ _____ _____    ______ ____
ROOT
ATOM      1  C   UNL     1       7.129   5.951  18.076  0.00  0.00    +0.000 C 
ATOM      2  O   UNL     1       7.755   4.883  17.330  0.00  0.00    +0.000 OA
ATOM      3  C   UNL     1       7.233   4.715  16.003  0.00  0.00    +0.000 C 
ATOM      4  C   UNL     1       5.689   4.544  15.926  0.00  0.00    +0.000 C 
ATOM      5  C   UNL     1       4.976   5.135  17.075  0.00  0.00    +0.000 A 
ATOM      6  C   UNL     1       3.653   5.208  17.445  0.00  0.00    +0.000 A 
ATOM      7  N   UNL     1       3.628   5.835  18.662  0.00  0.00    +0.000 N 
ATOM      8  N   UNL     1       4.850   6.222  19.086  0.00  0.00    +0.000 NA
ATOM      9  C   UNL     1       5.660   5.776  18.126  0.00  0.00    +0.000 A 
ENDROOT
BRANCH   1  10
ATOM     10  C   UNL     1       7.509   7.341  17.532  0.00  0.00    +0.000 C 
BRANCH  10  13
ATOM     11  O   UNL     1       7.590  10.160  17.437  0.00  0.00    +0.000 OA
ATOM     12  C   UNL     1       8.391   9.596  18.172  0.00  0.00    +0.000 C 
ATOM     13  N   UNL     1       8.401   8.218  18.325  0.00  0.00    +0.000 N 
ATOM     14  H   UNL     1       9.078   7.769  18.926  0.00  0.00    +0.000 HD
BRANCH  12  15
ATOM     15  C   UNL     1       9.422  10.437  18.840  0.00  0.00    +0.000 A 
ATOM     16  C   UNL     1       9.246  10.711  20.205  0.00  0.00    +0.000 A 
ATOM     17  C   UNL     1      10.117  11.583  20.827  0.00  0.00    +0.000 A 
ATOM     18  N   UNL     1      11.141  12.187  20.189  0.00  0.00    +0.000 NA
ATOM     19  C   UNL     1      11.291  11.912  18.877  0.00  0.00    +0.000 A 
ATOM     20  C   UNL     1      10.469  11.048  18.160  0.00  0.00    +0.000 A 
ENDBRANCH  12  15
ENDBRANCH  10  13
ENDBRANCH   1  10
BRANCH   7  21
ATOM     21  C   UNL     1       2.460   6.076  19.491  0.00  0.00    +0.000 C 
BRANCH  21  22
ATOM     22  C   UNL     1       2.255   7.559  19.862  0.00  0.00    +0.000 C 
ATOM     23  C   UNL     1       1.195   7.715  20.966  0.00  0.00    +0.000 C 
ATOM     24  C   UNL     1       0.647   9.128  21.081  0.00  0.00    +0.000 C 
ATOM     25  O   UNL     1       0.206   9.592  19.807  0.00  0.00    +0.000 OA
ATOM     26  C   UNL     1       1.290   9.717  18.895  0.00  0.00    +0.000 C 
ATOM     27  C   UNL     1       1.892   8.352  18.595  0.00  0.00    +0.000 C 
ENDBRANCH  21  22
ENDBRANCH   7  21
TORSDOF 5
ENDMDL
MODEL 6
REMARK VINA RESULT:      -7.4      4.670      6.692
REMARK  Name = 
REMARK  5 active torsions:
REMARK  status: ('A' for Active; 'I' for Inactive)
REMARK    1  A    between atoms: C_2  and  C_21
REMARK    2  A    between atoms: N_3  and  C_4
REMARK    3  A    between atoms: C_4  and  C_5
REMARK    4  A    between atoms: N_11  and  C_12
REMARK    5  A    between atoms: C_12  and  C_13
REMARK                            x       y       z     vdW  Elec       q    Type
REMARK                         _______ _______ _______ _____ _____    ______ ____
ROOT
ATOM      1  C   UNL     1       1.558   4.752  19.893  0.00  0.00    +0.000 C 
ATOM      2  O   UNL     1       0.930   3.965  20.931  0.00  0.00    +0.000 OA
ATOM      3  C   UNL     1       1.859   3.337  21.829  0.00  0.00    +0.000 C 
ATOM      4  C   UNL     1       2.954   2.476  21.138  0.00  0.00    +0.000 C 
ATOM      5  C   UNL     1       3.227   2.880  19.746  0.00  0.00    +0.000 A 
ATOM      6  C   UNL     1       4.065   2.413  18.761  0.00  0.00    +0.000 A 
ATOM      7  N   UNL     1       3.815   3.173  17.650  0.00  0.00    +0.000 N 
ATOM      8  N   UNL     1       2.899   4.142  17.863  0.00  0.00    +0.000 NA
ATOM      9  C   UNL     1       2.537   3.943  19.130  0.00  0.00    +0.000 A 
ENDROOT
BRANCH   1  10
ATOM     10  C   UNL     1       2.204   6.035  20.446  0.00  0.00    +0.000 C 
BRANCH  10  13
ATOM     11  O   UNL     1       1.713   8.647  19.498  0.00  0.00    +0.000 OA
ATOM     12  C   UNL     1       1.212   8.332  20.571  0.00  0.00    +0.000 C 
ATOM     13  N   UNL     1       1.355   7.058  21.100  0.00  0.00    +0.000 N 
ATOM     14  H   UNL     1       0.946   6.819  21.992  0.00  0.00    +0.000 HD
BRANCH  12  15
ATOM     15  C   UNL     1       0.508   9.393  21.340  0.00  0.00    +0.000 A 
ATOM     16  C   UNL     1       0.665  10.718  20.906  0.00  0.00    +0.000 A 
ATOM     17  C   UNL     1       0.123  11.736  21.665  0.00  0.00    +0.000 A 
ATOM     18  N   UNL     1      -0.560  11.525  22.809  0.00  0.00    +0.000 NA
ATOM     19  C   UNL     1      -0.697  10.244  23.209  0.00  0.00    +0.000 A 
ATOM     20  C   UNL     1      -0.191   9.149  22.517  0.00  0.00    +0.000 A 
ENDBRANCH  12  15
ENDBRANCH  10  13
ENDBRANCH   1  10
BRANCH   7  21
ATOM     21  C   UNL     1       4.406   3.008  16.333  0.00  0.00    +0.000 C 
BRANCH  21  22
ATOM     22  C   UNL     1       5.079   4.284  15.787  0.00  0.00    +0.000 C 
ATOM     23  C   UNL     1       5.889   3.984  14.514  0.00  0.00    +0.000 C 
ATOM     24  C   UNL     1       6.895   5.070  14.171  0.00  0.00    +0.000 C 
ATOM     25  O   UNL     1       7.712   5.364  15.302  0.00  0.00    +0.000 OA
ATOM     26  C   UNL     1       6.949   5.925  16.363  0.00  0.00    +0.000 C 
ATOM     27  C   UNL     1       5.947   4.910  16.892  0.00  0.00    +0.000 C 
ENDBRANCH  21  22
ENDBRANCH   7  21
TORSDOF 5
ENDMDL
MODEL 7
REMARK VINA RESULT:      -7.3      2.099      2.755
REMARK  Name = 
REMARK  5 active torsions:
REMARK  status: ('A' for Active; 'I' for Inactive)
REMARK    1  A    between atoms: C_2  and  C_21
REMARK    2  A    between atoms: N_3  and  C_4
REMARK    3  A    between atoms: C_4  and  C_5
REMARK    4  A    between atoms: N_11  and  C_12
REMARK    5  A    between atoms: C_12  and  C_13
REMARK                            x       y       z     vdW  Elec       q    Type
REMARK                         _______ _______ _______ _____ _____    ______ ____
ROOT
ATOM      1  C   UNL     1       6.841   6.162  16.356  0.00  0.00    +0.000 C 
ATOM      2  O   UNL     1       7.443   4.863  16.557  0.00  0.00    +0.000 OA
ATOM      3  C   UNL     1       7.439   4.423  17.924  0.00  0.00    +0.000 C 
ATOM      4  C   UNL     1       8.064   5.427  18.933  0.00  0.00    +0.000 C 
ATOM      5  C   UNL     1       8.026   6.827  18.469  0.00  0.00    +0.000 A 
ATOM      6  C   UNL     1       8.467   8.020  18.990  0.00  0.00    +0.000 A 
ATOM      7  N   UNL     1       8.195   8.977  18.048  0.00  0.00    +0.000 N 
ATOM      8  N   UNL     1       7.558   8.487  16.963  0.00  0.00    +0.000 NA
ATOM      9  C   UNL     1       7.478   7.182  17.221  0.00  0.00    +0.000 A 
ENDROOT
BRANCH   1  10
ATOM     10  C   UNL     1       5.315   6.134  16.556  0.00  0.00    +0.000 C 
BRANCH  10  13
ATOM     11  O   UNL     1       3.470   6.767  18.595  0.00  0.00    +0.000 OA
ATOM     12  C   UNL     1       3.853   5.605  18.519  0.00  0.00    +0.000 C 
ATOM     13  N   UNL     1       4.721   5.183  17.524  0.00  0.00    +0.000 N 
ATOM     14  H   UNL     1       5.036   4.224  17.485  0.00  0.00    +0.000 HD
BRANCH  12  15
ATOM     15  C   UNL     1       3.418   4.667  19.589  0.00  0.00    +0.000 A 
ATOM     16  C   UNL     1       4.012   3.395  19.614  0.00  0.00    +0.000 A 
ATOM     17  C   UNL     1       3.548   2.461  20.518  0.00  0.00    +0.000 A 
ATOM     18  N   UNL     1       2.549   2.707  21.391  0.00  0.00    +0.000 NA
ATOM     19  C   UNL     1       1.991   3.934  21.349  0.00  0.00    +0.000 A 
ATOM     20  C   UNL     1       2.386   4.945  20.479  0.00  0.00    +0.000 A 
ENDBRANCH  12  15
ENDBRANCH  10  13
ENDBRANCH   1  10
BRANCH   7  21
ATOM     21  C   UNL     1       8.543  10.385  18.114  0.00  0.00    +0.000 C 
BRANCH  21  22
ATOM     22  C   UNL     1       9.778  10.681  18.989  0.00  0.00    +0.000 C 
ATOM     23  C   UNL     1       9.382  11.424  20.277  0.00  0.00    +0.000 C 
ATOM     24  C   UNL     1      10.554  12.106  20.964  0.00  0.00    +0.000 C 
ATOM     25  O   UNL     1      11.263  12.925  20.037  0.00  0.00    +0.000 OA
ATOM     26  C   UNL     1      11.870  12.146  19.014  0.00  0.00    +0.000 C 
ATOM     27  C   UNL     1      10.809  11.468  18.161  0.00  0.00    +0.000 C 
ENDBRANCH  21  22
ENDBRANCH   7  21
TORSDOF 5
ENDMDL
MODEL 8
REMARK VINA RESULT:      -7.3      3.770      5.830
REMARK  Name = 
REMARK  5 active torsions:
REMARK  status: ('A' for Active; 'I' for Inactive)
REMARK    1  A    between atoms: C_2  and  C_21
REMARK    2  A    between atoms: N_3  and  C_4
REMARK    3  A    between atoms: C_4  and  C_5
REMARK    4  A    between atoms: N_11  and  C_12
REMARK    5  A    between atoms: C_12  and  C_13
REMARK                            x       y       z     vdW  Elec       q    Type
REMARK                         _______ _______ _______ _____ _____    ______ ____
ROOT
ATOM      1  C   UNL     1       1.662   4.990  19.316  0.00  0.00    +0.000 C 
ATOM      2  O   UNL     1       0.662   4.026  19.718  0.00  0.00    +0.000 OA
ATOM      3  C   UNL     1       1.200   2.870  20.380  0.00  0.00    +0.000 C 
ATOM      4  C   UNL     1       2.323   2.133  19.597  0.00  0.00    +0.000 C 
ATOM      5  C   UNL     1       3.038   3.000  18.641  0.00  0.00    +0.000 A 
ATOM      6  C   UNL     1       4.056   2.795  17.740  0.00  0.00    +0.000 A 
ATOM      7  N   UNL     1       4.241   3.986  17.090  0.00  0.00    +0.000 N 
ATOM      8  N   UNL     1       3.439   4.972  17.547  0.00  0.00    +0.000 NA
ATOM      9  C   UNL     1       2.703   4.358  18.474  0.00  0.00    +0.000 A 
ENDROOT
BRANCH   1  10
ATOM     10  C   UNL     1       2.284   5.719  20.521  0.00  0.00    +0.000 C 
BRANCH  10  13
ATOM     11  O   UNL     1       1.898   8.302  19.452  0.00  0.00    +0.000 OA
ATOM     12  C   UNL     1       1.450   8.080  20.571  0.00  0.00    +0.000 C 
ATOM     13  N   UNL     1       1.546   6.830  21.164  0.00  0.00    +0.000 N 
ATOM     14  H   UNL     1       1.182   6.670  22.093  0.00  0.00    +0.000 HD
BRANCH  12  15
ATOM     15  C   UNL     1       0.866   9.227  21.318  0.00  0.00    +0.000 A 
ATOM     16  C   UNL     1       0.214   8.945  22.528  0.00  0.00    +0.000 A 
ATOM     17  C   UNL     1      -0.439   9.967  23.186  0.00  0.00    +0.000 A 
ATOM     18  N   UNL     1      -0.483  11.235  22.727  0.00  0.00    +0.000 NA
ATOM     19  C   UNL     1       0.147  11.484  21.561  0.00  0.00    +0.000 A 
ATOM     20  C   UNL     1       0.834  10.526  20.823  0.00  0.00    +0.000 A 
ENDBRANCH  12  15
ENDBRANCH  10  13
ENDBRANCH   1  10
BRANCH   7  21
ATOM     21  C   UNL     1       5.159   4.245  15.995  0.00  0.00    +0.000 C 
BRANCH  21  22
ATOM     22  C   UNL     1       6.450   4.973  16.423  0.00  0.00    +0.000 C 
ATOM     23  C   UNL     1       6.976   4.432  17.763  0.00  0.00    +0.000 C 
ATOM     24  C   UNL     1       7.973   5.359  18.438  0.00  0.00    +0.000 C 
ATOM     25  O   UNL     1       7.436   6.677  18.535  0.00  0.00    +0.000 OA
ATOM     26  C   UNL     1       7.244   7.256  17.250  0.00  0.00    +0.000 C 
ATOM     27  C   UNL     1       6.184   6.487  16.474  0.00  0.00    +0.000 C 
ENDBRANCH  21  22
ENDBRANCH   7  21
TORSDOF 5
ENDMDL
MODEL 9
REMARK VINA RESULT:      -7.3      4.790      7.477
REMARK  Name = 
REMARK  5 active torsions:
REMARK  status: ('A' for Active; 'I' for Inactive)
REMARK    1  A    between atoms: C_2  and  C_21
REMARK    2  A    between atoms: N_3  and  C_4
REMARK    3  A    between atoms: C_4  and  C_5
REMARK    4  A    between atoms: N_11  and  C_12
REMARK    5  A    between atoms: C_12  and  C_13
REMARK                            x       y       z     vdW  Elec       q    Type
REMARK                         _______ _______ _______ _____ _____    ______ ____
ROOT
ATOM      1  C   UNL     1       3.128   3.562  20.480  0.00  0.00    +0.000 C 
ATOM      2  O   UNL     1       2.052   2.653  20.804  0.00  0.00    +0.000 OA
ATOM      3  C   UNL     1       1.439   2.042  19.657  0.00  0.00    +0.000 C 
ATOM      4  C   UNL     1       0.945   3.041  18.573  0.00  0.00    +0.000 C 
ATOM      5  C   UNL     1       1.658   4.332  18.595  0.00  0.00    +0.000 A 
ATOM      6  C   UNL     1       1.555   5.495  17.868  0.00  0.00    +0.000 A 
ATOM      7  N   UNL     1       2.461   6.369  18.408  0.00  0.00    +0.000 N 
ATOM      8  N   UNL     1       3.185   5.830  19.412  0.00  0.00    +0.000 NA
ATOM      9  C   UNL     1       2.677   4.603  19.529  0.00  0.00    +0.000 A 
ENDROOT
BRANCH   1  10
ATOM     10  C   UNL     1       4.374   2.825  19.954  0.00  0.00    +0.000 C 
BRANCH  10  13
ATOM     11  O   UNL     1       6.328   4.692  19.142  0.00  0.00    +0.000 OA
ATOM     12  C   UNL     1       5.772   4.039  18.267  0.00  0.00    +0.000 C 
ATOM     13  N   UNL     1       4.832   3.064  18.566  0.00  0.00    +0.000 N 
ATOM     14  H   UNL     1       4.375   2.544  17.830  0.00  0.00    +0.000 HD
BRANCH  12  15
ATOM     15  C   UNL     1       6.077   4.384  16.852  0.00  0.00    +0.000 A 
ATOM     16  C   UNL     1       5.059   4.190  15.906  0.00  0.00    +0.000 A 
ATOM     17  C   UNL     1       5.345   4.388  14.570  0.00  0.00    +0.000 A 
ATOM     18  N   UNL     1       6.560   4.765  14.120  0.00  0.00    +0.000 NA
ATOM     19  C   UNL     1       7.524   4.943  15.046  0.00  0.00    +0.000 A 
ATOM     20  C   UNL     1       7.338   4.772  16.413  0.00  0.00    +0.000 A 
ENDBRANCH  12  15
ENDBRANCH  10  13
ENDBRANCH   1  10
BRANCH   7  21
ATOM     21  C   UNL     1       2.668   7.753  18.022  0.00  0.00    +0.000 C 
BRANCH  21  22
ATOM     22  C   UNL     1       2.061   8.773  19.008  0.00  0.00    +0.000 C 
ATOM     23  C   UNL     1       1.548   8.078  20.281  0.00  0.00    +0.000 C 
ATOM     24  C   UNL     1       0.583   8.932  21.087  0.00  0.00    +0.000 C 
ATOM     25  O   UNL     1      -0.464   9.418  20.251  0.00  0.00    +0.000 OA
ATOM     26  C   UNL     1       0.034  10.306  19.257  0.00  0.00    +0.000 C 
ATOM     27  C   UNL     1       0.953   9.567  18.296  0.00  0.00    +0.000 C 
ENDBRANCH  21  22
ENDBRANCH   7  21
TORSDOF 5
ENDMDL
