MODEL 1
REMARK VINA RESULT:      -7.8      0.000      0.000
REMARK  Name = 
REMARK  2 active torsions:
REMARK  status: ('A' for Active; 'I' for Inactive)
REMARK    1  A    between atoms: O_1  and  C_2
REMARK    2  A    between atoms: C_4  and  C_5
REMARK                            x       y       z     vdW  Elec       q    Type
REMARK                         _______ _______ _______ _____ _____    ______ ____
ROOT
ATOM      1  C   UNL     1       6.443   5.290  18.181  0.00  0.00    +0.000 A 
ATOM      2  C   UNL     1       5.432   4.991  19.076  0.00  0.00    +0.000 A 
ATOM      3  C   UNL     1       4.323   4.303  18.602  0.00  0.00    +0.000 A 
ATOM      4  N   UNL     1       4.193   3.973  17.293  0.00  0.00    +0.000 NA
ATOM      5  C   UNL     1       5.165   4.257  16.424  0.00  0.00    +0.000 A 
ATOM      6  N   UNL     1       4.995   3.878  15.158  0.00  0.00    +0.000 NA
ATOM      7  C   UNL     1       5.984   4.129  14.276  0.00  0.00    +0.000 A 
ATOM      8 CL   UNL     1       5.671   3.584  12.679  0.00  0.00    +0.000 Cl
ATOM      9  C   UNL     1       7.170   4.761  14.579  0.00  0.00    +0.000 A 
ATOM     10  C   UNL     1       7.346   5.168  15.890  0.00  0.00    +0.000 A 
ATOM     11  C   UNL     1       6.337   4.918  16.837  0.00  0.00    +0.000 A 
ENDROOT
BRANCH   3  12
ATOM     12  C   UNL     1       3.242   3.835  19.493  0.00  0.00    +0.000 A 
ATOM     13  C   UNL     1       3.508   2.977  20.575  0.00  0.00    +0.000 A 
ATOM     14  C   UNL     1       2.494   2.571  21.450  0.00  0.00    +0.000 A 
ATOM     15  C   UNL     1       1.189   3.019  21.262  0.00  0.00    +0.000 A 
ATOM     16  C   UNL     1       0.895   3.863  20.197  0.00  0.00    +0.000 A 
ATOM     17  C   UNL     1       1.910   4.264  19.323  0.00  0.00    +0.000 A 
ENDBRANCH   3  12
BRANCH   1  18
ATOM     18  O   UNL     1       7.571   5.938  18.613  0.00  0.00    +0.000 OA
ATOM     19  H   UNL     1       7.353   6.500  19.376  0.00  0.00    +0.000 HD
ENDBRANCH   1  18
TORSDOF 2
ENDMDL
MODEL 2
REMARK VINA RESULT:      -7.8      0.115      1.134
REMARK  Name = 
REMARK  2 active torsions:
REMARK  status: ('A' for Active; 'I' for Inactive)
REMARK    1  A    between atoms: O_1  and  C_2
REMARK    2  A    between atoms: C_4  and  C_5
REMARK                            x       y       z     vdW  Elec       q    Type
REMARK                         _______ _______ _______ _____ _____    ______ ____
ROOT
ATOM      1  C   UNL     1       6.510   5.281  18.234  0.00  0.00    +0.000 A 
ATOM      2  C   UNL     1       5.504   5.011  19.144  0.00  0.00    +0.000 A 
ATOM      3  C   UNL     1       4.368   4.358  18.685  0.00  0.00    +0.000 A 
ATOM      4  N   UNL     1       4.207   4.036  17.377  0.00  0.00    +0.000 NA
ATOM      5  C   UNL     1       5.174   4.293  16.494  0.00  0.00    +0.000 A 
ATOM      6  N   UNL     1       4.973   3.924  15.230  0.00  0.00    +0.000 NA
ATOM      7  C   UNL     1       5.954   4.147  14.333  0.00  0.00    +0.000 A 
ATOM      8 CL   UNL     1       5.600   3.617  12.740  0.00  0.00    +0.000 Cl
ATOM      9  C   UNL     1       7.164   4.742  14.620  0.00  0.00    +0.000 A 
ATOM     10  C   UNL     1       7.373   5.139  15.928  0.00  0.00    +0.000 A 
ATOM     11  C   UNL     1       6.372   4.917  16.890  0.00  0.00    +0.000 A 
ENDROOT
BRANCH   3  12
ATOM     12  C   UNL     1       3.286   3.920  19.592  0.00  0.00    +0.000 A 
ATOM     13  C   UNL     1       1.989   4.454  19.493  0.00  0.00    +0.000 A 
ATOM     14  C   UNL     1       0.951   4.005  20.317  0.00  0.00    +0.000 A 
ATOM     15  C   UNL     1       1.189   3.007  21.258  0.00  0.00    +0.000 A 
ATOM     16  C   UNL     1       2.463   2.465  21.382  0.00  0.00    +0.000 A 
ATOM     17  C   UNL     1       3.498   2.918  20.559  0.00  0.00    +0.000 A 
ENDBRANCH   3  12
BRANCH   1  18
ATOM     18  O   UNL     1       7.663   5.893  18.650  0.00  0.00    +0.000 OA
ATOM     19  H   UNL     1       8.433   5.400  18.317  0.00  0.00    +0.000 HD
ENDBRANCH   1  18
TORSDOF 2
ENDMDL
MODEL 3
REMARK VINA RESULT:      -7.5      2.256      6.148
REMARK  Name = 
REMARK  2 active torsions:
REMARK  status: ('A' for Active; 'I' for Inactive)
REMARK    1  A    between atoms: O_1  and  C_2
REMARK    2  A    between atoms: C_4  and  C_5
REMARK                            x       y       z     vdW  Elec       q    Type
REMARK                         _______ _______ _______ _____ _____    ______ ____
ROOT
ATOM      1  C   UNL     1       6.084   4.660  18.275  0.00  0.00    +0.000 A 
ATOM      2  C   UNL     1       6.644   4.690  17.011  0.00  0.00    +0.000 A 
ATOM      3  C   UNL     1       5.884   4.220  15.949  0.00  0.00    +0.000 A 
ATOM      4  N   UNL     1       4.648   3.694  16.133  0.00  0.00    +0.000 NA
ATOM      5  C   UNL     1       4.101   3.662  17.349  0.00  0.00    +0.000 A 
ATOM      6  N   UNL     1       2.870   3.163  17.463  0.00  0.00    +0.000 NA
ATOM      7  C   UNL     1       2.291   3.156  18.680  0.00  0.00    +0.000 A 
ATOM      8 CL   UNL     1       0.702   2.510  18.711  0.00  0.00    +0.000 Cl
ATOM      9  C   UNL     1       2.880   3.622  19.836  0.00  0.00    +0.000 A 
ATOM     10  C   UNL     1       4.162   4.129  19.726  0.00  0.00    +0.000 A 
ATOM     11  C   UNL     1       4.794   4.156  18.470  0.00  0.00    +0.000 A 
ENDROOT
BRANCH   3  12
ATOM     12  C   UNL     1       6.341   4.312  14.546  0.00  0.00    +0.000 A 
ATOM     13  C   UNL     1       7.391   5.171  14.176  0.00  0.00    +0.000 A 
ATOM     14  C   UNL     1       7.858   5.224  12.858  0.00  0.00    +0.000 A 
ATOM     15  C   UNL     1       7.285   4.414  11.881  0.00  0.00    +0.000 A 
ATOM     16  C   UNL     1       6.242   3.560  12.217  0.00  0.00    +0.000 A 
ATOM     17  C   UNL     1       5.775   3.511  13.534  0.00  0.00    +0.000 A 
ENDBRANCH   3  12
BRANCH   1  18
ATOM     18  O   UNL     1       6.786   5.146  19.347  0.00  0.00    +0.000 OA
ATOM     19  H   UNL     1       6.269   5.019  20.161  0.00  0.00    +0.000 HD
ENDBRANCH   1  18
TORSDOF 2
ENDMDL
MODEL 4
REMARK VINA RESULT:      -7.5      2.247      6.170
REMARK  Name = 
REMARK  2 active torsions:
REMARK  status: ('A' for Active; 'I' for Inactive)
REMARK    1  A    between atoms: O_1  and  C_2
REMARK    2  A    between atoms: C_4  and  C_5
REMARK                            x       y       z     vdW  Elec       q    Type
REMARK                         _______ _______ _______ _____ _____    ______ ____
ROOT
ATOM      1  C   UNL     1       6.140   4.700  18.268  0.00  0.00    +0.000 A 
ATOM      2  C   UNL     1       6.716   4.704  17.011  0.00  0.00    +0.000 A 
ATOM      3  C   UNL     1       5.974   4.202  15.951  0.00  0.00    +0.000 A 
ATOM      4  N   UNL     1       4.739   3.670  16.132  0.00  0.00    +0.000 NA
ATOM      5  C   UNL     1       4.177   3.663  17.341  0.00  0.00    +0.000 A 
ATOM      6  N   UNL     1       2.949   3.157  17.452  0.00  0.00    +0.000 NA
ATOM      7  C   UNL     1       2.355   3.175  18.662  0.00  0.00    +0.000 A 
ATOM      8 CL   UNL     1       0.770   2.516  18.688  0.00  0.00    +0.000 Cl
ATOM      9  C   UNL     1       2.924   3.674  19.813  0.00  0.00    +0.000 A 
ATOM     10  C   UNL     1       4.204   4.188  19.707  0.00  0.00    +0.000 A 
ATOM     11  C   UNL     1       4.852   4.190  18.459  0.00  0.00    +0.000 A 
ENDROOT
BRANCH   3  12
ATOM     12  C   UNL     1       6.447   4.264  14.552  0.00  0.00    +0.000 A 
ATOM     13  C   UNL     1       5.870   3.465  13.550  0.00  0.00    +0.000 A 
ATOM     14  C   UNL     1       6.282   3.558  12.216  0.00  0.00    +0.000 A 
ATOM     15  C   UNL     1       7.282   4.458  11.856  0.00  0.00    +0.000 A 
ATOM     16  C   UNL     1       7.875   5.256  12.827  0.00  0.00    +0.000 A 
ATOM     17  C   UNL     1       7.463   5.158  14.159  0.00  0.00    +0.000 A 
ENDBRANCH   3  12
BRANCH   1  18
ATOM     18  O   UNL     1       6.824   5.217  19.337  0.00  0.00    +0.000 OA
ATOM     19  H   UNL     1       7.748   5.386  19.083  0.00  0.00    +0.000 HD
ENDBRANCH   1  18
TORSDOF 2
ENDMDL
MODEL 5
REMARK VINA RESULT:      -7.4      5.493      7.066
REMARK  Name = 
REMARK  2 active torsions:
REMARK  status: ('A' for Active; 'I' for Inactive)
REMARK    1  A    between atoms: O_1  and  C_2
REMARK    2  A    between atoms: C_4  and  C_5
REMARK                            x       y       z     vdW  Elec       q    Type
REMARK                         _______ _______ _______ _____ _____    ______ ____
ROOT
ATOM      1  C   UNL     1       1.973   9.284  18.159  0.00  0.00    +0.000 A 
ATOM      2  C   UNL     1       2.513   8.086  17.731  0.00  0.00    +0.000 A 
ATOM      3  C   UNL     1       2.513   7.016  18.616  0.00  0.00    +0.000 A 
ATOM      4  N   UNL     1       2.050   7.139  19.885  0.00  0.00    +0.000 NA
ATOM      5  C   UNL     1       1.527   8.292  20.305  0.00  0.00    +0.000 A 
ATOM      6  N   UNL     1       1.059   8.344  21.552  0.00  0.00    +0.000 NA
ATOM      7  C   UNL     1       0.498   9.492  21.979  0.00  0.00    +0.000 A 
ATOM      8 CL   UNL     1      -0.088   9.444  23.591  0.00  0.00    +0.000 Cl
ATOM      9  C   UNL     1       0.372  10.638  21.224  0.00  0.00    +0.000 A 
ATOM     10  C   UNL     1       0.869  10.595  19.933  0.00  0.00    +0.000 A 
ATOM     11  C   UNL     1       1.457   9.411  19.453  0.00  0.00    +0.000 A 
ENDROOT
BRANCH   3  12
ATOM     12  C   UNL     1       2.958   5.663  18.223  0.00  0.00    +0.000 A 
ATOM     13  C   UNL     1       4.317   5.304  18.258  0.00  0.00    +0.000 A 
ATOM     14  C   UNL     1       4.737   4.009  17.934  0.00  0.00    +0.000 A 
ATOM     15  C   UNL     1       3.803   3.042  17.572  0.00  0.00    +0.000 A 
ATOM     16  C   UNL     1       2.453   3.371  17.523  0.00  0.00    +0.000 A 
ATOM     17  C   UNL     1       2.037   4.666  17.844  0.00  0.00    +0.000 A 
ENDBRANCH   3  12
BRANCH   1  18
ATOM     18  O   UNL     1       1.922  10.356  17.307  0.00  0.00    +0.000 OA
ATOM     19  H   UNL     1       1.464  10.101  16.488  0.00  0.00    +0.000 HD
ENDBRANCH   1  18
TORSDOF 2
ENDMDL
MODEL 6
REMARK VINA RESULT:      -7.4      5.457      7.074
REMARK  Name = 
REMARK  2 active torsions:
REMARK  status: ('A' for Active; 'I' for Inactive)
REMARK    1  A    between atoms: O_1  and  C_2
REMARK    2  A    between atoms: C_4  and  C_5
REMARK                            x       y       z     vdW  Elec       q    Type
REMARK                         _______ _______ _______ _____ _____    ______ ____
ROOT
ATOM      1  C   UNL     1       1.937   9.047  18.176  0.00  0.00    +0.000 A 
ATOM      2  C   UNL     1       2.488   7.822  17.848  0.00  0.00    +0.000 A 
ATOM      3  C   UNL     1       2.483   6.825  18.814  0.00  0.00    +0.000 A 
ATOM      4  N   UNL     1       2.006   7.044  20.065  0.00  0.00    +0.000 NA
ATOM      5  C   UNL     1       1.473   8.224  20.388  0.00  0.00    +0.000 A 
ATOM      6  N   UNL     1       0.991   8.370  21.621  0.00  0.00    +0.000 NA
ATOM      7  C   UNL     1       0.420   9.546  21.951  0.00  0.00    +0.000 A 
ATOM      8 CL   UNL     1      -0.184   9.620  23.556  0.00  0.00    +0.000 Cl
ATOM      9  C   UNL     1       0.297  10.628  21.107  0.00  0.00    +0.000 A 
ATOM     10  C   UNL     1       0.808  10.486  19.829  0.00  0.00    +0.000 A 
ATOM     11  C   UNL     1       1.407   9.272  19.450  0.00  0.00    +0.000 A 
ENDROOT
BRANCH   3  12
ATOM     12  C   UNL     1       2.939   5.448  18.533  0.00  0.00    +0.000 A 
ATOM     13  C   UNL     1       2.180   4.576  17.732  0.00  0.00    +0.000 A 
ATOM     14  C   UNL     1       2.634   3.289  17.424  0.00  0.00    +0.000 A 
ATOM     15  C   UNL     1       3.861   2.847  17.909  0.00  0.00    +0.000 A 
ATOM     16  C   UNL     1       4.630   3.684  18.709  0.00  0.00    +0.000 A 
ATOM     17  C   UNL     1       4.173   4.969  19.017  0.00  0.00    +0.000 A 
ENDBRANCH   3  12
BRANCH   1  18
ATOM     18  O   UNL     1       1.890  10.049  17.241  0.00  0.00    +0.000 OA
ATOM     19  H   UNL     1       2.165   9.701  16.375  0.00  0.00    +0.000 HD
ENDBRANCH   1  18
TORSDOF 2
ENDMDL
MODEL 7
REMARK VINA RESULT:      -7.2      1.393      1.565
REMARK  Name = 
REMARK  2 active torsions:
REMARK  status: ('A' for Active; 'I' for Inactive)
REMARK    1  A    between atoms: O_1  and  C_2
REMARK    2  A    between atoms: C_4  and  C_5
REMARK                            x       y       z     vdW  Elec       q    Type
REMARK                         _______ _______ _______ _____ _____    ______ ____
ROOT
ATOM      1  C   UNL     1       6.501   5.986  16.666  0.00  0.00    +0.000 A 
ATOM      2  C   UNL     1       5.509   5.876  17.623  0.00  0.00    +0.000 A 
ATOM      3  C   UNL     1       4.456   5.006  17.375  0.00  0.00    +0.000 A 
ATOM      4  N   UNL     1       4.358   4.317  16.210  0.00  0.00    +0.000 NA
ATOM      5  C   UNL     1       5.312   4.418  15.283  0.00  0.00    +0.000 A 
ATOM      6  N   UNL     1       5.177   3.692  14.173  0.00  0.00    +0.000 NA
ATOM      7  C   UNL     1       6.150   3.759  13.242  0.00  0.00    +0.000 A 
ATOM      8 CL   UNL     1       5.886   2.771  11.864  0.00  0.00    +0.000 Cl
ATOM      9  C   UNL     1       7.285   4.533  13.341  0.00  0.00    +0.000 A 
ATOM     10  C   UNL     1       7.424   5.299  14.485  0.00  0.00    +0.000 A 
ATOM     11  C   UNL     1       6.430   5.250  15.479  0.00  0.00    +0.000 A 
ENDROOT
BRANCH   3  12
ATOM     12  C   UNL     1       3.406   4.727  18.376  0.00  0.00    +0.000 A 
ATOM     13  C   UNL     1       3.486   5.245  19.681  0.00  0.00    +0.000 A 
ATOM     14  C   UNL     1       2.469   5.023  20.617  0.00  0.00    +0.000 A 
ATOM     15  C   UNL     1       1.347   4.279  20.264  0.00  0.00    +0.000 A 
ATOM     16  C   UNL     1       1.244   3.750  18.984  0.00  0.00    +0.000 A 
ATOM     17  C   UNL     1       2.262   3.970  18.052  0.00  0.00    +0.000 A 
ENDBRANCH   3  12
BRANCH   1  18
ATOM     18  O   UNL     1       7.576   6.808  16.885  0.00  0.00    +0.000 OA
ATOM     19  H   UNL     1       7.942   7.102  16.033  0.00  0.00    +0.000 HD
ENDBRANCH   1  18
TORSDOF 2
ENDMDL
MODEL 8
REMARK VINA RESULT:      -7.1      5.796      7.315
REMARK  Name = 
REMARK  2 active torsions:
REMARK  status: ('A' for Active; 'I' for Inactive)
REMARK    1  A    between atoms: O_1  and  C_2
REMARK    2  A    between atoms: C_4  and  C_5
REMARK                            x       y       z     vdW  Elec       q    Type
REMARK                         _______ _______ _______ _____ _____    ______ ____
ROOT
ATOM      1  C   UNL     1       1.765   9.027  18.500  0.00  0.00    +0.000 A 
ATOM      2  C   UNL     1       2.355   7.778  18.576  0.00  0.00    +0.000 A 
ATOM      3  C   UNL     1       2.192   7.049  19.746  0.00  0.00    +0.000 A 
ATOM      4  N   UNL     1       1.523   7.552  20.814  0.00  0.00    +0.000 NA
ATOM      5  C   UNL     1       0.951   8.756  20.748  0.00  0.00    +0.000 A 
ATOM      6  N   UNL     1       0.279   9.183  21.816  0.00  0.00    +0.000 NA
ATOM      7  C   UNL     1      -0.332  10.383  21.751  0.00  0.00    +0.000 A 
ATOM      8 CL   UNL     1      -1.183  10.828  23.174  0.00  0.00    +0.000 Cl
ATOM      9  C   UNL     1      -0.313  11.220  20.657  0.00  0.00    +0.000 A 
ATOM     10  C   UNL     1       0.394  10.787  19.549  0.00  0.00    +0.000 A 
ATOM     11  C   UNL     1       1.040   9.538  19.581  0.00  0.00    +0.000 A 
ENDROOT
BRANCH   3  12
ATOM     12  C   UNL     1       2.681   5.662  19.890  0.00  0.00    +0.000 A 
ATOM     13  C   UNL     1       1.959   4.707  20.628  0.00  0.00    +0.000 A 
ATOM     14  C   UNL     1       2.394   3.380  20.724  0.00  0.00    +0.000 A 
ATOM     15  C   UNL     1       3.562   2.980  20.080  0.00  0.00    +0.000 A 
ATOM     16  C   UNL     1       4.299   3.904  19.349  0.00  0.00    +0.000 A 
ATOM     17  C   UNL     1       3.863   5.229  19.257  0.00  0.00    +0.000 A 
ENDBRANCH   3  12
BRANCH   1  18
ATOM     18  O   UNL     1       1.873   9.766  17.351  0.00  0.00    +0.000 OA
ATOM     19  H   UNL     1       1.016  10.178  17.147  0.00  0.00    +0.000 HD
ENDBRANCH   1  18
TORSDOF 2
ENDMDL
MODEL 9
REMARK VINA RESULT:      -7.1      5.732      7.238
REMARK  Name = 
REMARK  2 active torsions:
REMARK  status: ('A' for Active; 'I' for Inactive)
REMARK    1  A    between atoms: O_1  and  C_2
REMARK    2  A    between atoms: C_4  and  C_5
REMARK                            x       y       z     vdW  Elec       q    Type
REMARK                         _______ _______ _______ _____ _____    ______ ____
ROOT
ATOM      1  C   UNL     1       1.820   8.920  18.515  0.00  0.00    +0.000 A 
ATOM      2  C   UNL     1       2.375   7.656  18.593  0.00  0.00    +0.000 A 
ATOM      3  C   UNL     1       2.184   6.930  19.760  0.00  0.00    +0.000 A 
ATOM      4  N   UNL     1       1.522   7.449  20.824  0.00  0.00    +0.000 NA
ATOM      5  C   UNL     1       0.984   8.667  20.757  0.00  0.00    +0.000 A 
ATOM      6  N   UNL     1       0.317   9.111  21.822  0.00  0.00    +0.000 NA
ATOM      7  C   UNL     1      -0.261  10.327  21.755  0.00  0.00    +0.000 A 
ATOM      8 CL   UNL     1      -1.109  10.793  23.173  0.00  0.00    +0.000 Cl
ATOM      9  C   UNL     1      -0.212  11.166  20.663  0.00  0.00    +0.000 A 
ATOM     10  C   UNL     1       0.491  10.716  19.559  0.00  0.00    +0.000 A 
ATOM     11  C   UNL     1       1.102   9.450  19.592  0.00  0.00    +0.000 A 
ENDROOT
BRANCH   3  12
ATOM     12  C   UNL     1       2.634   5.530  19.904  0.00  0.00    +0.000 A 
ATOM     13  C   UNL     1       3.781   5.059  19.240  0.00  0.00    +0.000 A 
ATOM     14  C   UNL     1       4.237   3.748  19.414  0.00  0.00    +0.000 A 
ATOM     15  C   UNL     1       3.556   2.878  20.261  0.00  0.00    +0.000 A 
ATOM     16  C   UNL     1       2.416   3.314  20.926  0.00  0.00    +0.000 A 
ATOM     17  C   UNL     1       1.961   4.624  20.748  0.00  0.00    +0.000 A 
ENDBRANCH   3  12
BRANCH   1  18
ATOM     18  O   UNL     1       1.956   9.659  17.369  0.00  0.00    +0.000 OA
ATOM     19  H   UNL     1       1.717  10.584  17.546  0.00  0.00    +0.000 HD
ENDBRANCH   1  18
TORSDOF 2
ENDMDL
