MODEL 1
REMARK VINA RESULT:      -8.2      0.000      0.000
REMARK  Name = 
REMARK  8 active torsions:
REMARK  status: ('A' for Active; 'I' for Inactive)
REMARK    1  A    between atoms: C_2  and  C_11
REMARK    2  A    between atoms: N_3  and  C_4
REMARK    3  A    between atoms: C_4  and  C_5
REMARK    4  A    between atoms: C_11  and  C_12
REMARK    5  A    between atoms: C_11  and  N_18
REMARK    6  A    between atoms: N_18  and  C_19
REMARK    7  A    between atoms: C_19  and  C_20
REMARK    8  A    between atoms: C_25  and  C_27
REMARK                            x       y       z     vdW  Elec       q    Type
REMARK                         _______ _______ _______ _____ _____    ______ ____
ROOT
ATOM      1  C   UNL     1       5.928   5.366  17.159  0.00  0.00    +0.000 C 
ENDROOT
BRANCH   1   2
ATOM      2  C   UNL     1       6.852   6.480  17.690  0.00  0.00    +0.000 A 
ATOM      3  C   UNL     1       6.885   7.785  17.154  0.00  0.00    +0.000 A 
ATOM      4  C   UNL     1       7.743   8.756  17.669  0.00  0.00    +0.000 A 
ATOM      5  C   UNL     1       8.589   8.395  18.700  0.00  0.00    +0.000 A 
ATOM      6  N   UNL     1       8.612   7.161  19.242  0.00  0.00    +0.000 NA
ATOM      7  C   UNL     1       7.764   6.242  18.712  0.00  0.00    +0.000 A 
ENDBRANCH   1   2
BRANCH   1   9
ATOM      8  O   UNL     1       5.277   6.199  14.888  0.00  0.00    +0.000 OA
ATOM      9  C   UNL     1       5.909   5.361  15.538  0.00  0.00    +0.000 C 
ATOM     10  N   UNL     1       6.755   4.465  14.872  0.00  0.00    +0.000 N 
ATOM     11  H   UNL     1       7.332   3.834  15.413  0.00  0.00    +0.000 HD
BRANCH  10  12
ATOM     12  C   UNL     1       7.035   4.571  13.424  0.00  0.00    +0.000 C 
BRANCH  12  13
ATOM     13  C   UNL     1       6.219   3.603  12.579  0.00  0.00    +0.000 A 
ATOM     14  C   UNL     1       6.823   2.468  12.014  0.00  0.00    +0.000 A 
ATOM     15  C   UNL     1       6.133   1.669  11.093  0.00  0.00    +0.000 A 
ATOM     16  C   UNL     1       4.820   1.973  10.747  0.00  0.00    +0.000 A 
ATOM     17  C   UNL     1       4.169   3.024  11.389  0.00  0.00    +0.000 A 
ATOM     18  C   UNL     1       4.859   3.826  12.310  0.00  0.00    +0.000 A 
ENDBRANCH  12  13
ENDBRANCH  10  12
ENDBRANCH   1   9
BRANCH   1  19
ATOM     19  N   UNL     1       4.673   5.187  17.991  0.00  0.00    +0.000 N 
ATOM     20  C   UNL     1       4.579   4.177  18.980  0.00  0.00    +0.000 C 
ATOM     21  O   UNL     1       5.571   3.784  19.593  0.00  0.00    +0.000 OA
BRANCH  20  22
ATOM     22  C   UNL     1       3.221   3.546  19.361  0.00  0.00    +0.000 A 
ATOM     23  C   UNL     1       2.640   3.877  20.579  0.00  0.00    +0.000 A 
ATOM     24  C   UNL     1       1.392   3.340  20.912  0.00  0.00    +0.000 A 
ATOM     25  C   UNL     1       0.756   2.473  20.030  0.00  0.00    +0.000 A 
ATOM     26  C   UNL     1       1.409   2.168  18.849  0.00  0.00    +0.000 A 
ATOM     27  N   UNL     1       2.622   2.675  18.499  0.00  0.00    +0.000 NA
ENDBRANCH  20  22
BRANCH  19  28
ATOM     28  C   UNL     1       3.420   5.785  17.555  0.00  0.00    +0.000 C 
BRANCH  28  29
ATOM     29  C   UNL     1       3.045   7.078  18.166  0.00  0.00    +0.000 A 
ATOM     30  C   UNL     1       2.839   8.310  17.582  0.00  0.00    +0.000 A 
ATOM     31  C   UNL     1       1.992   9.017  18.466  0.00  0.00    +0.000 A 
ATOM     32  C   UNL     1       1.835   8.216  19.574  0.00  0.00    +0.000 A 
ATOM     33  O   UNL     1       2.506   7.047  19.415  0.00  0.00    +0.000 OA
ENDBRANCH  28  29
ENDBRANCH  19  28
ENDBRANCH   1  19
TORSDOF 8
ENDMDL
MODEL 2
REMARK VINA RESULT:      -8.2      0.612      1.250
REMARK  Name = 
REMARK  8 active torsions:
REMARK  status: ('A' for Active; 'I' for Inactive)
REMARK    1  A    between atoms: C_2  and  C_11
REMARK    2  A    between atoms: N_3  and  C_4
REMARK    3  A    between atoms: C_4  and  C_5
REMARK    4  A    between atoms: C_11  and  C_12
REMARK    5  A    between atoms: C_11  and  N_18
REMARK    6  A    between atoms: N_18  and  C_19
REMARK    7  A    between atoms: C_19  and  C_20
REMARK    8  A    between atoms: C_25  and  C_27
REMARK                            x       y       z     vdW  Elec       q    Type
REMARK                         _______ _______ _______ _____ _____    ______ ____
ROOT
ATOM      1  C   UNL     1       5.963   5.319  17.038  0.00  0.00    +0.000 C 
ENDROOT
BRANCH   1   2
ATOM      2  C   UNL     1       6.895   6.407  17.606  0.00  0.00    +0.000 A 
ATOM      3  C   UNL     1       7.729   6.210  18.729  0.00  0.00    +0.000 A 
ATOM      4  C   UNL     1       8.551   7.231  19.206  0.00  0.00    +0.000 A 
ATOM      5  C   UNL     1       8.503   8.456  18.569  0.00  0.00    +0.000 A 
ATOM      6  N   UNL     1       7.717   8.706  17.503  0.00  0.00    +0.000 NA
ATOM      7  C   UNL     1       6.928   7.689  17.068  0.00  0.00    +0.000 A 
ENDBRANCH   1   2
BRANCH   1   9
ATOM      8  O   UNL     1       5.155   6.115  14.805  0.00  0.00    +0.000 OA
ATOM      9  C   UNL     1       5.931   5.379  15.419  0.00  0.00    +0.000 C 
ATOM     10  N   UNL     1       6.919   4.678  14.715  0.00  0.00    +0.000 N 
ATOM     11  H   UNL     1       7.605   4.138  15.227  0.00  0.00    +0.000 HD
BRANCH  10  12
ATOM     12  C   UNL     1       7.164   4.893  13.272  0.00  0.00    +0.000 C 
BRANCH  12  13
ATOM     13  C   UNL     1       6.676   3.745  12.400  0.00  0.00    +0.000 A 
ATOM     14  C   UNL     1       5.302   3.535  12.202  0.00  0.00    +0.000 A 
ATOM     15  C   UNL     1       4.835   2.384  11.553  0.00  0.00    +0.000 A 
ATOM     16  C   UNL     1       5.735   1.442  11.065  0.00  0.00    +0.000 A 
ATOM     17  C   UNL     1       7.103   1.695  11.147  0.00  0.00    +0.000 A 
ATOM     18  C   UNL     1       7.571   2.845  11.798  0.00  0.00    +0.000 A 
ENDBRANCH  12  13
ENDBRANCH  10  12
ENDBRANCH   1   9
BRANCH   1  19
ATOM     19  N   UNL     1       4.714   5.111  17.873  0.00  0.00    +0.000 N 
ATOM     20  C   UNL     1       4.626   4.067  18.825  0.00  0.00    +0.000 C 
ATOM     21  O   UNL     1       5.621   3.651  19.416  0.00  0.00    +0.000 OA
BRANCH  20  22
ATOM     22  C   UNL     1       3.269   3.424  19.193  0.00  0.00    +0.000 A 
ATOM     23  C   UNL     1       2.680   3.741  20.411  0.00  0.00    +0.000 A 
ATOM     24  C   UNL     1       1.433   3.194  20.732  0.00  0.00    +0.000 A 
ATOM     25  C   UNL     1       0.807   2.330  19.839  0.00  0.00    +0.000 A 
ATOM     26  C   UNL     1       1.469   2.040  18.659  0.00  0.00    +0.000 A 
ATOM     27  N   UNL     1       2.681   2.557  18.320  0.00  0.00    +0.000 NA
ENDBRANCH  20  22
BRANCH  19  28
ATOM     28  C   UNL     1       3.459   5.727  17.467  0.00  0.00    +0.000 C 
BRANCH  28  29
ATOM     29  C   UNL     1       3.099   7.006  18.115  0.00  0.00    +0.000 A 
ATOM     30  C   UNL     1       2.987   8.272  17.579  0.00  0.00    +0.000 A 
ATOM     31  C   UNL     1       2.111   8.976  18.438  0.00  0.00    +0.000 A 
ATOM     32  C   UNL     1       1.844   8.133  19.492  0.00  0.00    +0.000 A 
ATOM     33  O   UNL     1       2.474   6.942  19.322  0.00  0.00    +0.000 OA
ENDBRANCH  28  29
ENDBRANCH  19  28
ENDBRANCH   1  19
TORSDOF 8
ENDMDL
MODEL 3
REMARK VINA RESULT:      -8.2      0.574      1.243
REMARK  Name = 
REMARK  8 active torsions:
REMARK  status: ('A' for Active; 'I' for Inactive)
REMARK    1  A    between atoms: C_2  and  C_11
REMARK    2  A    between atoms: N_3  and  C_4
REMARK    3  A    between atoms: C_4  and  C_5
REMARK    4  A    between atoms: C_11  and  C_12
REMARK    5  A    between atoms: C_11  and  N_18
REMARK    6  A    between atoms: N_18  and  C_19
REMARK    7  A    between atoms: C_19  and  C_20
REMARK    8  A    between atoms: C_25  and  C_27
REMARK                            x       y       z     vdW  Elec       q    Type
REMARK                         _______ _______ _______ _____ _____    ______ ____
ROOT
ATOM      1  C   UNL     1       5.956   5.416  17.048  0.00  0.00    +0.000 C 
ENDROOT
BRANCH   1   2
ATOM      2  C   UNL     1       6.885   6.500  17.630  0.00  0.00    +0.000 A 
ATOM      3  C   UNL     1       6.986   7.804  17.100  0.00  0.00    +0.000 A 
ATOM      4  C   UNL     1       7.846   8.747  17.660  0.00  0.00    +0.000 A 
ATOM      5  C   UNL     1       8.627   8.359  18.733  0.00  0.00    +0.000 A 
ATOM      6  N   UNL     1       8.584   7.125  19.271  0.00  0.00    +0.000 NA
ATOM      7  C   UNL     1       7.736   6.232  18.696  0.00  0.00    +0.000 A 
ENDBRANCH   1   2
BRANCH   1   9
ATOM      8  O   UNL     1       5.214   6.264  14.811  0.00  0.00    +0.000 OA
ATOM      9  C   UNL     1       5.940   5.481  15.429  0.00  0.00    +0.000 C 
ATOM     10  N   UNL     1       6.890   4.724  14.731  0.00  0.00    +0.000 N 
ATOM     11  H   UNL     1       7.538   4.143  15.247  0.00  0.00    +0.000 HD
BRANCH  10  12
ATOM     12  C   UNL     1       7.158   4.927  13.290  0.00  0.00    +0.000 C 
BRANCH  12  13
ATOM     13  C   UNL     1       6.640   3.797  12.415  0.00  0.00    +0.000 A 
ATOM     14  C   UNL     1       5.260   3.616  12.228  0.00  0.00    +0.000 A 
ATOM     15  C   UNL     1       4.764   2.480  11.575  0.00  0.00    +0.000 A 
ATOM     16  C   UNL     1       5.640   1.523  11.071  0.00  0.00    +0.000 A 
ATOM     17  C   UNL     1       7.013   1.747  11.143  0.00  0.00    +0.000 A 
ATOM     18  C   UNL     1       7.510   2.883  11.798  0.00  0.00    +0.000 A 
ENDBRANCH  12  13
ENDBRANCH  10  12
ENDBRANCH   1   9
BRANCH   1  19
ATOM     19  N   UNL     1       4.698   5.209  17.870  0.00  0.00    +0.000 N 
ATOM     20  C   UNL     1       4.596   4.161  18.817  0.00  0.00    +0.000 C 
ATOM     21  O   UNL     1       5.584   3.739  19.416  0.00  0.00    +0.000 OA
BRANCH  20  22
ATOM     22  C   UNL     1       3.234   3.521  19.168  0.00  0.00    +0.000 A 
ATOM     23  C   UNL     1       2.644   2.648  18.263  0.00  0.00    +0.000 A 
ATOM     24  C   UNL     1       1.430   2.036  18.592  0.00  0.00    +0.000 A 
ATOM     25  C   UNL     1       0.823   2.317  19.811  0.00  0.00    +0.000 A 
ATOM     26  C   UNL     1       1.456   3.218  20.649  0.00  0.00    +0.000 A 
ATOM     27  N   UNL     1       2.636   3.829  20.355  0.00  0.00    +0.000 NA
ENDBRANCH  20  22
BRANCH  19  28
ATOM     28  C   UNL     1       3.449   5.830  17.455  0.00  0.00    +0.000 C 
BRANCH  28  29
ATOM     29  C   UNL     1       3.058   7.079  18.144  0.00  0.00    +0.000 A 
ATOM     30  C   UNL     1       2.819   8.338  17.634  0.00  0.00    +0.000 A 
ATOM     31  C   UNL     1       1.972   8.976  18.568  0.00  0.00    +0.000 A 
ATOM     32  C   UNL     1       1.848   8.111  19.631  0.00  0.00    +0.000 A 
ATOM     33  O   UNL     1       2.539   6.966  19.396  0.00  0.00    +0.000 OA
ENDBRANCH  28  29
ENDBRANCH  19  28
ENDBRANCH   1  19
TORSDOF 8
ENDMDL
MODEL 4
REMARK VINA RESULT:      -8.2      1.869      6.047
REMARK  Name = 
REMARK  8 active torsions:
REMARK  status: ('A' for Active; 'I' for Inactive)
REMARK    1  A    between atoms: C_2  and  C_11
REMARK    2  A    between atoms: N_3  and  C_4
REMARK    3  A    between atoms: C_4  and  C_5
REMARK    4  A    between atoms: C_11  and  C_12
REMARK    5  A    between atoms: C_11  and  N_18
REMARK    6  A    between atoms: N_18  and  C_19
REMARK    7  A    between atoms: C_19  and  C_20
REMARK    8  A    between atoms: C_25  and  C_27
REMARK                            x       y       z     vdW  Elec       q    Type
REMARK                         _______ _______ _______ _____ _____    ______ ____
ROOT
ATOM      1  C   UNL     1       5.697   6.588  17.397  0.00  0.00    +0.000 C 
ENDROOT
BRANCH   1   2
ATOM      2  C   UNL     1       5.955   5.679  16.179  0.00  0.00    +0.000 A 
ATOM      3  C   UNL     1       5.141   4.575  15.845  0.00  0.00    +0.000 A 
ATOM      4  C   UNL     1       5.421   3.781  14.734  0.00  0.00    +0.000 A 
ATOM      5  C   UNL     1       6.541   4.085  13.983  0.00  0.00    +0.000 A 
ATOM      6  N   UNL     1       7.361   5.117  14.261  0.00  0.00    +0.000 NA
ATOM      7  C   UNL     1       7.058   5.866  15.353  0.00  0.00    +0.000 A 
ENDBRANCH   1   2
BRANCH   1   9
ATOM      8  O   UNL     1       7.868   6.276  18.606  0.00  0.00    +0.000 OA
ATOM      9  C   UNL     1       7.095   7.068  18.061  0.00  0.00    +0.000 C 
ATOM     10  N   UNL     1       7.490   8.399  17.873  0.00  0.00    +0.000 N 
ATOM     11  H   UNL     1       6.889   9.026  17.355  0.00  0.00    +0.000 HD
BRANCH  10  12
ATOM     12  C   UNL     1       8.861   8.866  18.176  0.00  0.00    +0.000 C 
BRANCH  12  13
ATOM     13  C   UNL     1       8.915  10.311  18.648  0.00  0.00    +0.000 A 
ATOM     14  C   UNL     1       8.577  11.358  17.775  0.00  0.00    +0.000 A 
ATOM     15  C   UNL     1       8.792  12.695  18.136  0.00  0.00    +0.000 A 
ATOM     16  C   UNL     1       9.318  13.007  19.386  0.00  0.00    +0.000 A 
ATOM     17  C   UNL     1       9.546  11.986  20.307  0.00  0.00    +0.000 A 
ATOM     18  C   UNL     1       9.333  10.648  19.946  0.00  0.00    +0.000 A 
ENDBRANCH  12  13
ENDBRANCH  10  12
ENDBRANCH   1   9
BRANCH   1  19
ATOM     19  N   UNL     1       4.507   6.145  18.227  0.00  0.00    +0.000 N 
ATOM     20  C   UNL     1       4.614   5.094  19.171  0.00  0.00    +0.000 C 
ATOM     21  O   UNL     1       5.669   4.866  19.761  0.00  0.00    +0.000 OA
BRANCH  20  22
ATOM     22  C   UNL     1       3.400   4.207  19.530  0.00  0.00    +0.000 A 
ATOM     23  C   UNL     1       2.619   4.545  20.628  0.00  0.00    +0.000 A 
ATOM     24  C   UNL     1       1.496   3.768  20.935  0.00  0.00    +0.000 A 
ATOM     25  C   UNL     1       1.185   2.664  20.149  0.00  0.00    +0.000 A 
ATOM     26  C   UNL     1       2.025   2.375  19.089  0.00  0.00    +0.000 A 
ATOM     27  N   UNL     1       3.123   3.111  18.767  0.00  0.00    +0.000 NA
ENDBRANCH  20  22
BRANCH  19  28
ATOM     28  C   UNL     1       3.160   6.519  17.823  0.00  0.00    +0.000 C 
BRANCH  28  29
ATOM     29  C   UNL     1       2.624   7.786  18.366  0.00  0.00    +0.000 A 
ATOM     30  C   UNL     1       2.190   8.920  17.711  0.00  0.00    +0.000 A 
ATOM     31  C   UNL     1       1.298   9.559  18.602  0.00  0.00    +0.000 A 
ATOM     32  C   UNL     1       1.338   8.839  19.773  0.00  0.00    +0.000 A 
ATOM     33  O   UNL     1       2.174   7.776  19.650  0.00  0.00    +0.000 OA
ENDBRANCH  28  29
ENDBRANCH  19  28
ENDBRANCH   1  19
TORSDOF 8
ENDMDL
MODEL 5
REMARK VINA RESULT:      -7.9      0.700      1.197
REMARK  Name = 
REMARK  8 active torsions:
REMARK  status: ('A' for Active; 'I' for Inactive)
REMARK    1  A    between atoms: C_2  and  C_11
REMARK    2  A    between atoms: N_3  and  C_4
REMARK    3  A    between atoms: C_4  and  C_5
REMARK    4  A    between atoms: C_11  and  C_12
REMARK    5  A    between atoms: C_11  and  N_18
REMARK    6  A    between atoms: N_18  and  C_19
REMARK    7  A    between atoms: C_19  and  C_20
REMARK    8  A    between atoms: C_25  and  C_27
REMARK                            x       y       z     vdW  Elec       q    Type
REMARK                         _______ _______ _______ _____ _____    ______ ____
ROOT
ATOM      1  C   UNL     1       5.936   5.349  17.102  0.00  0.00    +0.000 C 
ENDROOT
BRANCH   1   2
ATOM      2  C   UNL     1       6.863   6.465  17.623  0.00  0.00    +0.000 A 
ATOM      3  C   UNL     1       7.754   6.295  18.705  0.00  0.00    +0.000 A 
ATOM      4  C   UNL     1       8.570   7.339  19.140  0.00  0.00    +0.000 A 
ATOM      5  C   UNL     1       8.458   8.560  18.504  0.00  0.00    +0.000 A 
ATOM      6  N   UNL     1       7.616   8.785  17.476  0.00  0.00    +0.000 NA
ATOM      7  C   UNL     1       6.835   7.745  17.082  0.00  0.00    +0.000 A 
ENDBRANCH   1   2
BRANCH   1   9
ATOM      8  O   UNL     1       5.279   6.158  14.824  0.00  0.00    +0.000 OA
ATOM      9  C   UNL     1       5.915   5.330  15.482  0.00  0.00    +0.000 C 
ATOM     10  N   UNL     1       6.765   4.432  14.824  0.00  0.00    +0.000 N 
ATOM     11  H   UNL     1       7.346   3.808  15.369  0.00  0.00    +0.000 HD
BRANCH  10  12
ATOM     12  C   UNL     1       7.044   4.526  13.374  0.00  0.00    +0.000 C 
BRANCH  12  13
ATOM     13  C   UNL     1       6.214   3.564  12.537  0.00  0.00    +0.000 A 
ATOM     14  C   UNL     1       6.798   2.411  11.989  0.00  0.00    +0.000 A 
ATOM     15  C   UNL     1       6.098   1.614  11.074  0.00  0.00    +0.000 A 
ATOM     16  C   UNL     1       4.794   1.939  10.716  0.00  0.00    +0.000 A 
ATOM     17  C   UNL     1       4.160   3.011  11.342  0.00  0.00    +0.000 A 
ATOM     18  C   UNL     1       4.860   3.810  12.256  0.00  0.00    +0.000 A 
ENDBRANCH  12  13
ENDBRANCH  10  12
ENDBRANCH   1   9
BRANCH   1  19
ATOM     19  N   UNL     1       4.681   5.182  17.938  0.00  0.00    +0.000 N 
ATOM     20  C   UNL     1       4.577   4.170  18.923  0.00  0.00    +0.000 C 
ATOM     21  O   UNL     1       5.566   3.764  19.532  0.00  0.00    +0.000 OA
BRANCH  20  22
ATOM     22  C   UNL     1       3.212   3.554  19.305  0.00  0.00    +0.000 A 
ATOM     23  C   UNL     1       2.569   2.723  18.397  0.00  0.00    +0.000 A 
ATOM     24  C   UNL     1       1.352   2.131  18.753  0.00  0.00    +0.000 A 
ATOM     25  C   UNL     1       0.796   2.391  20.000  0.00  0.00    +0.000 A 
ATOM     26  C   UNL     1       1.481   3.252  20.840  0.00  0.00    +0.000 A 
ATOM     27  N   UNL     1       2.665   3.842  20.521  0.00  0.00    +0.000 NA
ENDBRANCH  20  22
BRANCH  19  28
ATOM     28  C   UNL     1       3.434   5.797  17.506  0.00  0.00    +0.000 C 
BRANCH  28  29
ATOM     29  C   UNL     1       3.037   7.053  18.178  0.00  0.00    +0.000 A 
ATOM     30  C   UNL     1       2.718   8.284  17.643  0.00  0.00    +0.000 A 
ATOM     31  C   UNL     1       1.905   8.922  18.607  0.00  0.00    +0.000 A 
ATOM     32  C   UNL     1       1.880   8.090  19.703  0.00  0.00    +0.000 A 
ATOM     33  O   UNL     1       2.600   6.964  19.463  0.00  0.00    +0.000 OA
ENDBRANCH  28  29
ENDBRANCH  19  28
ENDBRANCH   1  19
TORSDOF 8
ENDMDL
MODEL 6
REMARK VINA RESULT:      -7.9      1.650      3.726
REMARK  Name = 
REMARK  8 active torsions:
REMARK  status: ('A' for Active; 'I' for Inactive)
REMARK    1  A    between atoms: C_2  and  C_11
REMARK    2  A    between atoms: N_3  and  C_4
REMARK    3  A    between atoms: C_4  and  C_5
REMARK    4  A    between atoms: C_11  and  C_12
REMARK    5  A    between atoms: C_11  and  N_18
REMARK    6  A    between atoms: N_18  and  C_19
REMARK    7  A    between atoms: C_19  and  C_20
REMARK    8  A    between atoms: C_25  and  C_27
REMARK                            x       y       z     vdW  Elec       q    Type
REMARK                         _______ _______ _______ _____ _____    ______ ____
ROOT
ATOM      1  C   UNL     1       4.716   5.407  17.017  0.00  0.00    +0.000 C 
ENDROOT
BRANCH   1   2
ATOM      2  C   UNL     1       5.891   5.635  17.989  0.00  0.00    +0.000 A 
ATOM      3  C   UNL     1       6.992   6.468  17.697  0.00  0.00    +0.000 A 
ATOM      4  C   UNL     1       8.032   6.637  18.610  0.00  0.00    +0.000 A 
ATOM      5  C   UNL     1       7.973   5.938  19.801  0.00  0.00    +0.000 A 
ATOM      6  N   UNL     1       6.954   5.119  20.127  0.00  0.00    +0.000 NA
ATOM      7  C   UNL     1       5.960   4.977  19.212  0.00  0.00    +0.000 A 
ENDBRANCH   1   2
BRANCH   1   9
ATOM      8  O   UNL     1       5.132   6.468  14.786  0.00  0.00    +0.000 OA
ATOM      9  C   UNL     1       5.228   5.452  15.479  0.00  0.00    +0.000 C 
ATOM     10  N   UNL     1       5.927   4.343  14.986  0.00  0.00    +0.000 N 
ATOM     11  H   UNL     1       6.073   3.542  15.586  0.00  0.00    +0.000 HD
BRANCH  10  12
ATOM     12  C   UNL     1       6.683   4.388  13.715  0.00  0.00    +0.000 C 
BRANCH  12  13
ATOM     13  C   UNL     1       6.052   3.557  12.608  0.00  0.00    +0.000 A 
ATOM     14  C   UNL     1       4.751   3.838  12.161  0.00  0.00    +0.000 A 
ATOM     15  C   UNL     1       4.093   2.977  11.273  0.00  0.00    +0.000 A 
ATOM     16  C   UNL     1       4.736   1.839  10.795  0.00  0.00    +0.000 A 
ATOM     17  C   UNL     1       6.068   1.611  11.135  0.00  0.00    +0.000 A 
ATOM     18  C   UNL     1       6.727   2.472  12.025  0.00  0.00    +0.000 A 
ENDBRANCH  12  13
ENDBRANCH  10  12
ENDBRANCH   1   9
BRANCH   1  19
ATOM     19  N   UNL     1       3.432   6.073  17.471  0.00  0.00    +0.000 N 
ATOM     20  C   UNL     1       3.395   7.442  17.834  0.00  0.00    +0.000 C 
ATOM     21  O   UNL     1       4.157   8.262  17.322  0.00  0.00    +0.000 OA
BRANCH  20  22
ATOM     22  C   UNL     1       2.375   7.976  18.864  0.00  0.00    +0.000 A 
ATOM     23  C   UNL     1       1.591   9.074  18.531  0.00  0.00    +0.000 A 
ATOM     24  C   UNL     1       0.638   9.537  19.444  0.00  0.00    +0.000 A 
ATOM     25  C   UNL     1       0.496   8.905  20.675  0.00  0.00    +0.000 A 
ATOM     26  C   UNL     1       1.331   7.836  20.946  0.00  0.00    +0.000 A 
ATOM     27  N   UNL     1       2.267   7.364  20.078  0.00  0.00    +0.000 NA
ENDBRANCH  20  22
BRANCH  19  28
ATOM     28  C   UNL     1       2.304   5.259  17.899  0.00  0.00    +0.000 C 
BRANCH  28  29
ATOM     29  C   UNL     1       2.577   3.837  18.200  0.00  0.00    +0.000 A 
ATOM     30  C   UNL     1       2.747   2.766  17.347  0.00  0.00    +0.000 A 
ATOM     31  C   UNL     1       3.509   1.819  18.069  0.00  0.00    +0.000 A 
ATOM     32  C   UNL     1       3.652   2.326  19.341  0.00  0.00    +0.000 A 
ATOM     33  O   UNL     1       3.053   3.540  19.439  0.00  0.00    +0.000 OA
ENDBRANCH  28  29
ENDBRANCH  19  28
ENDBRANCH   1  19
TORSDOF 8
ENDMDL
MODEL 7
REMARK VINA RESULT:      -7.8      1.935      6.092
REMARK  Name = 
REMARK  8 active torsions:
REMARK  status: ('A' for Active; 'I' for Inactive)
REMARK    1  A    between atoms: C_2  and  C_11
REMARK    2  A    between atoms: N_3  and  C_4
REMARK    3  A    between atoms: C_4  and  C_5
REMARK    4  A    between atoms: C_11  and  C_12
REMARK    5  A    between atoms: C_11  and  N_18
REMARK    6  A    between atoms: N_18  and  C_19
REMARK    7  A    between atoms: C_19  and  C_20
REMARK    8  A    between atoms: C_25  and  C_27
REMARK                            x       y       z     vdW  Elec       q    Type
REMARK                         _______ _______ _______ _____ _____    ______ ____
ROOT
ATOM      1  C   UNL     1       5.686   6.549  17.357  0.00  0.00    +0.000 C 
ENDROOT
BRANCH   1   2
ATOM      2  C   UNL     1       5.919   5.586  16.176  0.00  0.00    +0.000 A 
ATOM      3  C   UNL     1       6.933   5.770  15.211  0.00  0.00    +0.000 A 
ATOM      4  C   UNL     1       7.099   4.870  14.158  0.00  0.00    +0.000 A 
ATOM      5  C   UNL     1       6.220   3.808  14.065  0.00  0.00    +0.000 A 
ATOM      6  N   UNL     1       5.226   3.590  14.949  0.00  0.00    +0.000 NA
ATOM      7  C   UNL     1       5.093   4.489  15.959  0.00  0.00    +0.000 A 
ENDBRANCH   1   2
BRANCH   1   9
ATOM      8  O   UNL     1       7.900   6.279  18.496  0.00  0.00    +0.000 OA
ATOM      9  C   UNL     1       7.097   7.055  17.972  0.00  0.00    +0.000 C 
ATOM     10  N   UNL     1       7.464   8.391  17.765  0.00  0.00    +0.000 N 
ATOM     11  H   UNL     1       6.836   9.006  17.263  0.00  0.00    +0.000 HD
BRANCH  10  12
ATOM     12  C   UNL     1       8.836   8.882  18.020  0.00  0.00    +0.000 C 
BRANCH  12  13
ATOM     13  C   UNL     1       8.877  10.300  18.569  0.00  0.00    +0.000 A 
ATOM     14  C   UNL     1       8.500  11.387  17.764  0.00  0.00    +0.000 A 
ATOM     15  C   UNL     1       8.701  12.706  18.193  0.00  0.00    +0.000 A 
ATOM     16  C   UNL     1       9.252  12.958  19.446  0.00  0.00    +0.000 A 
ATOM     17  C   UNL     1       9.519  11.893  20.304  0.00  0.00    +0.000 A 
ATOM     18  C   UNL     1       9.320  10.573  19.874  0.00  0.00    +0.000 A 
ENDBRANCH  12  13
ENDBRANCH  10  12
ENDBRANCH   1   9
BRANCH   1  19
ATOM     19  N   UNL     1       4.512   6.147  18.229  0.00  0.00    +0.000 N 
ATOM     20  C   UNL     1       4.632   5.132  19.210  0.00  0.00    +0.000 C 
ATOM     21  O   UNL     1       5.698   4.919  19.785  0.00  0.00    +0.000 OA
BRANCH  20  22
ATOM     22  C   UNL     1       3.421   4.268  19.628  0.00  0.00    +0.000 A 
ATOM     23  C   UNL     1       3.110   3.136  18.885  0.00  0.00    +0.000 A 
ATOM     24  C   UNL     1       2.038   2.329  19.282  0.00  0.00    +0.000 A 
ATOM     25  C   UNL     1       1.292   2.674  20.403  0.00  0.00    +0.000 A 
ATOM     26  C   UNL     1       1.644   3.830  21.076  0.00  0.00    +0.000 A 
ATOM     27  N   UNL     1       2.680   4.635  20.713  0.00  0.00    +0.000 NA
ENDBRANCH  20  22
BRANCH  19  28
ATOM     28  C   UNL     1       3.158   6.515  17.840  0.00  0.00    +0.000 C 
BRANCH  28  29
ATOM     29  C   UNL     1       2.619   7.774  18.397  0.00  0.00    +0.000 A 
ATOM     30  C   UNL     1       2.146   8.899  17.755  0.00  0.00    +0.000 A 
ATOM     31  C   UNL     1       1.271   9.525  18.673  0.00  0.00    +0.000 A 
ATOM     32  C   UNL     1       1.360   8.807  19.843  0.00  0.00    +0.000 A 
ATOM     33  O   UNL     1       2.209   7.758  19.695  0.00  0.00    +0.000 OA
ENDBRANCH  28  29
ENDBRANCH  19  28
ENDBRANCH   1  19
TORSDOF 8
ENDMDL
MODEL 8
REMARK VINA RESULT:      -7.6      2.045      7.141
REMARK  Name = 
REMARK  8 active torsions:
REMARK  status: ('A' for Active; 'I' for Inactive)
REMARK    1  A    between atoms: C_2  and  C_11
REMARK    2  A    between atoms: N_3  and  C_4
REMARK    3  A    between atoms: C_4  and  C_5
REMARK    4  A    between atoms: C_11  and  C_12
REMARK    5  A    between atoms: C_11  and  N_18
REMARK    6  A    between atoms: N_18  and  C_19
REMARK    7  A    between atoms: C_19  and  C_20
REMARK    8  A    between atoms: C_25  and  C_27
REMARK                            x       y       z     vdW  Elec       q    Type
REMARK                         _______ _______ _______ _____ _____    ______ ____
ROOT
ATOM      1  C   UNL     1       5.629   5.235  18.377  0.00  0.00    +0.000 C 
ENDROOT
BRANCH   1   2
ATOM      2  C   UNL     1       4.353   6.086  18.537  0.00  0.00    +0.000 A 
ATOM      3  C   UNL     1       3.410   5.888  19.568  0.00  0.00    +0.000 A 
ATOM      4  C   UNL     1       2.269   6.684  19.666  0.00  0.00    +0.000 A 
ATOM      5  C   UNL     1       2.068   7.654  18.702  0.00  0.00    +0.000 A 
ATOM      6  N   UNL     1       2.926   7.878  17.688  0.00  0.00    +0.000 NA
ATOM      7  C   UNL     1       4.025   7.082  17.624  0.00  0.00    +0.000 A 
ENDBRANCH   1   2
BRANCH   1   9
ATOM      8  O   UNL     1       7.517   5.463  20.007  0.00  0.00    +0.000 OA
ATOM      9  C   UNL     1       6.898   5.968  19.067  0.00  0.00    +0.000 C 
ATOM     10  N   UNL     1       7.384   7.140  18.472  0.00  0.00    +0.000 N 
ATOM     11  H   UNL     1       6.921   7.508  17.651  0.00  0.00    +0.000 HD
BRANCH  10  12
ATOM     12  C   UNL     1       8.693   7.725  18.834  0.00  0.00    +0.000 C 
BRANCH  12  13
ATOM     13  C   UNL     1       8.727   9.242  18.725  0.00  0.00    +0.000 A 
ATOM     14  C   UNL     1       8.013   9.900  17.710  0.00  0.00    +0.000 A 
ATOM     15  C   UNL     1       8.176  11.274  17.489  0.00  0.00    +0.000 A 
ATOM     16  C   UNL     1       9.030  12.017  18.297  0.00  0.00    +0.000 A 
ATOM     17  C   UNL     1       9.653  11.403  19.382  0.00  0.00    +0.000 A 
ATOM     18  C   UNL     1       9.492  10.028  19.604  0.00  0.00    +0.000 A 
ENDBRANCH  12  13
ENDBRANCH  10  12
ENDBRANCH   1   9
BRANCH   1  19
ATOM     19  N   UNL     1       5.716   4.544  17.030  0.00  0.00    +0.000 N 
ATOM     20  C   UNL     1       6.924   4.517  16.290  0.00  0.00    +0.000 C 
ATOM     21  O   UNL     1       8.020   4.527  16.849  0.00  0.00    +0.000 OA
BRANCH  20  22
ATOM     22  C   UNL     1       6.922   4.437  14.746  0.00  0.00    +0.000 A 
ATOM     23  C   UNL     1       6.093   3.514  14.119  0.00  0.00    +0.000 A 
ATOM     24  C   UNL     1       6.058   3.464  12.722  0.00  0.00    +0.000 A 
ATOM     25  C   UNL     1       6.859   4.325  11.979  0.00  0.00    +0.000 A 
ATOM     26  C   UNL     1       7.678   5.197  12.674  0.00  0.00    +0.000 A 
ATOM     27  N   UNL     1       7.733   5.268  14.032  0.00  0.00    +0.000 NA
ENDBRANCH  20  22
BRANCH  19  28
ATOM     28  C   UNL     1       4.500   4.222  16.298  0.00  0.00    +0.000 C 
BRANCH  28  29
ATOM     29  C   UNL     1       3.540   3.313  16.959  0.00  0.00    +0.000 A 
ATOM     30  C   UNL     1       3.764   2.250  17.808  0.00  0.00    +0.000 A 
ATOM     31  C   UNL     1       2.575   2.103  18.560  0.00  0.00    +0.000 A 
ATOM     32  C   UNL     1       1.676   3.004  18.041  0.00  0.00    +0.000 A 
ATOM     33  O   UNL     1       2.244   3.721  17.038  0.00  0.00    +0.000 OA
ENDBRANCH  28  29
ENDBRANCH  19  28
ENDBRANCH   1  19
TORSDOF 8
ENDMDL
MODEL 9
REMARK VINA RESULT:      -7.5      1.986      7.055
REMARK  Name = 
REMARK  8 active torsions:
REMARK  status: ('A' for Active; 'I' for Inactive)
REMARK    1  A    between atoms: C_2  and  C_11
REMARK    2  A    between atoms: N_3  and  C_4
REMARK    3  A    between atoms: C_4  and  C_5
REMARK    4  A    between atoms: C_11  and  C_12
REMARK    5  A    between atoms: C_11  and  N_18
REMARK    6  A    between atoms: N_18  and  C_19
REMARK    7  A    between atoms: C_19  and  C_20
REMARK    8  A    between atoms: C_25  and  C_27
REMARK                            x       y       z     vdW  Elec       q    Type
REMARK                         _______ _______ _______ _____ _____    ______ ____
ROOT
ATOM      1  C   UNL     1       5.552   5.207  18.344  0.00  0.00    +0.000 C 
ENDROOT
BRANCH   1   2
ATOM      2  C   UNL     1       4.293   6.084  18.490  0.00  0.00    +0.000 A 
ATOM      3  C   UNL     1       3.962   7.126  17.596  0.00  0.00    +0.000 A 
ATOM      4  C   UNL     1       2.812   7.894  17.776  0.00  0.00    +0.000 A 
ATOM      5  C   UNL     1       2.019   7.630  18.876  0.00  0.00    +0.000 A 
ATOM      6  N   UNL     1       2.292   6.659  19.769  0.00  0.00    +0.000 NA
ATOM      7  C   UNL     1       3.422   5.933  19.564  0.00  0.00    +0.000 A 
ENDBRANCH   1   2
BRANCH   1   9
ATOM      8  O   UNL     1       7.458   5.414  19.957  0.00  0.00    +0.000 OA
ATOM      9  C   UNL     1       6.835   5.928  19.024  0.00  0.00    +0.000 C 
ATOM     10  N   UNL     1       7.325   7.097  18.427  0.00  0.00    +0.000 N 
ATOM     11  H   UNL     1       6.857   7.471  17.612  0.00  0.00    +0.000 HD
BRANCH  10  12
ATOM     12  C   UNL     1       8.643   7.669  18.778  0.00  0.00    +0.000 C 
BRANCH  12  13
ATOM     13  C   UNL     1       8.687   9.187  18.681  0.00  0.00    +0.000 A 
ATOM     14  C   UNL     1       7.962   9.858  17.682  0.00  0.00    +0.000 A 
ATOM     15  C   UNL     1       8.132  11.232  17.469  0.00  0.00    +0.000 A 
ATOM     16  C   UNL     1       9.005  11.962  18.270  0.00  0.00    +0.000 A 
ATOM     17  C   UNL     1       9.639  11.335  19.340  0.00  0.00    +0.000 A 
ATOM     18  C   UNL     1       9.471   9.959  19.553  0.00  0.00    +0.000 A 
ENDBRANCH  12  13
ENDBRANCH  10  12
ENDBRANCH   1   9
BRANCH   1  19
ATOM     19  N   UNL     1       5.628   4.494  17.008  0.00  0.00    +0.000 N 
ATOM     20  C   UNL     1       6.822   4.474  16.247  0.00  0.00    +0.000 C 
ATOM     21  O   UNL     1       7.927   4.513  16.785  0.00  0.00    +0.000 OA
BRANCH  20  22
ATOM     22  C   UNL     1       6.794   4.366  14.705  0.00  0.00    +0.000 A 
ATOM     23  C   UNL     1       7.599   5.214  13.955  0.00  0.00    +0.000 A 
ATOM     24  C   UNL     1       7.607   5.094  12.561  0.00  0.00    +0.000 A 
ATOM     25  C   UNL     1       6.802   4.143  11.944  0.00  0.00    +0.000 A 
ATOM     26  C   UNL     1       6.006   3.354  12.756  0.00  0.00    +0.000 A 
ATOM     27  N   UNL     1       5.978   3.448  14.113  0.00  0.00    +0.000 NA
ENDBRANCH  20  22
BRANCH  19  28
ATOM     28  C   UNL     1       4.405   4.138  16.304  0.00  0.00    +0.000 C 
BRANCH  28  29
ATOM     29  C   UNL     1       3.451   3.260  17.016  0.00  0.00    +0.000 A 
ATOM     30  C   UNL     1       3.686   2.219  17.890  0.00  0.00    +0.000 A 
ATOM     31  C   UNL     1       2.516   2.108  18.676  0.00  0.00    +0.000 A 
ATOM     32  C   UNL     1       1.613   3.006  18.155  0.00  0.00    +0.000 A 
ATOM     33  O   UNL     1       2.163   3.687  17.117  0.00  0.00    +0.000 OA
ENDBRANCH  28  29
ENDBRANCH  19  28
ENDBRANCH   1  19
TORSDOF 8
ENDMDL
