MODEL 1
REMARK VINA RESULT:      -7.2      0.000      0.000
REMARK  Name = 
REMARK  5 active torsions:
REMARK  status: ('A' for Active; 'I' for Inactive)
REMARK    1  A    between atoms: C_1  and  C_2
REMARK    2  A    between atoms: C_7  and  O_8
REMARK    3  A    between atoms: O_8  and  C_9
REMARK    4  A    between atoms: C_9  and  C_10
REMARK    5  A    between atoms: N_13  and  C_14
REMARK                            x       y       z     vdW  Elec       q    Type
REMARK                         _______ _______ _______ _____ _____    ______ ____
ROOT
ATOM      1  C   UNL     1       3.691   1.407  18.210  0.00  0.00    +0.000 C 
ATOM      2  C   UNL     1       2.928   2.500  18.879  0.00  0.00    +0.000 A 
ATOM      3  C   UNL     1       1.985   2.276  19.869  0.00  0.00    +0.000 A 
ATOM      4  S   UNL     1       1.263   3.708  20.465  0.00  0.00    +0.000 S 
ATOM      5  C   UNL     1       2.190   4.684  19.417  0.00  0.00    +0.000 A 
ATOM      6  N   UNL     1       2.063   6.046  19.415  0.00  0.00    +0.000 NA
ATOM      7  C   UNL     1       2.825   6.666  18.564  0.00  0.00    +0.000 A 
ATOM      8  C   UNL     1       3.747   6.003  17.672  0.00  0.00    +0.000 A 
ATOM      9  C   UNL     1       4.625   6.454  16.708  0.00  0.00    +0.000 A 
ATOM     10  C   UNL     1       5.269   5.317  16.159  0.00  0.00    +0.000 A 
ATOM     11  C   UNL     1       4.764   4.205  16.801  0.00  0.00    +0.000 A 
ATOM     12  N   UNL     1       3.838   4.624  17.719  0.00  0.00    +0.000 N 
ATOM     13  C   UNL     1       3.025   3.907  18.633  0.00  0.00    +0.000 A 
ENDROOT
BRANCH   7  14
ATOM     14  O   UNL     1       2.848   8.021  18.420  0.00  0.00    +0.000 OA
BRANCH  14  15
ATOM     15  C   UNL     1       1.673   8.595  17.822  0.00  0.00    +0.000 C 
BRANCH  15  16
ATOM     16  C   UNL     1       1.151   9.761  18.673  0.00  0.00    +0.000 C 
ATOM     17  C   UNL     1       1.085   9.356  20.152  0.00  0.00    +0.000 C 
ATOM     18  C   UNL     1       0.528  10.487  21.018  0.00  0.00    +0.000 C 
ATOM     19  N   UNL     1      -0.793  10.923  20.546  0.00  0.00    +0.000 NA
ATOM     20  C   UNL     1      -1.310  11.993  21.401  0.00  0.00    +0.000 C 
ATOM     21  C   UNL     1      -0.740  11.368  19.146  0.00  0.00    +0.000 C 
ATOM     22  C   UNL     1      -0.229  10.258  18.222  0.00  0.00    +0.000 C 
ENDBRANCH  15  16
ENDBRANCH  14  15
ENDBRANCH   7  14
TORSDOF 3
ENDMDL
MODEL 2
REMARK VINA RESULT:      -7.1      0.843      1.203
REMARK  Name = 
REMARK  5 active torsions:
REMARK  status: ('A' for Active; 'I' for Inactive)
REMARK    1  A    between atoms: C_1  and  C_2
REMARK    2  A    between atoms: C_7  and  O_8
REMARK    3  A    between atoms: O_8  and  C_9
REMARK    4  A    between atoms: C_9  and  C_10
REMARK    5  A    between atoms: N_13  and  C_14
REMARK                            x       y       z     vdW  Elec       q    Type
REMARK                         _______ _______ _______ _____ _____    ______ ____
ROOT
ATOM      1  C   UNL     1       3.653   1.425  18.217  0.00  0.00    +0.000 C 
ATOM      2  C   UNL     1       2.903   2.520  18.898  0.00  0.00    +0.000 A 
ATOM      3  C   UNL     1       1.969   2.296  19.898  0.00  0.00    +0.000 A 
ATOM      4  S   UNL     1       1.261   3.729  20.508  0.00  0.00    +0.000 S 
ATOM      5  C   UNL     1       2.181   4.705  19.453  0.00  0.00    +0.000 A 
ATOM      6  N   UNL     1       2.060   6.067  19.458  0.00  0.00    +0.000 NA
ATOM      7  C   UNL     1       2.816   6.688  18.601  0.00  0.00    +0.000 A 
ATOM      8  C   UNL     1       3.725   6.024  17.696  0.00  0.00    +0.000 A 
ATOM      9  C   UNL     1       4.594   6.474  16.724  0.00  0.00    +0.000 A 
ATOM     10  C   UNL     1       5.226   5.336  16.164  0.00  0.00    +0.000 A 
ATOM     11  C   UNL     1       4.723   4.224  16.807  0.00  0.00    +0.000 A 
ATOM     12  N   UNL     1       3.809   4.644  17.736  0.00  0.00    +0.000 N 
ATOM     13  C   UNL     1       3.004   3.927  18.656  0.00  0.00    +0.000 A 
ENDROOT
BRANCH   7  14
ATOM     14  O   UNL     1       2.843   8.042  18.461  0.00  0.00    +0.000 OA
BRANCH  14  15
ATOM     15  C   UNL     1       1.769   8.602  17.686  0.00  0.00    +0.000 C 
BRANCH  15  16
ATOM     16  C   UNL     1       1.078   9.732  18.461  0.00  0.00    +0.000 C 
ATOM     17  C   UNL     1       1.845  11.050  18.283  0.00  0.00    +0.000 C 
ATOM     18  C   UNL     1       1.201  12.186  19.080  0.00  0.00    +0.000 C 
ATOM     19  N   UNL     1       1.089  11.845  20.504  0.00  0.00    +0.000 NA
ATOM     20  C   UNL     1       0.486  12.954  21.246  0.00  0.00    +0.000 C 
ATOM     21  C   UNL     1       0.310  10.615  20.700  0.00  0.00    +0.000 C 
ATOM     22  C   UNL     1       0.934   9.429  19.958  0.00  0.00    +0.000 C 
ENDBRANCH  15  16
ENDBRANCH  14  15
ENDBRANCH   7  14
TORSDOF 3
ENDMDL
MODEL 3
REMARK VINA RESULT:      -7.0      1.117      1.750
REMARK  Name = 
REMARK  5 active torsions:
REMARK  status: ('A' for Active; 'I' for Inactive)
REMARK    1  A    between atoms: C_1  and  C_2
REMARK    2  A    between atoms: C_7  and  O_8
REMARK    3  A    between atoms: O_8  and  C_9
REMARK    4  A    between atoms: C_9  and  C_10
REMARK    5  A    between atoms: N_13  and  C_14
REMARK                            x       y       z     vdW  Elec       q    Type
REMARK                         _______ _______ _______ _____ _____    ______ ____
ROOT
ATOM      1  C   UNL     1       3.523   1.850  17.924  0.00  0.00    +0.000 C 
ATOM      2  C   UNL     1       2.781   2.597  18.980  0.00  0.00    +0.000 A 
ATOM      3  C   UNL     1       2.045   1.976  19.977  0.00  0.00    +0.000 A 
ATOM      4  S   UNL     1       1.297   3.070  21.059  0.00  0.00    +0.000 S 
ATOM      5  C   UNL     1       1.933   4.419  20.231  0.00  0.00    +0.000 A 
ATOM      6  N   UNL     1       1.674   5.696  20.647  0.00  0.00    +0.000 NA
ATOM      7  C   UNL     1       2.218   6.629  19.923  0.00  0.00    +0.000 A 
ATOM      8  C   UNL     1       3.036   6.376  18.760  0.00  0.00    +0.000 A 
ATOM      9  C   UNL     1       3.690   7.196  17.863  0.00  0.00    +0.000 A 
ATOM     10  C   UNL     1       4.340   6.358  16.923  0.00  0.00    +0.000 A 
ATOM     11  C   UNL     1       4.063   5.052  17.271  0.00  0.00    +0.000 A 
ATOM     12  N   UNL     1       3.268   5.065  18.386  0.00  0.00    +0.000 N 
ATOM     13  C   UNL     1       2.696   4.015  19.148  0.00  0.00    +0.000 A 
ENDROOT
BRANCH   7  14
ATOM     14  O   UNL     1       2.082   7.960  20.182  0.00  0.00    +0.000 OA
BRANCH  14  15
ATOM     15  C   UNL     1       1.142   8.292  21.217  0.00  0.00    +0.000 C 
BRANCH  15  16
ATOM     16  C   UNL     1       0.185   9.394  20.741  0.00  0.00    +0.000 C 
ATOM     17  C   UNL     1       0.758  10.104  19.507  0.00  0.00    +0.000 C 
ATOM     18  C   UNL     1      -0.156  11.237  19.037  0.00  0.00    +0.000 C 
ATOM     19  N   UNL     1      -0.411  12.202  20.114  0.00  0.00    +0.000 NA
ATOM     20  C   UNL     1      -1.273  13.283  19.633  0.00  0.00    +0.000 C 
ATOM     21  C   UNL     1      -1.012  11.551  21.286  0.00  0.00    +0.000 C 
ATOM     22  C   UNL     1      -0.116  10.433  21.829  0.00  0.00    +0.000 C 
ENDBRANCH  15  16
ENDBRANCH  14  15
ENDBRANCH   7  14
TORSDOF 3
ENDMDL
MODEL 4
REMARK VINA RESULT:      -6.9      1.194      1.607
REMARK  Name = 
REMARK  5 active torsions:
REMARK  status: ('A' for Active; 'I' for Inactive)
REMARK    1  A    between atoms: C_1  and  C_2
REMARK    2  A    between atoms: C_7  and  O_8
REMARK    3  A    between atoms: O_8  and  C_9
REMARK    4  A    between atoms: C_9  and  C_10
REMARK    5  A    between atoms: N_13  and  C_14
REMARK                            x       y       z     vdW  Elec       q    Type
REMARK                         _______ _______ _______ _____ _____    ______ ____
ROOT
ATOM      1  C   UNL     1       3.654   1.742  18.141  0.00  0.00    +0.000 C 
ATOM      2  C   UNL     1       2.861   2.509  19.144  0.00  0.00    +0.000 A 
ATOM      3  C   UNL     1       2.106   1.908  20.139  0.00  0.00    +0.000 A 
ATOM      4  S   UNL     1       1.300   3.023  21.155  0.00  0.00    +0.000 S 
ATOM      5  C   UNL     1       1.934   4.356  20.299  0.00  0.00    +0.000 A 
ATOM      6  N   UNL     1       1.634   5.640  20.660  0.00  0.00    +0.000 NA
ATOM      7  C   UNL     1       2.181   6.559  19.920  0.00  0.00    +0.000 A 
ATOM      8  C   UNL     1       3.043   6.283  18.795  0.00  0.00    +0.000 A 
ATOM      9  C   UNL     1       3.709   7.084  17.890  0.00  0.00    +0.000 A 
ATOM     10  C   UNL     1       4.408   6.228  17.003  0.00  0.00    +0.000 A 
ATOM     11  C   UNL     1       4.147   4.929  17.389  0.00  0.00    +0.000 A 
ATOM     12  N   UNL     1       3.316   4.965  18.477  0.00  0.00    +0.000 N 
ATOM     13  C   UNL     1       2.741   3.930  19.257  0.00  0.00    +0.000 A 
ENDROOT
BRANCH   7  14
ATOM     14  O   UNL     1       2.009   7.894  20.126  0.00  0.00    +0.000 OA
BRANCH  14  15
ATOM     15  C   UNL     1       1.356   8.248  21.356  0.00  0.00    +0.000 C 
BRANCH  15  16
ATOM     16  C   UNL     1       0.834   9.690  21.294  0.00  0.00    +0.000 C 
ATOM     17  C   UNL     1      -0.255   9.911  22.353  0.00  0.00    +0.000 C 
ATOM     18  C   UNL     1      -0.823  11.330  22.285  0.00  0.00    +0.000 C 
ATOM     19  N   UNL     1      -1.339  11.637  20.945  0.00  0.00    +0.000 NA
ATOM     20  C   UNL     1      -1.891  12.993  20.912  0.00  0.00    +0.000 C 
ATOM     21  C   UNL     1      -0.295  11.485  19.922  0.00  0.00    +0.000 C 
ATOM     22  C   UNL     1       0.282  10.066  19.913  0.00  0.00    +0.000 C 
ENDBRANCH  15  16
ENDBRANCH  14  15
ENDBRANCH   7  14
TORSDOF 3
ENDMDL
MODEL 5
REMARK VINA RESULT:      -6.9      2.099      3.507
REMARK  Name = 
REMARK  5 active torsions:
REMARK  status: ('A' for Active; 'I' for Inactive)
REMARK    1  A    between atoms: C_1  and  C_2
REMARK    2  A    between atoms: C_7  and  O_8
REMARK    3  A    between atoms: O_8  and  C_9
REMARK    4  A    between atoms: C_9  and  C_10
REMARK    5  A    between atoms: N_13  and  C_14
REMARK                            x       y       z     vdW  Elec       q    Type
REMARK                         _______ _______ _______ _____ _____    ______ ____
ROOT
ATOM      1  C   UNL     1       4.481   2.736  16.975  0.00  0.00    +0.000 C 
ATOM      2  C   UNL     1       4.317   4.188  17.269  0.00  0.00    +0.000 A 
ATOM      3  C   UNL     1       5.021   5.184  16.610  0.00  0.00    +0.000 A 
ATOM      4  S   UNL     1       4.635   6.763  17.143  0.00  0.00    +0.000 S 
ATOM      5  C   UNL     1       3.508   6.171  18.278  0.00  0.00    +0.000 A 
ATOM      6  N   UNL     1       2.800   7.018  19.085  0.00  0.00    +0.000 NA
ATOM      7  C   UNL     1       1.978   6.434  19.906  0.00  0.00    +0.000 A 
ATOM      8  C   UNL     1       1.801   5.003  19.990  0.00  0.00    +0.000 A 
ATOM      9  C   UNL     1       1.009   4.189  20.774  0.00  0.00    +0.000 A 
ATOM     10  C   UNL     1       1.272   2.850  20.392  0.00  0.00    +0.000 A 
ATOM     11  C   UNL     1       2.219   2.884  19.388  0.00  0.00    +0.000 A 
ATOM     12  N   UNL     1       2.540   4.194  19.147  0.00  0.00    +0.000 N 
ATOM     13  C   UNL     1       3.448   4.788  18.235  0.00  0.00    +0.000 A 
ENDROOT
BRANCH   7  14
ATOM     14  O   UNL     1       1.181   7.107  20.782  0.00  0.00    +0.000 OA
BRANCH  14  15
ATOM     15  C   UNL     1       1.677   8.388  21.205  0.00  0.00    +0.000 C 
BRANCH  15  16
ATOM     16  C   UNL     1       0.514   9.345  21.501  0.00  0.00    +0.000 C 
ATOM     17  C   UNL     1       0.859  10.766  21.035  0.00  0.00    +0.000 C 
ATOM     18  C   UNL     1      -0.268  11.750  21.356  0.00  0.00    +0.000 C 
ATOM     19  N   UNL     1      -0.593  11.744  22.788  0.00  0.00    +0.000 NA
ATOM     20  C   UNL     1      -1.660  12.705  23.071  0.00  0.00    +0.000 C 
ATOM     21  C   UNL     1      -0.980  10.401  23.243  0.00  0.00    +0.000 C 
ATOM     22  C   UNL     1       0.131   9.378  22.986  0.00  0.00    +0.000 C 
ENDBRANCH  15  16
ENDBRANCH  14  15
ENDBRANCH   7  14
TORSDOF 3
ENDMDL
MODEL 6
REMARK VINA RESULT:      -6.7      2.605      8.050
REMARK  Name = 
REMARK  5 active torsions:
REMARK  status: ('A' for Active; 'I' for Inactive)
REMARK    1  A    between atoms: C_1  and  C_2
REMARK    2  A    between atoms: C_7  and  O_8
REMARK    3  A    between atoms: O_8  and  C_9
REMARK    4  A    between atoms: C_9  and  C_10
REMARK    5  A    between atoms: N_13  and  C_14
REMARK                            x       y       z     vdW  Elec       q    Type
REMARK                         _______ _______ _______ _____ _____    ______ ____
ROOT
ATOM      1  C   UNL     1      -3.773  13.242  20.574  0.00  0.00    +0.000 C 
ATOM      2  C   UNL     1      -2.361  12.766  20.625  0.00  0.00    +0.000 A 
ATOM      3  C   UNL     1      -1.453  13.178  21.587  0.00  0.00    +0.000 A 
ATOM      4  S   UNL     1       0.096  12.472  21.414  0.00  0.00    +0.000 S 
ATOM      5  C   UNL     1      -0.393  11.587  20.040  0.00  0.00    +0.000 A 
ATOM      6  N   UNL     1       0.472  10.756  19.384  0.00  0.00    +0.000 NA
ATOM      7  C   UNL     1      -0.030  10.145  18.352  0.00  0.00    +0.000 A 
ATOM      8  C   UNL     1      -1.392  10.309  17.901  0.00  0.00    +0.000 A 
ATOM      9  C   UNL     1      -2.114   9.778  16.852  0.00  0.00    +0.000 A 
ATOM     10  C   UNL     1      -3.422  10.318  16.925  0.00  0.00    +0.000 A 
ATOM     11  C   UNL     1      -3.461  11.165  18.013  0.00  0.00    +0.000 A 
ATOM     12  N   UNL     1      -2.225  11.160  18.604  0.00  0.00    +0.000 N 
ATOM     13  C   UNL     1      -1.719  11.845  19.737  0.00  0.00    +0.000 A 
ENDROOT
BRANCH   7  14
ATOM     14  O   UNL     1       0.672   9.272  17.577  0.00  0.00    +0.000 OA
BRANCH  14  15
ATOM     15  C   UNL     1       2.059   9.122  17.922  0.00  0.00    +0.000 C 
BRANCH  15  16
ATOM     16  C   UNL     1       2.424   7.637  18.052  0.00  0.00    +0.000 C 
ATOM     17  C   UNL     1       2.362   7.197  19.521  0.00  0.00    +0.000 C 
ATOM     18  C   UNL     1       2.762   5.730  19.685  0.00  0.00    +0.000 C 
ATOM     19  N   UNL     1       4.097   5.473  19.129  0.00  0.00    +0.000 NA
ATOM     20  C   UNL     1       4.462   4.068  19.314  0.00  0.00    +0.000 C 
ATOM     21  C   UNL     1       4.162   5.836  17.706  0.00  0.00    +0.000 C 
ATOM     22  C   UNL     1       3.812   7.311  17.485  0.00  0.00    +0.000 C 
ENDBRANCH  15  16
ENDBRANCH  14  15
ENDBRANCH   7  14
TORSDOF 3
ENDMDL
MODEL 7
REMARK VINA RESULT:      -6.6      1.818      3.013
REMARK  Name = 
REMARK  5 active torsions:
REMARK  status: ('A' for Active; 'I' for Inactive)
REMARK    1  A    between atoms: C_1  and  C_2
REMARK    2  A    between atoms: C_7  and  O_8
REMARK    3  A    between atoms: O_8  and  C_9
REMARK    4  A    between atoms: C_9  and  C_10
REMARK    5  A    between atoms: N_13  and  C_14
REMARK                            x       y       z     vdW  Elec       q    Type
REMARK                         _______ _______ _______ _____ _____    ______ ____
ROOT
ATOM      1  C   UNL     1       4.007   1.858  17.758  0.00  0.00    +0.000 C 
ATOM      2  C   UNL     1       4.230   3.285  17.386  0.00  0.00    +0.000 A 
ATOM      3  C   UNL     1       5.090   3.683  16.375  0.00  0.00    +0.000 A 
ATOM      4  S   UNL     1       5.152   5.379  16.157  0.00  0.00    +0.000 S 
ATOM      5  C   UNL     1       4.026   5.644  17.410  0.00  0.00    +0.000 A 
ATOM      6  N   UNL     1       3.624   6.906  17.751  0.00  0.00    +0.000 NA
ATOM      7  C   UNL     1       2.766   6.963  18.726  0.00  0.00    +0.000 A 
ATOM      8  C   UNL     1       2.254   5.806  19.422  0.00  0.00    +0.000 A 
ATOM      9  C   UNL     1       1.365   5.640  20.464  0.00  0.00    +0.000 A 
ATOM     10  C   UNL     1       1.258   4.249  20.710  0.00  0.00    +0.000 A 
ATOM     11  C   UNL     1       2.086   3.604  19.813  0.00  0.00    +0.000 A 
ATOM     12  N   UNL     1       2.692   4.553  19.033  0.00  0.00    +0.000 N 
ATOM     13  C   UNL     1       3.627   4.443  17.973  0.00  0.00    +0.000 A 
ENDROOT
BRANCH   7  14
ATOM     14  O   UNL     1       2.243   8.127  19.203  0.00  0.00    +0.000 OA
BRANCH  14  15
ATOM     15  C   UNL     1       1.647   8.983  18.213  0.00  0.00    +0.000 C 
BRANCH  15  16
ATOM     16  C   UNL     1       0.823  10.090  18.886  0.00  0.00    +0.000 C 
ATOM     17  C   UNL     1       1.539  11.442  18.759  0.00  0.00    +0.000 C 
ATOM     18  C   UNL     1       0.759  12.558  19.457  0.00  0.00    +0.000 C 
ATOM     19  N   UNL     1       0.513  12.236  20.869  0.00  0.00    +0.000 NA
ATOM     20  C   UNL     1      -0.218  13.326  21.518  0.00  0.00    +0.000 C 
ATOM     21  C   UNL     1      -0.221  10.972  21.010  0.00  0.00    +0.000 C 
ATOM     22  C   UNL     1       0.536   9.806  20.366  0.00  0.00    +0.000 C 
ENDBRANCH  15  16
ENDBRANCH  14  15
ENDBRANCH   7  14
TORSDOF 3
ENDMDL
MODEL 8
REMARK VINA RESULT:      -6.5      1.832      2.836
REMARK  Name = 
REMARK  5 active torsions:
REMARK  status: ('A' for Active; 'I' for Inactive)
REMARK    1  A    between atoms: C_1  and  C_2
REMARK    2  A    between atoms: C_7  and  O_8
REMARK    3  A    between atoms: O_8  and  C_9
REMARK    4  A    between atoms: C_9  and  C_10
REMARK    5  A    between atoms: N_13  and  C_14
REMARK                            x       y       z     vdW  Elec       q    Type
REMARK                         _______ _______ _______ _____ _____    ______ ____
ROOT
ATOM      1  C   UNL     1       5.381   4.171  17.197  0.00  0.00    +0.000 C 
ATOM      2  C   UNL     1       4.472   3.987  18.365  0.00  0.00    +0.000 A 
ATOM      3  C   UNL     1       4.404   2.813  19.100  0.00  0.00    +0.000 A 
ATOM      4  S   UNL     1       3.280   2.876  20.388  0.00  0.00    +0.000 S 
ATOM      5  C   UNL     1       2.841   4.480  20.009  0.00  0.00    +0.000 A 
ATOM      6  N   UNL     1       1.903   5.154  20.742  0.00  0.00    +0.000 NA
ATOM      7  C   UNL     1       1.662   6.367  20.342  0.00  0.00    +0.000 A 
ATOM      8  C   UNL     1       2.313   6.990  19.213  0.00  0.00    +0.000 A 
ATOM      9  C   UNL     1       2.208   8.233  18.624  0.00  0.00    +0.000 A 
ATOM     10  C   UNL     1       3.115   8.262  17.536  0.00  0.00    +0.000 A 
ATOM     11  C   UNL     1       3.747   7.037  17.491  0.00  0.00    +0.000 A 
ATOM     12  N   UNL     1       3.257   6.264  18.510  0.00  0.00    +0.000 N 
ATOM     13  C   UNL     1       3.552   4.937  18.912  0.00  0.00    +0.000 A 
ENDROOT
BRANCH   7  14
ATOM     14  O   UNL     1       0.768   7.197  20.948  0.00  0.00    +0.000 OA
BRANCH  14  15
ATOM     15  C   UNL     1       1.342   8.326  21.629  0.00  0.00    +0.000 C 
BRANCH  15  16
ATOM     16  C   UNL     1       0.325   9.472  21.723  0.00  0.00    +0.000 C 
ATOM     17  C   UNL     1       0.951  10.784  21.232  0.00  0.00    +0.000 C 
ATOM     18  C   UNL     1      -0.029  11.953  21.355  0.00  0.00    +0.000 C 
ATOM     19  N   UNL     1      -0.518  12.100  22.732  0.00  0.00    +0.000 NA
ATOM     20  C   UNL     1      -1.439  13.234  22.825  0.00  0.00    +0.000 C 
ATOM     21  C   UNL     1      -1.170  10.871  23.202  0.00  0.00    +0.000 C 
ATOM     22  C   UNL     1      -0.220   9.671  23.144  0.00  0.00    +0.000 C 
ENDBRANCH  15  16
ENDBRANCH  14  15
ENDBRANCH   7  14
TORSDOF 3
ENDMDL
MODEL 9
REMARK VINA RESULT:      -6.5      2.379      7.076
REMARK  Name = 
REMARK  5 active torsions:
REMARK  status: ('A' for Active; 'I' for Inactive)
REMARK    1  A    between atoms: C_1  and  C_2
REMARK    2  A    between atoms: C_7  and  O_8
REMARK    3  A    between atoms: O_8  and  C_9
REMARK    4  A    between atoms: C_9  and  C_10
REMARK    5  A    between atoms: N_13  and  C_14
REMARK                            x       y       z     vdW  Elec       q    Type
REMARK                         _______ _______ _______ _____ _____    ______ ____
ROOT
ATOM      1  C   UNL     1      -0.800  12.467  19.462  0.00  0.00    +0.000 C 
ATOM      2  C   UNL     1      -0.602  11.474  20.557  0.00  0.00    +0.000 A 
ATOM      3  C   UNL     1      -1.169  11.605  21.815  0.00  0.00    +0.000 A 
ATOM      4  S   UNL     1      -0.781  10.321  22.877  0.00  0.00    +0.000 S 
ATOM      5  C   UNL     1       0.162   9.540  21.689  0.00  0.00    +0.000 A 
ATOM      6  N   UNL     1       0.794   8.355  21.947  0.00  0.00    +0.000 NA
ATOM      7  C   UNL     1       1.481   7.873  20.955  0.00  0.00    +0.000 A 
ATOM      8  C   UNL     1       1.594   8.511  19.664  0.00  0.00    +0.000 A 
ATOM      9  C   UNL     1       2.260   8.187  18.500  0.00  0.00    +0.000 A 
ATOM     10  C   UNL     1       1.988   9.211  17.560  0.00  0.00    +0.000 A 
ATOM     11  C   UNL     1       1.167  10.133  18.177  0.00  0.00    +0.000 A 
ATOM     12  N   UNL     1       0.931   9.706  19.457  0.00  0.00    +0.000 N 
ATOM     13  C   UNL     1       0.168  10.269  20.511  0.00  0.00    +0.000 A 
ENDROOT
BRANCH   7  14
ATOM     14  O   UNL     1       2.173   6.701  21.016  0.00  0.00    +0.000 OA
BRANCH  14  15
ATOM     15  C   UNL     1       1.464   5.544  20.540  0.00  0.00    +0.000 C 
BRANCH  15  16
ATOM     16  C   UNL     1       2.363   4.699  19.626  0.00  0.00    +0.000 C 
ATOM     17  C   UNL     1       3.797   5.246  19.634  0.00  0.00    +0.000 C 
ATOM     18  C   UNL     1       4.706   4.447  18.698  0.00  0.00    +0.000 C 
ATOM     19  N   UNL     1       4.174   4.419  17.329  0.00  0.00    +0.000 NA
ATOM     20  C   UNL     1       5.071   3.664  16.452  0.00  0.00    +0.000 C 
ATOM     21  C   UNL     1       2.821   3.847  17.293  0.00  0.00    +0.000 C 
ATOM     22  C   UNL     1       1.853   4.635  18.181  0.00  0.00    +0.000 C 
ENDBRANCH  15  16
ENDBRANCH  14  15
ENDBRANCH   7  14
TORSDOF 3
ENDMDL
