MODEL 1
REMARK VINA RESULT:      -6.6      0.000      0.000
REMARK  Name = 
REMARK  8 active torsions:
REMARK  status: ('A' for Active; 'I' for Inactive)
REMARK    1  A    between atoms: C_1  and  O_2
REMARK    2  A    between atoms: O_2  and  C_3
REMARK    3  A    between atoms: C_5  and  C_6
REMARK    4  A    between atoms: C_15  and  C_16
REMARK    5  A    between atoms: C_18  and  C_19
REMARK    6  A    between atoms: C_24  and  N_25
REMARK    7  A    between atoms: C_31  and  O_32
REMARK    8  A    between atoms: O_32  and  C_33
REMARK                            x       y       z     vdW  Elec       q    Type
REMARK                         _______ _______ _______ _____ _____    ______ ____
ROOT
ATOM      1  C   UNL     1      -0.743  14.038  20.306  0.00  0.00    +0.000 C 
ATOM      2  O   UNL     1      -0.746  15.019  19.564  0.00  0.00    +0.000 OA
ATOM      3  N   UNL     1      -1.292  14.091  21.591  0.00  0.00    +0.000 N 
ATOM      4  C   UNL     1      -1.951  15.307  22.056  0.00  0.00    +0.000 C 
ATOM      5  C   UNL     1      -2.864  14.886  23.220  0.00  0.00    +0.000 C 
ATOM      6  C   UNL     1      -4.362  15.009  22.919  0.00  0.00    +0.000 C 
ATOM      7  N   UNL     1      -4.742  13.721  22.369  0.00  0.00    +0.000 N 
ATOM      8  C   UNL     1      -5.306  13.647  21.106  0.00  0.00    +0.000 A 
ATOM      9  N   UNL     1      -5.124  12.508  20.415  0.00  0.00    +0.000 NA
ATOM     10  C   UNL     1      -5.612  12.414  19.167  0.00  0.00    +0.000 A 
ATOM     11  C   UNL     1      -5.300  11.164  18.406  0.00  0.00    +0.000 C 
ATOM     12  C   UNL     1      -6.351  13.420  18.596  0.00  0.00    +0.000 A 
ATOM     13  C   UNL     1      -6.543  14.545  19.369  0.00  0.00    +0.000 A 
ATOM     14  C   UNL     1      -7.328  15.697  18.812  0.00  0.00    +0.000 C 
ATOM     15  N   UNL     1      -6.016  14.676  20.613  0.00  0.00    +0.000 NA
ATOM     16  C   UNL     1      -3.788  12.682  22.732  0.00  0.00    +0.000 C 
ATOM     17  C   UNL     1      -2.606  13.384  23.412  0.00  0.00    +0.000 C 
ATOM     18  C   UNL     1      -1.275  13.134  22.694  0.00  0.00    +0.000 C 
ENDROOT
BRANCH   1  21
ATOM     19  C   UNL     1      -0.992  10.677  18.532  0.00  0.00    +0.000 A 
ATOM     20  C   UNL     1      -1.265  11.915  19.145  0.00  0.00    +0.000 A 
ATOM     21  C   UNL     1      -0.277  12.736  19.723  0.00  0.00    +0.000 A 
ATOM     22  C   UNL     1       1.056  12.388  19.476  0.00  0.00    +0.000 A 
ATOM     23  C   UNL     1       1.336  11.222  18.742  0.00  0.00    +0.000 A 
ATOM     24  C   UNL     1       0.337  10.344  18.300  0.00  0.00    +0.000 A 
BRANCH  22  25
ATOM     25  N   UNL     1       2.196  13.093  19.940  0.00  0.00    +0.000 N 
ATOM     26  N   UNL     1       2.399  13.246  21.288  0.00  0.00    +0.000 NA
ATOM     27  C   UNL     1       3.353  14.166  21.344  0.00  0.00    +0.000 A 
ATOM     28  C   UNL     1       3.716  14.533  20.056  0.00  0.00    +0.000 A 
ATOM     29  N   UNL     1       2.980  13.875  19.154  0.00  0.00    +0.000 NA
ENDBRANCH  22  25
BRANCH  19  31
ATOM     30  C   UNL     1      -2.348   9.886  16.712  0.00  0.00    +0.000 C 
ATOM     31  O   UNL     1      -1.993   9.849  18.093  0.00  0.00    +0.000 OA
ENDBRANCH  19  31
BRANCH  24  32
ATOM     32  O   UNL     1       0.892   9.249  17.694  0.00  0.00    +0.000 OA
ATOM     33  C   UNL     1       2.227   8.881  17.957  0.00  0.00    +0.000 C 
ENDBRANCH  24  32
ENDBRANCH   1  21
TORSDOF 4
ENDMDL
MODEL 2
REMARK VINA RESULT:      -6.5      2.209      3.547
REMARK  Name = 
REMARK  8 active torsions:
REMARK  status: ('A' for Active; 'I' for Inactive)
REMARK    1  A    between atoms: C_1  and  O_2
REMARK    2  A    between atoms: O_2  and  C_3
REMARK    3  A    between atoms: C_5  and  C_6
REMARK    4  A    between atoms: C_15  and  C_16
REMARK    5  A    between atoms: C_18  and  C_19
REMARK    6  A    between atoms: C_24  and  N_25
REMARK    7  A    between atoms: C_31  and  O_32
REMARK    8  A    between atoms: O_32  and  C_33
REMARK                            x       y       z     vdW  Elec       q    Type
REMARK                         _______ _______ _______ _____ _____    ______ ____
ROOT
ATOM      1  C   UNL     1      -0.755  12.570  19.874  0.00  0.00    +0.000 C 
ATOM      2  O   UNL     1      -0.115  13.517  19.418  0.00  0.00    +0.000 OA
ATOM      3  N   UNL     1      -0.944  12.412  21.251  0.00  0.00    +0.000 N 
ATOM      4  C   UNL     1      -0.442  13.418  22.181  0.00  0.00    +0.000 C 
ATOM      5  C   UNL     1      -1.237  13.238  23.485  0.00  0.00    +0.000 C 
ATOM      6  C   UNL     1      -2.182  14.400  23.810  0.00  0.00    +0.000 C 
ATOM      7  N   UNL     1      -3.443  14.046  23.183  0.00  0.00    +0.000 N 
ATOM      8  C   UNL     1      -4.011  14.892  22.245  0.00  0.00    +0.000 A 
ATOM      9  N   UNL     1      -4.801  14.335  21.310  0.00  0.00    +0.000 NA
ATOM     10  C   UNL     1      -5.331  15.114  20.352  0.00  0.00    +0.000 A 
ATOM     11  C   UNL     1      -6.122  14.433  19.281  0.00  0.00    +0.000 C 
ATOM     12  C   UNL     1      -5.148  16.474  20.335  0.00  0.00    +0.000 A 
ATOM     13  C   UNL     1      -4.366  16.994  21.345  0.00  0.00    +0.000 A 
ATOM     14  C   UNL     1      -4.106  18.472  21.389  0.00  0.00    +0.000 C 
ATOM     15  N   UNL     1      -3.784  16.216  22.292  0.00  0.00    +0.000 NA
ATOM     16  C   UNL     1      -3.529  12.616  22.925  0.00  0.00    +0.000 C 
ATOM     17  C   UNL     1      -2.148  12.025  23.238  0.00  0.00    +0.000 C 
ATOM     18  C   UNL     1      -1.518  11.319  22.032  0.00  0.00    +0.000 C 
ENDROOT
BRANCH   1  21
ATOM     19  C   UNL     1      -3.471  11.450  17.451  0.00  0.00    +0.000 A 
ATOM     20  C   UNL     1      -2.694  12.148  18.396  0.00  0.00    +0.000 A 
ATOM     21  C   UNL     1      -1.462  11.682  18.894  0.00  0.00    +0.000 A 
ATOM     22  C   UNL     1      -0.898  10.576  18.247  0.00  0.00    +0.000 A 
ATOM     23  C   UNL     1      -1.609   9.956  17.204  0.00  0.00    +0.000 A 
ATOM     24  C   UNL     1      -2.898  10.352  16.822  0.00  0.00    +0.000 A 
BRANCH  22  25
ATOM     25  N   UNL     1       0.342   9.970  18.571  0.00  0.00    +0.000 N 
ATOM     26  N   UNL     1       1.246   9.698  17.576  0.00  0.00    +0.000 NA
ATOM     27  C   UNL     1       2.121   8.901  18.176  0.00  0.00    +0.000 A 
ATOM     28  C   UNL     1       1.749   8.724  19.502  0.00  0.00    +0.000 A 
ATOM     29  N   UNL     1       0.614   9.381  19.763  0.00  0.00    +0.000 NA
ENDBRANCH  22  25
BRANCH  19  31
ATOM     30  C   UNL     1      -5.854  11.266  17.702  0.00  0.00    +0.000 C 
ATOM     31  O   UNL     1      -4.722  11.875  17.085  0.00  0.00    +0.000 OA
ENDBRANCH  19  31
BRANCH  24  32
ATOM     32  O   UNL     1      -3.387   9.523  15.848  0.00  0.00    +0.000 OA
ATOM     33  C   UNL     1      -3.437   9.943  14.504  0.00  0.00    +0.000 C 
ENDBRANCH  24  32
ENDBRANCH   1  21
TORSDOF 4
ENDMDL
MODEL 3
REMARK VINA RESULT:      -6.4      3.166      6.602
REMARK  Name = 
REMARK  8 active torsions:
REMARK  status: ('A' for Active; 'I' for Inactive)
REMARK    1  A    between atoms: C_1  and  O_2
REMARK    2  A    between atoms: O_2  and  C_3
REMARK    3  A    between atoms: C_5  and  C_6
REMARK    4  A    between atoms: C_15  and  C_16
REMARK    5  A    between atoms: C_18  and  C_19
REMARK    6  A    between atoms: C_24  and  N_25
REMARK    7  A    between atoms: C_31  and  O_32
REMARK    8  A    between atoms: O_32  and  C_33
REMARK                            x       y       z     vdW  Elec       q    Type
REMARK                         _______ _______ _______ _____ _____    ______ ____
ROOT
ATOM      1  C   UNL     1      -0.483  12.609  19.701  0.00  0.00    +0.000 C 
ATOM      2  O   UNL     1      -1.144  12.538  18.666  0.00  0.00    +0.000 OA
ATOM      3  N   UNL     1       0.908  12.756  19.672  0.00  0.00    +0.000 N 
ATOM      4  C   UNL     1       1.603  12.902  18.398  0.00  0.00    +0.000 C 
ATOM      5  C   UNL     1       2.961  13.550  18.717  0.00  0.00    +0.000 C 
ATOM      6  C   UNL     1       3.117  14.978  18.183  0.00  0.00    +0.000 C 
ATOM      7  N   UNL     1       2.640  15.834  19.255  0.00  0.00    +0.000 N 
ATOM      8  C   UNL     1       1.594  16.713  19.025  0.00  0.00    +0.000 A 
ATOM      9  N   UNL     1       0.826  17.046  20.077  0.00  0.00    +0.000 NA
ATOM     10  C   UNL     1      -0.228  17.858  19.888  0.00  0.00    +0.000 A 
ATOM     11  C   UNL     1      -1.105  18.120  21.070  0.00  0.00    +0.000 C 
ATOM     12  C   UNL     1      -0.509  18.412  18.664  0.00  0.00    +0.000 A 
ATOM     13  C   UNL     1       0.339  18.070  17.633  0.00  0.00    +0.000 A 
ATOM     14  C   UNL     1       0.091  18.624  16.260  0.00  0.00    +0.000 C 
ATOM     15  N   UNL     1       1.380  17.215  17.797  0.00  0.00    +0.000 NA
ATOM     16  C   UNL     1       2.659  15.145  20.537  0.00  0.00    +0.000 C 
ATOM     17  C   UNL     1       2.997  13.677  20.248  0.00  0.00    +0.000 C 
ATOM     18  C   UNL     1       1.910  12.711  20.733  0.00  0.00    +0.000 C 
ENDROOT
BRANCH   1  21
ATOM     19  C   UNL     1      -2.912  14.007  22.280  0.00  0.00    +0.000 A 
ATOM     20  C   UNL     1      -2.112  13.792  21.142  0.00  0.00    +0.000 A 
ATOM     21  C   UNL     1      -1.238  12.697  20.995  0.00  0.00    +0.000 A 
ATOM     22  C   UNL     1      -1.345  11.673  21.943  0.00  0.00    +0.000 A 
ATOM     23  C   UNL     1      -2.248  11.820  23.011  0.00  0.00    +0.000 A 
ATOM     24  C   UNL     1      -3.003  12.982  23.214  0.00  0.00    +0.000 A 
BRANCH  22  25
ATOM     25  N   UNL     1      -0.583  10.477  21.961  0.00  0.00    +0.000 N 
ATOM     26  N   UNL     1       0.274  10.233  23.005  0.00  0.00    +0.000 NA
ATOM     27  C   UNL     1       1.003   9.217  22.562  0.00  0.00    +0.000 A 
ATOM     28  C   UNL     1       0.572   8.860  21.292  0.00  0.00    +0.000 A 
ATOM     29  N   UNL     1      -0.421   9.661  20.889  0.00  0.00    +0.000 NA
ENDBRANCH  22  25
BRANCH  19  31
ATOM     30  C   UNL     1      -4.074  15.854  21.274  0.00  0.00    +0.000 C 
ATOM     31  O   UNL     1      -3.655  15.148  22.439  0.00  0.00    +0.000 OA
ENDBRANCH  19  31
BRANCH  24  32
ATOM     32  O   UNL     1      -3.726  12.890  24.374  0.00  0.00    +0.000 OA
ATOM     33  C   UNL     1      -5.105  12.605  24.341  0.00  0.00    +0.000 C 
ENDBRANCH  24  32
ENDBRANCH   1  21
TORSDOF 4
ENDMDL
MODEL 4
REMARK VINA RESULT:      -6.4      2.766      6.636
REMARK  Name = 
REMARK  8 active torsions:
REMARK  status: ('A' for Active; 'I' for Inactive)
REMARK    1  A    between atoms: C_1  and  O_2
REMARK    2  A    between atoms: O_2  and  C_3
REMARK    3  A    between atoms: C_5  and  C_6
REMARK    4  A    between atoms: C_15  and  C_16
REMARK    5  A    between atoms: C_18  and  C_19
REMARK    6  A    between atoms: C_24  and  N_25
REMARK    7  A    between atoms: C_31  and  O_32
REMARK    8  A    between atoms: O_32  and  C_33
REMARK                            x       y       z     vdW  Elec       q    Type
REMARK                         _______ _______ _______ _____ _____    ______ ____
ROOT
ATOM      1  C   UNL     1      -1.033  13.898  22.875  0.00  0.00    +0.000 C 
ATOM      2  O   UNL     1      -0.522  12.960  23.485  0.00  0.00    +0.000 OA
ATOM      3  N   UNL     1      -0.272  14.739  22.057  0.00  0.00    +0.000 N 
ATOM      4  C   UNL     1       1.148  14.474  21.852  0.00  0.00    +0.000 C 
ATOM      5  C   UNL     1       1.543  15.205  20.558  0.00  0.00    +0.000 C 
ATOM      6  C   UNL     1       1.903  14.275  19.395  0.00  0.00    +0.000 C 
ATOM      7  N   UNL     1       0.652  14.048  18.693  0.00  0.00    +0.000 N 
ATOM      8  C   UNL     1       0.172  12.758  18.532  0.00  0.00    +0.000 A 
ATOM      9  N   UNL     1      -1.159  12.606  18.419  0.00  0.00    +0.000 NA
ATOM     10  C   UNL     1      -1.669  11.367  18.311  0.00  0.00    +0.000 A 
ATOM     11  C   UNL     1      -3.159  11.244  18.285  0.00  0.00    +0.000 C 
ATOM     12  C   UNL     1      -0.869  10.253  18.244  0.00  0.00    +0.000 A 
ATOM     13  C   UNL     1       0.489  10.477  18.320  0.00  0.00    +0.000 A 
ATOM     14  C   UNL     1       1.432   9.309  18.269  0.00  0.00    +0.000 C 
ATOM     15  N   UNL     1       1.018  11.716  18.477  0.00  0.00    +0.000 NA
ATOM     16  C   UNL     1      -0.324  15.087  18.992  0.00  0.00    +0.000 C 
ATOM     17  C   UNL     1       0.273  15.948  20.112  0.00  0.00    +0.000 C 
ATOM     18  C   UNL     1      -0.606  15.982  21.367  0.00  0.00    +0.000 C 
ENDROOT
BRANCH   1  21
ATOM     19  C   UNL     1      -4.655  12.992  22.127  0.00  0.00    +0.000 A 
ATOM     20  C   UNL     1      -3.249  13.046  22.177  0.00  0.00    +0.000 A 
ATOM     21  C   UNL     1      -2.529  14.008  22.911  0.00  0.00    +0.000 A 
ATOM     22  C   UNL     1      -3.263  14.805  23.797  0.00  0.00    +0.000 A 
ATOM     23  C   UNL     1      -4.660  14.659  23.854  0.00  0.00    +0.000 A 
ATOM     24  C   UNL     1      -5.369  13.794  23.010  0.00  0.00    +0.000 A 
BRANCH  22  25
ATOM     25  N   UNL     1      -2.730  15.809  24.645  0.00  0.00    +0.000 N 
ATOM     26  N   UNL     1      -2.642  17.102  24.195  0.00  0.00    +0.000 NA
ATOM     27  C   UNL     1      -1.860  17.680  25.098  0.00  0.00    +0.000 A 
ATOM     28  C   UNL     1      -1.510  16.750  26.067  0.00  0.00    +0.000 A 
ATOM     29  N   UNL     1      -2.038  15.555  25.785  0.00  0.00    +0.000 NA
ENDBRANCH  22  25
BRANCH  19  31
ATOM     30  C   UNL     1      -5.978  12.641  20.152  0.00  0.00    +0.000 C 
ATOM     31  O   UNL     1      -5.319  12.120  21.304  0.00  0.00    +0.000 OA
ENDBRANCH  19  31
BRANCH  24  32
ATOM     32  O   UNL     1      -6.717  13.917  23.216  0.00  0.00    +0.000 OA
ATOM     33  C   UNL     1      -7.422  12.949  23.959  0.00  0.00    +0.000 C 
ENDBRANCH  24  32
ENDBRANCH   1  21
TORSDOF 4
ENDMDL
MODEL 5
REMARK VINA RESULT:      -6.4      2.170      2.995
REMARK  Name = 
REMARK  8 active torsions:
REMARK  status: ('A' for Active; 'I' for Inactive)
REMARK    1  A    between atoms: C_1  and  O_2
REMARK    2  A    between atoms: O_2  and  C_3
REMARK    3  A    between atoms: C_5  and  C_6
REMARK    4  A    between atoms: C_15  and  C_16
REMARK    5  A    between atoms: C_18  and  C_19
REMARK    6  A    between atoms: C_24  and  N_25
REMARK    7  A    between atoms: C_31  and  O_32
REMARK    8  A    between atoms: O_32  and  C_33
REMARK                            x       y       z     vdW  Elec       q    Type
REMARK                         _______ _______ _______ _____ _____    ______ ____
ROOT
ATOM      1  C   UNL     1      -1.992  13.761  20.365  0.00  0.00    +0.000 C 
ATOM      2  O   UNL     1      -2.173  14.895  19.923  0.00  0.00    +0.000 OA
ATOM      3  N   UNL     1      -1.733  13.538  21.721  0.00  0.00    +0.000 N 
ATOM      4  C   UNL     1      -1.743  14.653  22.662  0.00  0.00    +0.000 C 
ATOM      5  C   UNL     1      -1.951  14.041  24.057  0.00  0.00    +0.000 C 
ATOM      6  C   UNL     1      -3.301  14.382  24.698  0.00  0.00    +0.000 C 
ATOM      7  N   UNL     1      -4.197  13.320  24.276  0.00  0.00    +0.000 N 
ATOM      8  C   UNL     1      -5.352  13.627  23.575  0.00  0.00    +0.000 A 
ATOM      9  N   UNL     1      -5.833  12.689  22.740  0.00  0.00    +0.000 NA
ATOM     10  C   UNL     1      -6.924  12.965  22.005  0.00  0.00    +0.000 A 
ATOM     11  C   UNL     1      -7.362  11.927  21.021  0.00  0.00    +0.000 C 
ATOM     12  C   UNL     1      -7.604  14.151  22.128  0.00  0.00    +0.000 A 
ATOM     13  C   UNL     1      -7.089  15.055  23.033  0.00  0.00    +0.000 A 
ATOM     14  C   UNL     1      -7.768  16.382  23.216  0.00  0.00    +0.000 C 
ATOM     15  N   UNL     1      -5.963  14.812  23.748  0.00  0.00    +0.000 NA
ATOM     16  C   UNL     1      -3.462  12.135  23.857  0.00  0.00    +0.000 C 
ATOM     17  C   UNL     1      -1.977  12.521  23.831  0.00  0.00    +0.000 C 
ATOM     18  C   UNL     1      -1.340  12.334  22.449  0.00  0.00    +0.000 C 
ENDROOT
BRANCH   1  21
ATOM     19  C   UNL     1      -3.950  11.228  18.304  0.00  0.00    +0.000 A 
ATOM     20  C   UNL     1      -3.562  12.262  19.177  0.00  0.00    +0.000 A 
ATOM     21  C   UNL     1      -2.221  12.612  19.428  0.00  0.00    +0.000 A 
ATOM     22  C   UNL     1      -1.253  12.036  18.597  0.00  0.00    +0.000 A 
ATOM     23  C   UNL     1      -1.652  11.102  17.624  0.00  0.00    +0.000 A 
ATOM     24  C   UNL     1      -2.975  10.663  17.490  0.00  0.00    +0.000 A 
BRANCH  22  25
ATOM     25  N   UNL     1       0.143  12.276  18.663  0.00  0.00    +0.000 N 
ATOM     26  N   UNL     1       0.641  13.500  18.295  0.00  0.00    +0.000 NA
ATOM     27  C   UNL     1       1.946  13.278  18.205  0.00  0.00    +0.000 A 
ATOM     28  C   UNL     1       2.211  11.955  18.529  0.00  0.00    +0.000 A 
ATOM     29  N   UNL     1       1.078  11.301  18.805  0.00  0.00    +0.000 NA
ENDBRANCH  22  25
BRANCH  19  31
ATOM     30  C   UNL     1      -6.183  11.731  17.570  0.00  0.00    +0.000 C 
ATOM     31  O   UNL     1      -5.258  10.834  18.181  0.00  0.00    +0.000 OA
ENDBRANCH  19  31
BRANCH  24  32
ATOM     32  O   UNL     1      -3.064   9.690  16.531  0.00  0.00    +0.000 OA
ATOM     33  C   UNL     1      -3.032  10.025  15.162  0.00  0.00    +0.000 C 
ENDBRANCH  24  32
ENDBRANCH   1  21
TORSDOF 4
ENDMDL
MODEL 6
REMARK VINA RESULT:      -6.3      2.812      6.973
REMARK  Name = 
REMARK  8 active torsions:
REMARK  status: ('A' for Active; 'I' for Inactive)
REMARK    1  A    between atoms: C_1  and  O_2
REMARK    2  A    between atoms: O_2  and  C_3
REMARK    3  A    between atoms: C_5  and  C_6
REMARK    4  A    between atoms: C_15  and  C_16
REMARK    5  A    between atoms: C_18  and  C_19
REMARK    6  A    between atoms: C_24  and  N_25
REMARK    7  A    between atoms: C_31  and  O_32
REMARK    8  A    between atoms: O_32  and  C_33
REMARK                            x       y       z     vdW  Elec       q    Type
REMARK                         _______ _______ _______ _____ _____    ______ ____
ROOT
ATOM      1  C   UNL     1      -5.386  13.485  21.983  0.00  0.00    +0.000 C 
ATOM      2  O   UNL     1      -5.758  12.510  22.635  0.00  0.00    +0.000 OA
ATOM      3  N   UNL     1      -4.486  14.416  22.509  0.00  0.00    +0.000 N 
ATOM      4  C   UNL     1      -3.906  14.210  23.832  0.00  0.00    +0.000 C 
ATOM      5  C   UNL     1      -2.629  15.064  23.884  0.00  0.00    +0.000 C 
ATOM      6  C   UNL     1      -1.331  14.252  23.942  0.00  0.00    +0.000 C 
ATOM      7  N   UNL     1      -0.948  14.054  22.555  0.00  0.00    +0.000 N 
ATOM      8  C   UNL     1      -0.793  12.771  22.056  0.00  0.00    +0.000 A 
ATOM      9  N   UNL     1      -1.004  12.592  20.740  0.00  0.00    +0.000 NA
ATOM     10  C   UNL     1      -0.912  11.355  20.225  0.00  0.00    +0.000 A 
ATOM     11  C   UNL     1      -1.250  11.194  18.777  0.00  0.00    +0.000 C 
ATOM     12  C   UNL     1      -0.543  10.274  20.987  0.00  0.00    +0.000 A 
ATOM     13  C   UNL     1      -0.296  10.528  22.319  0.00  0.00    +0.000 A 
ATOM     14  C   UNL     1       0.099   9.395  23.223  0.00  0.00    +0.000 C 
ATOM     15  N   UNL     1      -0.430  11.762  22.865  0.00  0.00    +0.000 NA
ATOM     16  C   UNL     1      -1.578  15.035  21.683  0.00  0.00    +0.000 C 
ATOM     17  C   UNL     1      -2.587  15.809  22.540  0.00  0.00    +0.000 C 
ATOM     18  C   UNL     1      -4.021  15.706  22.006  0.00  0.00    +0.000 C 
ENDROOT
BRANCH   1  21
ATOM     19  C   UNL     1      -5.806  12.339  18.375  0.00  0.00    +0.000 A 
ATOM     20  C   UNL     1      -5.464  12.448  19.737  0.00  0.00    +0.000 A 
ATOM     21  C   UNL     1      -5.807  13.550  20.544  0.00  0.00    +0.000 A 
ATOM     22  C   UNL     1      -6.714  14.469  20.004  0.00  0.00    +0.000 A 
ATOM     23  C   UNL     1      -7.170  14.289  18.686  0.00  0.00    +0.000 A 
ATOM     24  C   UNL     1      -6.704  13.263  17.854  0.00  0.00    +0.000 A 
BRANCH  22  25
ATOM     25  N   UNL     1      -7.209  15.626  20.658  0.00  0.00    +0.000 N 
ATOM     26  N   UNL     1      -6.793  16.868  20.249  0.00  0.00    +0.000 NA
ATOM     27  C   UNL     1      -7.208  17.660  21.229  0.00  0.00    +0.000 A 
ATOM     28  C   UNL     1      -7.870  16.902  22.185  0.00  0.00    +0.000 A 
ATOM     29  N   UNL     1      -7.864  15.608  21.847  0.00  0.00    +0.000 NA
ENDBRANCH  22  25
BRANCH  19  31
ATOM     30  C   UNL     1      -4.264  11.567  16.701  0.00  0.00    +0.000 C 
ATOM     31  O   UNL     1      -5.348  11.311  17.592  0.00  0.00    +0.000 OA
ENDBRANCH  19  31
BRANCH  24  32
ATOM     32  O   UNL     1      -7.244  13.377  16.601  0.00  0.00    +0.000 OA
ATOM     33  C   UNL     1      -7.592  14.639  16.080  0.00  0.00    +0.000 C 
ENDBRANCH  24  32
ENDBRANCH   1  21
TORSDOF 4
ENDMDL
MODEL 7
REMARK VINA RESULT:      -6.2      0.863      1.097
REMARK  Name = 
REMARK  8 active torsions:
REMARK  status: ('A' for Active; 'I' for Inactive)
REMARK    1  A    between atoms: C_1  and  O_2
REMARK    2  A    between atoms: O_2  and  C_3
REMARK    3  A    between atoms: C_5  and  C_6
REMARK    4  A    between atoms: C_15  and  C_16
REMARK    5  A    between atoms: C_18  and  C_19
REMARK    6  A    between atoms: C_24  and  N_25
REMARK    7  A    between atoms: C_31  and  O_32
REMARK    8  A    between atoms: O_32  and  C_33
REMARK                            x       y       z     vdW  Elec       q    Type
REMARK                         _______ _______ _______ _____ _____    ______ ____
ROOT
ATOM      1  C   UNL     1      -1.099  14.306  19.831  0.00  0.00    +0.000 C 
ATOM      2  O   UNL     1      -0.979  15.185  18.980  0.00  0.00    +0.000 OA
ATOM      3  N   UNL     1      -1.823  14.521  21.008  0.00  0.00    +0.000 N 
ATOM      4  C   UNL     1      -2.519  15.786  21.219  0.00  0.00    +0.000 C 
ATOM      5  C   UNL     1      -3.595  15.516  22.284  0.00  0.00    +0.000 C 
ATOM      6  C   UNL     1      -5.033  15.600  21.760  0.00  0.00    +0.000 C 
ATOM      7  N   UNL     1      -5.355  14.252  21.327  0.00  0.00    +0.000 N 
ATOM      8  C   UNL     1      -5.736  14.020  20.015  0.00  0.00    +0.000 A 
ATOM      9  N   UNL     1      -5.478  12.803  19.505  0.00  0.00    +0.000 NA
ATOM     10  C   UNL     1      -5.787  12.552  18.221  0.00  0.00    +0.000 A 
ATOM     11  C   UNL     1      -5.394  11.217  17.675  0.00  0.00    +0.000 C 
ATOM     12  C   UNL     1      -6.420  13.479  17.430  0.00  0.00    +0.000 A 
ATOM     13  C   UNL     1      -6.698  14.692  18.022  0.00  0.00    +0.000 A 
ATOM     14  C   UNL     1      -7.376  15.765  17.218  0.00  0.00    +0.000 C 
ATOM     15  N   UNL     1      -6.351  14.978  19.301  0.00  0.00    +0.000 NA
ATOM     16  C   UNL     1      -4.481  13.268  21.948  0.00  0.00    +0.000 C 
ATOM     17  C   UNL     1      -3.394  14.049  22.697  0.00  0.00    +0.000 C 
ATOM     18  C   UNL     1      -1.980  13.711  22.213  0.00  0.00    +0.000 C 
ENDROOT
BRANCH   1  21
ATOM     19  C   UNL     1      -1.158  10.746  18.479  0.00  0.00    +0.000 A 
ATOM     20  C   UNL     1      -1.492  12.052  18.886  0.00  0.00    +0.000 A 
ATOM     21  C   UNL     1      -0.579  12.941  19.488  0.00  0.00    +0.000 A 
ATOM     22  C   UNL     1       0.769  12.565  19.474  0.00  0.00    +0.000 A 
ATOM     23  C   UNL     1       1.127  11.315  18.939  0.00  0.00    +0.000 A 
ATOM     24  C   UNL     1       0.185  10.388  18.477  0.00  0.00    +0.000 A 
BRANCH  22  25
ATOM     25  N   UNL     1       1.846  13.325  19.998  0.00  0.00    +0.000 N 
ATOM     26  N   UNL     1       2.490  14.233  19.197  0.00  0.00    +0.000 NA
ATOM     27  C   UNL     1       3.579  14.529  19.896  0.00  0.00    +0.000 A 
ATOM     28  C   UNL     1       3.565  13.822  21.091  0.00  0.00    +0.000 A 
ATOM     29  N   UNL     1       2.483  13.041  21.163  0.00  0.00    +0.000 NA
ENDBRANCH  22  25
BRANCH  19  31
ATOM     30  C   UNL     1      -2.382   9.850  16.615  0.00  0.00    +0.000 C 
ATOM     31  O   UNL     1      -2.103   9.868  18.013  0.00  0.00    +0.000 OA
ENDBRANCH  19  31
BRANCH  24  32
ATOM     32  O   UNL     1       0.800   9.225  18.097  0.00  0.00    +0.000 OA
ATOM     33  C   UNL     1       2.191   9.187  17.874  0.00  0.00    +0.000 C 
ENDBRANCH  24  32
ENDBRANCH   1  21
TORSDOF 4
ENDMDL
MODEL 8
REMARK VINA RESULT:      -6.0      3.748      7.029
REMARK  Name = 
REMARK  8 active torsions:
REMARK  status: ('A' for Active; 'I' for Inactive)
REMARK    1  A    between atoms: C_1  and  O_2
REMARK    2  A    between atoms: O_2  and  C_3
REMARK    3  A    between atoms: C_5  and  C_6
REMARK    4  A    between atoms: C_15  and  C_16
REMARK    5  A    between atoms: C_18  and  C_19
REMARK    6  A    between atoms: C_24  and  N_25
REMARK    7  A    between atoms: C_31  and  O_32
REMARK    8  A    between atoms: O_32  and  C_33
REMARK                            x       y       z     vdW  Elec       q    Type
REMARK                         _______ _______ _______ _____ _____    ______ ____
ROOT
ATOM      1  C   UNL     1       1.011  13.283  20.364  0.00  0.00    +0.000 C 
ATOM      2  O   UNL     1       0.615  12.860  19.278  0.00  0.00    +0.000 OA
ATOM      3  N   UNL     1       2.288  13.832  20.513  0.00  0.00    +0.000 N 
ATOM      4  C   UNL     1       3.162  13.981  19.354  0.00  0.00    +0.000 C 
ATOM      5  C   UNL     1       4.205  15.046  19.732  0.00  0.00    +0.000 C 
ATOM      6  C   UNL     1       4.080  16.355  18.946  0.00  0.00    +0.000 C 
ATOM      7  N   UNL     1       3.187  17.184  19.736  0.00  0.00    +0.000 N 
ATOM      8  C   UNL     1       2.014  17.665  19.177  0.00  0.00    +0.000 A 
ATOM      9  N   UNL     1       0.990  17.911  20.013  0.00  0.00    +0.000 NA
ATOM     10  C   UNL     1      -0.182  18.332  19.506  0.00  0.00    +0.000 A 
ATOM     11  C   UNL     1      -1.317  18.498  20.465  0.00  0.00    +0.000 C 
ATOM     12  C   UNL     1      -0.348  18.582  18.167  0.00  0.00    +0.000 A 
ATOM     13  C   UNL     1       0.751  18.354  17.366  0.00  0.00    +0.000 A 
ATOM     14  C   UNL     1       0.647  18.591  15.887  0.00  0.00    +0.000 C 
ATOM     15  N   UNL     1       1.926  17.885  17.855  0.00  0.00    +0.000 NA
ATOM     16  C   UNL     1       3.129  16.738  21.121  0.00  0.00    +0.000 C 
ATOM     17  C   UNL     1       3.897  15.412  21.192  0.00  0.00    +0.000 C 
ATOM     18  C   UNL     1       3.031  14.252  21.698  0.00  0.00    +0.000 C 
ENDROOT
BRANCH   1  21
ATOM     19  C   UNL     1      -1.570  14.802  22.716  0.00  0.00    +0.000 A 
ATOM     20  C   UNL     1      -0.597  14.585  21.723  0.00  0.00    +0.000 A 
ATOM     21  C   UNL     1       0.015  13.339  21.484  0.00  0.00    +0.000 A 
ATOM     22  C   UNL     1      -0.541  12.230  22.132  0.00  0.00    +0.000 A 
ATOM     23  C   UNL     1      -1.611  12.422  23.025  0.00  0.00    +0.000 A 
ATOM     24  C   UNL     1      -2.108  13.690  23.354  0.00  0.00    +0.000 A 
BRANCH  22  25
ATOM     25  N   UNL     1      -0.097  10.889  22.008  0.00  0.00    +0.000 N 
ATOM     26  N   UNL     1      -0.486  10.141  20.926  0.00  0.00    +0.000 NA
ATOM     27  C   UNL     1      -0.143   8.908  21.275  0.00  0.00    +0.000 A 
ATOM     28  C   UNL     1       0.452   8.933  22.529  0.00  0.00    +0.000 A 
ATOM     29  N   UNL     1       0.473  10.178  23.015  0.00  0.00    +0.000 NA
ENDBRANCH  22  25
BRANCH  19  31
ATOM     30  C   UNL     1      -1.402  16.815  24.018  0.00  0.00    +0.000 C 
ATOM     31  O   UNL     1      -2.050  16.054  23.001  0.00  0.00    +0.000 OA
ENDBRANCH  19  31
BRANCH  24  32
ATOM     32  O   UNL     1      -3.082  13.591  24.311  0.00  0.00    +0.000 OA
ATOM     33  C   UNL     1      -4.017  12.537  24.279  0.00  0.00    +0.000 C 
ENDBRANCH  24  32
ENDBRANCH   1  21
TORSDOF 4
ENDMDL
MODEL 9
REMARK VINA RESULT:      -6.0      1.179      1.275
REMARK  Name = 
REMARK  8 active torsions:
REMARK  status: ('A' for Active; 'I' for Inactive)
REMARK    1  A    between atoms: C_1  and  O_2
REMARK    2  A    between atoms: O_2  and  C_3
REMARK    3  A    between atoms: C_5  and  C_6
REMARK    4  A    between atoms: C_15  and  C_16
REMARK    5  A    between atoms: C_18  and  C_19
REMARK    6  A    between atoms: C_24  and  N_25
REMARK    7  A    between atoms: C_31  and  O_32
REMARK    8  A    between atoms: O_32  and  C_33
REMARK                            x       y       z     vdW  Elec       q    Type
REMARK                         _______ _______ _______ _____ _____    ______ ____
ROOT
ATOM      1  C   UNL     1      -1.523  14.582  20.502  0.00  0.00    +0.000 C 
ATOM      2  O   UNL     1      -1.442  15.575  19.779  0.00  0.00    +0.000 OA
ATOM      3  N   UNL     1      -2.396  14.542  21.593  0.00  0.00    +0.000 N 
ATOM      4  C   UNL     1      -3.292  15.663  21.857  0.00  0.00    +0.000 C 
ATOM      5  C   UNL     1      -4.427  15.113  22.737  0.00  0.00    +0.000 C 
ATOM      6  C   UNL     1      -5.794  15.073  22.046  0.00  0.00    +0.000 C 
ATOM      7  N   UNL     1      -5.862  13.763  21.423  0.00  0.00    +0.000 N 
ATOM      8  C   UNL     1      -6.057  13.656  20.055  0.00  0.00    +0.000 A 
ATOM      9  N   UNL     1      -5.566  12.562  19.446  0.00  0.00    +0.000 NA
ATOM     10  C   UNL     1      -5.691  12.444  18.114  0.00  0.00    +0.000 A 
ATOM     11  C   UNL     1      -5.044  11.257  17.473  0.00  0.00    +0.000 C 
ATOM     12  C   UNL     1      -6.362  13.374  17.359  0.00  0.00    +0.000 A 
ATOM     13  C   UNL     1      -6.882  14.450  18.045  0.00  0.00    +0.000 A 
ATOM     14  C   UNL     1      -7.619  15.519  17.290  0.00  0.00    +0.000 C 
ATOM     15  N   UNL     1      -6.725  14.609  19.383  0.00  0.00    +0.000 NA
ATOM     16  C   UNL     1      -4.926  12.831  22.035  0.00  0.00    +0.000 C 
ATOM     17  C   UNL     1      -4.057  13.645  23.002  0.00  0.00    +0.000 C 
ATOM     18  C   UNL     1      -2.563  13.566  22.667  0.00  0.00    +0.000 C 
ENDROOT
BRANCH   1  21
ATOM     19  C   UNL     1      -0.968  11.139  18.972  0.00  0.00    +0.000 A 
ATOM     20  C   UNL     1      -1.523  12.339  19.455  0.00  0.00    +0.000 A 
ATOM     21  C   UNL     1      -0.771  13.357  20.074  0.00  0.00    +0.000 A 
ATOM     22  C   UNL     1       0.623  13.243  20.001  0.00  0.00    +0.000 A 
ATOM     23  C   UNL     1       1.187  12.108  19.393  0.00  0.00    +0.000 A 
ATOM     24  C   UNL     1       0.417  11.041  18.911  0.00  0.00    +0.000 A 
BRANCH  22  25
ATOM     25  N   UNL     1       1.558  14.167  20.532  0.00  0.00    +0.000 N 
ATOM     26  N   UNL     1       1.769  14.219  21.886  0.00  0.00    +0.000 NA
ATOM     27  C   UNL     1       2.453  15.346  22.040  0.00  0.00    +0.000 A 
ATOM     28  C   UNL     1       2.655  15.934  20.799  0.00  0.00    +0.000 A 
ATOM     29  N   UNL     1       2.079  15.209  19.835  0.00  0.00    +0.000 NA
ENDBRANCH  22  25
BRANCH  19  31
ATOM     30  C   UNL     1      -1.803   9.916  17.079  0.00  0.00    +0.000 C 
ATOM     31  O   UNL     1      -1.749  10.121  18.489  0.00  0.00    +0.000 OA
ENDBRANCH  19  31
BRANCH  24  32
ATOM     32  O   UNL     1       1.223  10.033  18.455  0.00  0.00    +0.000 OA
ATOM     33  C   UNL     1       1.465   8.892  19.245  0.00  0.00    +0.000 C 
ENDBRANCH  24  32
ENDBRANCH   1  21
TORSDOF 4
ENDMDL
