MODEL 1
REMARK VINA RESULT:      -6.5      0.000      0.000
REMARK  Name = 
REMARK  10 active torsions:
REMARK  status: ('A' for Active; 'I' for Inactive)
REMARK    1  A    between atoms: C_1  and  C_2
REMARK    2  A    between atoms: C_2  and  O_3
REMARK    3  A    between atoms: O_3  and  C_4
REMARK    4  A    between atoms: N_6  and  C_7
REMARK    5  A    between atoms: N_6  and  C_8
REMARK    6  A    between atoms: C_8  and  C_9
REMARK    7  A    between atoms: C_8  and  C_10
REMARK    8  A    between atoms: C_11  and  C_12
REMARK    9  A    between atoms: C_12  and  N_13
REMARK   10  A    between atoms: C_17  and  C_18
REMARK                            x       y       z     vdW  Elec       q    Type
REMARK                         _______ _______ _______ _____ _____    ______ ____
ROOT
ATOM      1  C   UNL     1       4.601   5.819  16.640  0.00  0.00    +0.000 C 
ATOM      2  C   UNL     1       4.064   6.989  17.466  0.00  0.00    +0.000 C 
ENDROOT
BRANCH   1   5
ATOM      3  C   UNL     1       6.606   5.357  15.232  0.00  0.00    +0.000 C 
ATOM      4  O   UNL     1       7.790   5.457  14.935  0.00  0.00    +0.000 OA
ATOM      5  N   UNL     1       6.050   5.859  16.397  0.00  0.00    +0.000 N 
ATOM      6  C   UNL     1       6.924   6.530  17.347  0.00  0.00    +0.000 C 
BRANCH   3   7
ATOM      7  O   UNL     1       5.670   4.819  14.401  0.00  0.00    +0.000 OA
BRANCH   7   9
ATOM      8  C   UNL     1       5.924   3.523  12.423  0.00  0.00    +0.000 C 
ATOM      9  C   UNL     1       5.960   3.493  13.942  0.00  0.00    +0.000 C 
ENDBRANCH   7   9
ENDBRANCH   3   7
ENDBRANCH   1   5
BRANCH   1  10
ATOM     10  C   UNL     1       4.221   4.539  17.277  0.00  0.00    +0.000 C 
ATOM     11  C   UNL     1       3.952   3.504  17.820  0.00  0.00    +0.000 C 
BRANCH  11  12
ATOM     12  C   UNL     1       3.621   2.243  18.498  0.00  0.00    +0.000 C 
BRANCH  12  13
ATOM     13  N   UNL     1       2.904   2.448  19.746  0.00  0.00    +0.000 N 
ATOM     14  C   UNL     1       3.491   2.509  20.983  0.00  0.00    +0.000 A 
ATOM     15  N   UNL     1       2.600   2.669  21.933  0.00  0.00    +0.000 NA
ATOM     16  C   UNL     1       1.392   2.703  21.294  0.00  0.00    +0.000 A 
ATOM     17  C   UNL     1       1.544   2.555  19.930  0.00  0.00    +0.000 A 
ATOM     18  C   UNL     1       0.540   2.510  18.844  0.00  0.00    +0.000 C 
ENDBRANCH  12  13
ENDBRANCH  11  12
ENDBRANCH   1  10
TORSDOF 6
ENDMDL
MODEL 2
REMARK VINA RESULT:      -6.2      1.198      1.668
REMARK  Name = 
REMARK  10 active torsions:
REMARK  status: ('A' for Active; 'I' for Inactive)
REMARK    1  A    between atoms: C_1  and  C_2
REMARK    2  A    between atoms: C_2  and  O_3
REMARK    3  A    between atoms: O_3  and  C_4
REMARK    4  A    between atoms: N_6  and  C_7
REMARK    5  A    between atoms: N_6  and  C_8
REMARK    6  A    between atoms: C_8  and  C_9
REMARK    7  A    between atoms: C_8  and  C_10
REMARK    8  A    between atoms: C_11  and  C_12
REMARK    9  A    between atoms: C_12  and  N_13
REMARK   10  A    between atoms: C_17  and  C_18
REMARK                            x       y       z     vdW  Elec       q    Type
REMARK                         _______ _______ _______ _____ _____    ______ ____
ROOT
ATOM      1  C   UNL     1       4.839   5.661  16.723  0.00  0.00    +0.000 C 
ATOM      2  C   UNL     1       4.314   7.031  17.157  0.00  0.00    +0.000 C 
ENDROOT
BRANCH   1   5
ATOM      3  C   UNL     1       7.000   4.431  16.538  0.00  0.00    +0.000 C 
ATOM      4  O   UNL     1       8.171   4.214  16.822  0.00  0.00    +0.000 OA
ATOM      5  N   UNL     1       6.199   5.354  17.191  0.00  0.00    +0.000 N 
ATOM      6  C   UNL     1       6.768   6.102  18.300  0.00  0.00    +0.000 C 
BRANCH   3   7
ATOM      7  O   UNL     1       6.369   3.856  15.477  0.00  0.00    +0.000 OA
BRANCH   7   9
ATOM      8  C   UNL     1       5.840   3.750  13.160  0.00  0.00    +0.000 C 
ATOM      9  C   UNL     1       6.797   4.324  14.192  0.00  0.00    +0.000 C 
ENDBRANCH   7   9
ENDBRANCH   3   7
ENDBRANCH   1   5
BRANCH   1  10
ATOM     10  C   UNL     1       3.897   4.605  17.153  0.00  0.00    +0.000 C 
ATOM     11  C   UNL     1       3.141   3.760  17.545  0.00  0.00    +0.000 C 
BRANCH  11  12
ATOM     12  C   UNL     1       2.206   2.735  18.031  0.00  0.00    +0.000 C 
BRANCH  12  13
ATOM     13  N   UNL     1       2.077   2.734  19.479  0.00  0.00    +0.000 N 
ATOM     14  C   UNL     1       0.921   3.013  20.160  0.00  0.00    +0.000 A 
ATOM     15  N   UNL     1       1.103   2.971  21.459  0.00  0.00    +0.000 NA
ATOM     16  C   UNL     1       2.424   2.663  21.629  0.00  0.00    +0.000 A 
ATOM     17  C   UNL     1       3.065   2.521  20.414  0.00  0.00    +0.000 A 
ATOM     18  C   UNL     1       4.477   2.214  20.094  0.00  0.00    +0.000 C 
ENDBRANCH  12  13
ENDBRANCH  11  12
ENDBRANCH   1  10
TORSDOF 6
ENDMDL
MODEL 3
REMARK VINA RESULT:      -6.1      1.779      3.273
REMARK  Name = 
REMARK  10 active torsions:
REMARK  status: ('A' for Active; 'I' for Inactive)
REMARK    1  A    between atoms: C_1  and  C_2
REMARK    2  A    between atoms: C_2  and  O_3
REMARK    3  A    between atoms: O_3  and  C_4
REMARK    4  A    between atoms: N_6  and  C_7
REMARK    5  A    between atoms: N_6  and  C_8
REMARK    6  A    between atoms: C_8  and  C_9
REMARK    7  A    between atoms: C_8  and  C_10
REMARK    8  A    between atoms: C_11  and  C_12
REMARK    9  A    between atoms: C_12  and  N_13
REMARK   10  A    between atoms: C_17  and  C_18
REMARK                            x       y       z     vdW  Elec       q    Type
REMARK                         _______ _______ _______ _____ _____    ______ ____
ROOT
ATOM      1  C   UNL     1       5.984   4.383  16.006  0.00  0.00    +0.000 C 
ATOM      2  C   UNL     1       6.076   3.907  14.556  0.00  0.00    +0.000 C 
ENDROOT
BRANCH   1   5
ATOM      3  C   UNL     1       6.943   6.476  16.965  0.00  0.00    +0.000 C 
ATOM      4  O   UNL     1       7.065   7.691  17.054  0.00  0.00    +0.000 OA
ATOM      5  N   UNL     1       6.000   5.844  16.170  0.00  0.00    +0.000 N 
ATOM      6  C   UNL     1       5.077   6.668  15.406  0.00  0.00    +0.000 C 
BRANCH   3   7
ATOM      7  O   UNL     1       7.787   5.593  17.567  0.00  0.00    +0.000 OA
BRANCH   7   9
ATOM      8  C   UNL     1       6.468   5.329  19.529  0.00  0.00    +0.000 C 
ATOM      9  C   UNL     1       7.844   5.691  18.997  0.00  0.00    +0.000 C 
ENDBRANCH   7   9
ENDBRANCH   3   7
ENDBRANCH   1   5
BRANCH   1  10
ATOM     10  C   UNL     1       4.781   3.808  16.647  0.00  0.00    +0.000 C 
ATOM     11  C   UNL     1       3.790   3.328  17.125  0.00  0.00    +0.000 C 
BRANCH  11  12
ATOM     12  C   UNL     1       2.582   2.727  17.706  0.00  0.00    +0.000 C 
BRANCH  12  13
ATOM     13  N   UNL     1       2.310   3.202  19.053  0.00  0.00    +0.000 N 
ATOM     14  C   UNL     1       1.254   4.003  19.400  0.00  0.00    +0.000 A 
ATOM     15  N   UNL     1       1.275   4.304  20.678  0.00  0.00    +0.000 NA
ATOM     16  C   UNL     1       2.388   3.684  21.176  0.00  0.00    +0.000 A 
ATOM     17  C   UNL     1       3.064   2.999  20.186  0.00  0.00    +0.000 A 
ATOM     18  C   UNL     1       4.312   2.205  20.239  0.00  0.00    +0.000 C 
ENDBRANCH  12  13
ENDBRANCH  11  12
ENDBRANCH   1  10
TORSDOF 6
ENDMDL
MODEL 4
REMARK VINA RESULT:      -6.1      1.772      3.155
REMARK  Name = 
REMARK  10 active torsions:
REMARK  status: ('A' for Active; 'I' for Inactive)
REMARK    1  A    between atoms: C_1  and  C_2
REMARK    2  A    between atoms: C_2  and  O_3
REMARK    3  A    between atoms: O_3  and  C_4
REMARK    4  A    between atoms: N_6  and  C_7
REMARK    5  A    between atoms: N_6  and  C_8
REMARK    6  A    between atoms: C_8  and  C_9
REMARK    7  A    between atoms: C_8  and  C_10
REMARK    8  A    between atoms: C_11  and  C_12
REMARK    9  A    between atoms: C_12  and  N_13
REMARK   10  A    between atoms: C_17  and  C_18
REMARK                            x       y       z     vdW  Elec       q    Type
REMARK                         _______ _______ _______ _____ _____    ______ ____
ROOT
ATOM      1  C   UNL     1       5.653   4.381  16.167  0.00  0.00    +0.000 C 
ATOM      2  C   UNL     1       5.696   3.745  14.777  0.00  0.00    +0.000 C 
ENDROOT
BRANCH   1   5
ATOM      3  C   UNL     1       7.054   6.319  16.870  0.00  0.00    +0.000 C 
ATOM      4  O   UNL     1       7.410   7.491  16.836  0.00  0.00    +0.000 OA
ATOM      5  N   UNL     1       5.957   5.819  16.189  0.00  0.00    +0.000 N 
ATOM      6  C   UNL     1       5.156   6.739  15.397  0.00  0.00    +0.000 C 
BRANCH   3   7
ATOM      7  O   UNL     1       7.755   5.343  17.511  0.00  0.00    +0.000 OA
BRANCH   7   9
ATOM      8  C   UNL     1       6.502   5.385  19.532  0.00  0.00    +0.000 C 
ATOM      9  C   UNL     1       7.888   5.525  18.927  0.00  0.00    +0.000 C 
ENDBRANCH   7   9
ENDBRANCH   3   7
ENDBRANCH   1   5
BRANCH   1  10
ATOM     10  C   UNL     1       4.339   4.124  16.796  0.00  0.00    +0.000 C 
ATOM     11  C   UNL     1       3.259   3.893  17.267  0.00  0.00    +0.000 C 
BRANCH  11  12
ATOM     12  C   UNL     1       1.941   3.596  17.845  0.00  0.00    +0.000 C 
BRANCH  12  13
ATOM     13  N   UNL     1       1.976   3.482  19.294  0.00  0.00    +0.000 N 
ATOM     14  C   UNL     1       1.802   2.314  19.989  0.00  0.00    +0.000 A 
ATOM     15  N   UNL     1       1.850   2.512  21.286  0.00  0.00    +0.000 NA
ATOM     16  C   UNL     1       2.053   3.856  21.439  0.00  0.00    +0.000 A 
ATOM     17  C   UNL     1       2.124   4.493  20.216  0.00  0.00    +0.000 A 
ATOM     18  C   UNL     1       2.310   5.922  19.879  0.00  0.00    +0.000 C 
ENDBRANCH  12  13
ENDBRANCH  11  12
ENDBRANCH   1  10
TORSDOF 6
ENDMDL
MODEL 5
REMARK VINA RESULT:      -6.0      1.919      3.131
REMARK  Name = 
REMARK  10 active torsions:
REMARK  status: ('A' for Active; 'I' for Inactive)
REMARK    1  A    between atoms: C_1  and  C_2
REMARK    2  A    between atoms: C_2  and  O_3
REMARK    3  A    between atoms: O_3  and  C_4
REMARK    4  A    between atoms: N_6  and  C_7
REMARK    5  A    between atoms: N_6  and  C_8
REMARK    6  A    between atoms: C_8  and  C_9
REMARK    7  A    between atoms: C_8  and  C_10
REMARK    8  A    between atoms: C_11  and  C_12
REMARK    9  A    between atoms: C_12  and  N_13
REMARK   10  A    between atoms: C_17  and  C_18
REMARK                            x       y       z     vdW  Elec       q    Type
REMARK                         _______ _______ _______ _____ _____    ______ ____
ROOT
ATOM      1  C   UNL     1       6.335   5.698  18.456  0.00  0.00    +0.000 C 
ATOM      2  C   UNL     1       7.800   5.666  18.892  0.00  0.00    +0.000 C 
ENDROOT
BRANCH   1   5
ATOM      3  C   UNL     1       5.156   6.703  16.502  0.00  0.00    +0.000 C 
ATOM      4  O   UNL     1       5.014   6.955  15.312  0.00  0.00    +0.000 OA
ATOM      5  N   UNL     1       6.133   5.862  17.009  0.00  0.00    +0.000 N 
ATOM      6  C   UNL     1       7.040   5.214  16.074  0.00  0.00    +0.000 C 
BRANCH   3   7
ATOM      7  O   UNL     1       4.425   7.299  17.485  0.00  0.00    +0.000 OA
BRANCH   7   9
ATOM      8  C   UNL     1       2.726   6.628  19.009  0.00  0.00    +0.000 C 
ATOM      9  C   UNL     1       3.052   6.890  17.549  0.00  0.00    +0.000 C 
ENDBRANCH   7   9
ENDBRANCH   3   7
ENDBRANCH   1   5
BRANCH   1  10
ATOM     10  C   UNL     1       5.642   4.482  18.935  0.00  0.00    +0.000 C 
ATOM     11  C   UNL     1       5.055   3.523  19.353  0.00  0.00    +0.000 C 
BRANCH  11  12
ATOM     12  C   UNL     1       4.323   2.353  19.859  0.00  0.00    +0.000 C 
BRANCH  12  13
ATOM     13  N   UNL     1       2.953   2.665  20.232  0.00  0.00    +0.000 N 
ATOM     14  C   UNL     1       2.488   2.724  21.520  0.00  0.00    +0.000 A 
ATOM     15  N   UNL     1       1.205   2.995  21.559  0.00  0.00    +0.000 NA
ATOM     16  C   UNL     1       0.819   3.107  20.252  0.00  0.00    +0.000 A 
ATOM     17  C   UNL     1       1.883   2.895  19.397  0.00  0.00    +0.000 A 
ATOM     18  C   UNL     1       1.950   2.893  17.919  0.00  0.00    +0.000 C 
ENDBRANCH  12  13
ENDBRANCH  11  12
ENDBRANCH   1  10
TORSDOF 6
ENDMDL
MODEL 6
REMARK VINA RESULT:      -5.8      3.544      6.141
REMARK  Name = 
REMARK  10 active torsions:
REMARK  status: ('A' for Active; 'I' for Inactive)
REMARK    1  A    between atoms: C_1  and  C_2
REMARK    2  A    between atoms: C_2  and  O_3
REMARK    3  A    between atoms: O_3  and  C_4
REMARK    4  A    between atoms: N_6  and  C_7
REMARK    5  A    between atoms: N_6  and  C_8
REMARK    6  A    between atoms: C_8  and  C_9
REMARK    7  A    between atoms: C_8  and  C_10
REMARK    8  A    between atoms: C_11  and  C_12
REMARK    9  A    between atoms: C_12  and  N_13
REMARK   10  A    between atoms: C_17  and  C_18
REMARK                            x       y       z     vdW  Elec       q    Type
REMARK                         _______ _______ _______ _____ _____    ______ ____
ROOT
ATOM      1  C   UNL     1       2.474   3.703  20.351  0.00  0.00    +0.000 C 
ATOM      2  C   UNL     1       2.036   2.881  21.565  0.00  0.00    +0.000 C 
ENDROOT
BRANCH   1   5
ATOM      3  C   UNL     1       2.694   3.245  17.910  0.00  0.00    +0.000 C 
ATOM      4  O   UNL     1       2.330   2.770  16.842  0.00  0.00    +0.000 OA
ATOM      5  N   UNL     1       1.934   3.230  19.068  0.00  0.00    +0.000 N 
ATOM      6  C   UNL     1       0.609   2.633  19.018  0.00  0.00    +0.000 C 
BRANCH   3   7
ATOM      7  O   UNL     1       3.937   3.765  18.113  0.00  0.00    +0.000 OA
BRANCH   7   9
ATOM      8  C   UNL     1       5.200   5.780  18.160  0.00  0.00    +0.000 C 
ATOM      9  C   UNL     1       4.234   4.938  17.344  0.00  0.00    +0.000 C 
ENDBRANCH   7   9
ENDBRANCH   3   7
ENDBRANCH   1   5
BRANCH   1  10
ATOM     10  C   UNL     1       2.131   5.127  20.559  0.00  0.00    +0.000 C 
ATOM     11  C   UNL     1       1.839   6.284  20.683  0.00  0.00    +0.000 C 
BRANCH  11  12
ATOM     12  C   UNL     1       1.467   7.697  20.833  0.00  0.00    +0.000 C 
BRANCH  12  13
ATOM     13  N   UNL     1       1.554   8.437  19.585  0.00  0.00    +0.000 N 
ATOM     14  C   UNL     1       2.315   8.064  18.508  0.00  0.00    +0.000 A 
ATOM     15  N   UNL     1       2.229   8.935  17.530  0.00  0.00    +0.000 NA
ATOM     16  C   UNL     1       1.390   9.913  17.990  0.00  0.00    +0.000 A 
ATOM     17  C   UNL     1       0.961   9.640  19.274  0.00  0.00    +0.000 A 
ATOM     18  C   UNL     1       0.074  10.403  20.180  0.00  0.00    +0.000 C 
ENDBRANCH  12  13
ENDBRANCH  11  12
ENDBRANCH   1  10
TORSDOF 6
ENDMDL
MODEL 7
REMARK VINA RESULT:      -5.8      1.734      3.110
REMARK  Name = 
REMARK  10 active torsions:
REMARK  status: ('A' for Active; 'I' for Inactive)
REMARK    1  A    between atoms: C_1  and  C_2
REMARK    2  A    between atoms: C_2  and  O_3
REMARK    3  A    between atoms: O_3  and  C_4
REMARK    4  A    between atoms: N_6  and  C_7
REMARK    5  A    between atoms: N_6  and  C_8
REMARK    6  A    between atoms: C_8  and  C_9
REMARK    7  A    between atoms: C_8  and  C_10
REMARK    8  A    between atoms: C_11  and  C_12
REMARK    9  A    between atoms: C_12  and  N_13
REMARK   10  A    between atoms: C_17  and  C_18
REMARK                            x       y       z     vdW  Elec       q    Type
REMARK                         _______ _______ _______ _____ _____    ______ ____
ROOT
ATOM      1  C   UNL     1       6.109   4.390  15.849  0.00  0.00    +0.000 C 
ATOM      2  C   UNL     1       5.947   3.976  14.386  0.00  0.00    +0.000 C 
ENDROOT
BRANCH   1   5
ATOM      3  C   UNL     1       6.915   6.480  16.944  0.00  0.00    +0.000 C 
ATOM      4  O   UNL     1       6.966   7.694  17.097  0.00  0.00    +0.000 OA
ATOM      5  N   UNL     1       6.039   5.840  16.084  0.00  0.00    +0.000 N 
ATOM      6  C   UNL     1       5.100   6.650  15.324  0.00  0.00    +0.000 C 
BRANCH   3   7
ATOM      7  O   UNL     1       7.784   5.615  17.537  0.00  0.00    +0.000 OA
BRANCH   7   9
ATOM      8  C   UNL     1       6.556   5.318  19.552  0.00  0.00    +0.000 C 
ATOM      9  C   UNL     1       7.889   5.744  18.961  0.00  0.00    +0.000 C 
ENDBRANCH   7   9
ENDBRANCH   3   7
ENDBRANCH   1   5
BRANCH   1  10
ATOM     10  C   UNL     1       5.112   3.686  16.684  0.00  0.00    +0.000 C 
ATOM     11  C   UNL     1       4.279   3.104  17.322  0.00  0.00    +0.000 C 
BRANCH  11  12
ATOM     12  C   UNL     1       3.262   2.379  18.098  0.00  0.00    +0.000 C 
BRANCH  12  13
ATOM     13  N   UNL     1       2.713   3.173  19.185  0.00  0.00    +0.000 N 
ATOM     14  C   UNL     1       2.911   2.916  20.517  0.00  0.00    +0.000 A 
ATOM     15  N   UNL     1       2.271   3.775  21.275  0.00  0.00    +0.000 NA
ATOM     16  C   UNL     1       1.627   4.614  20.407  0.00  0.00    +0.000 A 
ATOM     17  C   UNL     1       1.872   4.259  19.095  0.00  0.00    +0.000 A 
ATOM     18  C   UNL     1       1.386   4.847  17.827  0.00  0.00    +0.000 C 
ENDBRANCH  12  13
ENDBRANCH  11  12
ENDBRANCH   1  10
TORSDOF 6
ENDMDL
MODEL 8
REMARK VINA RESULT:      -5.8      3.767      5.530
REMARK  Name = 
REMARK  10 active torsions:
REMARK  status: ('A' for Active; 'I' for Inactive)
REMARK    1  A    between atoms: C_1  and  C_2
REMARK    2  A    between atoms: C_2  and  O_3
REMARK    3  A    between atoms: O_3  and  C_4
REMARK    4  A    between atoms: N_6  and  C_7
REMARK    5  A    between atoms: N_6  and  C_8
REMARK    6  A    between atoms: C_8  and  C_9
REMARK    7  A    between atoms: C_8  and  C_10
REMARK    8  A    between atoms: C_11  and  C_12
REMARK    9  A    between atoms: C_12  and  N_13
REMARK   10  A    between atoms: C_17  and  C_18
REMARK                            x       y       z     vdW  Elec       q    Type
REMARK                         _______ _______ _______ _____ _____    ______ ____
ROOT
ATOM      1  C   UNL     1       4.113   4.936  17.325  0.00  0.00    +0.000 C 
ATOM      2  C   UNL     1       5.098   4.984  16.156  0.00  0.00    +0.000 C 
ENDROOT
BRANCH   1   5
ATOM      3  C   UNL     1       4.333   3.140  19.041  0.00  0.00    +0.000 C 
ATOM      4  O   UNL     1       4.846   2.605  20.015  0.00  0.00    +0.000 OA
ATOM      5  N   UNL     1       4.675   4.398  18.573  0.00  0.00    +0.000 N 
ATOM      6  C   UNL     1       5.693   5.149  19.290  0.00  0.00    +0.000 C 
BRANCH   3   7
ATOM      7  O   UNL     1       3.423   2.519  18.239  0.00  0.00    +0.000 OA
BRANCH   7   9
ATOM      8  C   UNL     1       1.258   3.151  18.996  0.00  0.00    +0.000 C 
ATOM      9  C   UNL     1       2.264   2.016  18.917  0.00  0.00    +0.000 C 
ENDBRANCH   7   9
ENDBRANCH   3   7
ENDBRANCH   1   5
BRANCH   1  10
ATOM     10  C   UNL     1       3.543   6.281  17.556  0.00  0.00    +0.000 C 
ATOM     11  C   UNL     1       3.038   7.354  17.739  0.00  0.00    +0.000 C 
BRANCH  11  12
ATOM     12  C   UNL     1       2.413   8.663  17.977  0.00  0.00    +0.000 C 
BRANCH  12  13
ATOM     13  N   UNL     1       1.687   8.719  19.235  0.00  0.00    +0.000 N 
ATOM     14  C   UNL     1       1.856   7.842  20.274  0.00  0.00    +0.000 A 
ATOM     15  N   UNL     1       1.046   8.111  21.271  0.00  0.00    +0.000 NA
ATOM     16  C   UNL     1       0.318   9.195  20.862  0.00  0.00    +0.000 A 
ATOM     17  C   UNL     1       0.684   9.592  19.591  0.00  0.00    +0.000 A 
ATOM     18  C   UNL     1       0.173  10.685  18.735  0.00  0.00    +0.000 C 
ENDBRANCH  12  13
ENDBRANCH  11  12
ENDBRANCH   1  10
TORSDOF 6
ENDMDL
MODEL 9
REMARK VINA RESULT:      -5.8      0.976      1.605
REMARK  Name = 
REMARK  10 active torsions:
REMARK  status: ('A' for Active; 'I' for Inactive)
REMARK    1  A    between atoms: C_1  and  C_2
REMARK    2  A    between atoms: C_2  and  O_3
REMARK    3  A    between atoms: O_3  and  C_4
REMARK    4  A    between atoms: N_6  and  C_7
REMARK    5  A    between atoms: N_6  and  C_8
REMARK    6  A    between atoms: C_8  and  C_9
REMARK    7  A    between atoms: C_8  and  C_10
REMARK    8  A    between atoms: C_11  and  C_12
REMARK    9  A    between atoms: C_12  and  N_13
REMARK   10  A    between atoms: C_17  and  C_18
REMARK                            x       y       z     vdW  Elec       q    Type
REMARK                         _______ _______ _______ _____ _____    ______ ____
ROOT
ATOM      1  C   UNL     1       4.901   5.824  16.411  0.00  0.00    +0.000 C 
ATOM      2  C   UNL     1       4.445   7.188  16.932  0.00  0.00    +0.000 C 
ENDROOT
BRANCH   1   5
ATOM      3  C   UNL     1       6.792   5.094  14.959  0.00  0.00    +0.000 C 
ATOM      4  O   UNL     1       7.962   5.083  14.597  0.00  0.00    +0.000 OA
ATOM      5  N   UNL     1       6.334   5.740  16.096  0.00  0.00    +0.000 N 
ATOM      6  C   UNL     1       7.300   6.433  16.933  0.00  0.00    +0.000 C 
BRANCH   3   7
ATOM      7  O   UNL     1       5.779   4.548  14.230  0.00  0.00    +0.000 OA
BRANCH   7   9
ATOM      8  C   UNL     1       4.985   3.523  12.235  0.00  0.00    +0.000 C 
ATOM      9  C   UNL     1       6.198   3.736  13.125  0.00  0.00    +0.000 C 
ENDBRANCH   7   9
ENDBRANCH   3   7
ENDBRANCH   1   5
BRANCH   1  10
ATOM     10  C   UNL     1       4.524   4.767  17.374  0.00  0.00    +0.000 C 
ATOM     11  C   UNL     1       4.246   3.880  18.134  0.00  0.00    +0.000 C 
BRANCH  11  12
ATOM     12  C   UNL     1       3.921   2.795  19.069  0.00  0.00    +0.000 C 
BRANCH  12  13
ATOM     13  N   UNL     1       2.489   2.619  19.249  0.00  0.00    +0.000 N 
ATOM     14  C   UNL     1       1.617   2.248  18.258  0.00  0.00    +0.000 A 
ATOM     15  N   UNL     1       0.381   2.199  18.695  0.00  0.00    +0.000 NA
ATOM     16  C   UNL     1       0.449   2.558  20.013  0.00  0.00    +0.000 A 
ATOM     17  C   UNL     1       1.748   2.839  20.388  0.00  0.00    +0.000 A 
ATOM     18  C   UNL     1       2.307   3.281  21.685  0.00  0.00    +0.000 C 
ENDBRANCH  12  13
ENDBRANCH  11  12
ENDBRANCH   1  10
TORSDOF 6
ENDMDL
