MODEL 1
REMARK VINA RESULT:      -7.9      0.000      0.000
REMARK  Name = 
REMARK  4 active torsions:
REMARK  status: ('A' for Active; 'I' for Inactive)
REMARK    1  A    between atoms: N_1  and  C_2
REMARK    2  A    between atoms: C_8  and  N_9
REMARK    3  A    between atoms: C_10  and  C_12
REMARK    4  A    between atoms: C_17  and  N_18
REMARK                            x       y       z     vdW  Elec       q    Type
REMARK                         _______ _______ _______ _____ _____    ______ ____
ROOT
ATOM      1  C   UNL     1       0.955   9.578  19.199  0.00  0.00    +0.000 A 
ATOM      2  C   UNL     1       1.538   9.905  17.985  0.00  0.00    +0.000 A 
ATOM      3  N   UNL     1       2.457   9.114  17.386  0.00  0.00    +0.000 NA
ATOM      4  C   UNL     1       2.789   7.987  18.044  0.00  0.00    +0.000 A 
ATOM      5  C   UNL     1       3.757   7.140  17.518  0.00  0.00    +0.000 A 
ATOM      6  C   UNL     1       4.157   5.957  18.154  0.00  0.00    +0.000 A 
ATOM      7  C   UNL     1       3.525   5.656  19.364  0.00  0.00    +0.000 A 
ATOM      8  C   UNL     1       2.549   6.490  19.913  0.00  0.00    +0.000 A 
ATOM      9  C   UNL     1       2.173   7.651  19.279  0.00  0.00    +0.000 A 
ATOM     10  N   UNL     1       1.247   8.435  19.869  0.00  0.00    +0.000 NA
ENDROOT
BRANCH   6  11
ATOM     11  N   UNL     1       5.107   5.124  17.614  0.00  0.00    +0.000 N 
ATOM     12  C   UNL     1       5.124   4.765  16.187  0.00  0.00    +0.000 C 
ATOM     13  C   UNL     1       6.531   5.033  15.606  0.00  0.00    +0.000 C 
ATOM     14  N   UNL     1       7.613   4.352  16.344  0.00  0.00    +0.000 NA
ATOM     15  C   UNL     1       7.544   4.725  17.772  0.00  0.00    +0.000 C 
ATOM     16  C   UNL     1       6.160   4.473  18.411  0.00  0.00    +0.000 C 
ATOM     17  H   UNL     1       8.510   4.653  15.967  0.00  0.00    +0.000 HD
ENDBRANCH   6  11
BRANCH   1  19
ATOM     18  N   UNL     1       0.347  10.981  21.097  0.00  0.00    +0.000 N 
ATOM     19  C   UNL     1       0.001  10.522  19.834  0.00  0.00    +0.000 C 
ATOM     20  O   UNL     1      -0.986  10.836  19.181  0.00  0.00    +0.000 OA
ATOM     21  H   UNL     1       1.259  10.703  21.440  0.00  0.00    +0.000 HD
BRANCH  18  28
ATOM     22  C   UNL     1      -0.121  13.254  21.950  0.00  0.00    +0.000 A 
ATOM     23  C   UNL     1      -0.965  14.102  22.702  0.00  0.00    +0.000 A 
ATOM     24  C   UNL     1      -2.027  13.584  23.431  0.00  0.00    +0.000 A 
ATOM     25  F   UNL     1      -2.806  14.407  24.145  0.00  0.00    +0.000 F 
ATOM     26  C   UNL     1      -2.299  12.227  23.421  0.00  0.00    +0.000 A 
ATOM     27  C   UNL     1      -1.499  11.385  22.662  0.00  0.00    +0.000 A 
ATOM     28  C   UNL     1      -0.426  11.872  21.895  0.00  0.00    +0.000 A 
BRANCH  22  29
ATOM     29  N   UNL     1       0.814  13.876  21.100  0.00  0.00    +0.000 N 
ATOM     30  H   UNL     1       0.922  14.873  21.272  0.00  0.00    +0.000 HD
ATOM     31  H   UNL     1       1.704  13.408  20.994  0.00  0.00    +0.000 HD
ENDBRANCH  22  29
ENDBRANCH  18  28
ENDBRANCH   1  19
TORSDOF 4
ENDMDL
MODEL 2
REMARK VINA RESULT:      -7.9      3.870     10.076
REMARK  Name = 
REMARK  4 active torsions:
REMARK  status: ('A' for Active; 'I' for Inactive)
REMARK    1  A    between atoms: N_1  and  C_2
REMARK    2  A    between atoms: C_8  and  N_9
REMARK    3  A    between atoms: C_10  and  C_12
REMARK    4  A    between atoms: C_17  and  N_18
REMARK                            x       y       z     vdW  Elec       q    Type
REMARK                         _______ _______ _______ _____ _____    ______ ____
ROOT
ATOM      1  C   UNL     1       1.638   8.222  19.972  0.00  0.00    +0.000 A 
ATOM      2  C   UNL     1       1.382   9.244  19.072  0.00  0.00    +0.000 A 
ATOM      3  N   UNL     1       0.644  10.330  19.400  0.00  0.00    +0.000 NA
ATOM      4  C   UNL     1       0.156  10.359  20.654  0.00  0.00    +0.000 A 
ATOM      5  C   UNL     1      -0.648  11.417  21.058  0.00  0.00    +0.000 A 
ATOM      6  C   UNL     1      -1.198  11.507  22.345  0.00  0.00    +0.000 A 
ATOM      7  C   UNL     1      -0.893  10.465  23.226  0.00  0.00    +0.000 A 
ATOM      8  C   UNL     1      -0.087   9.390  22.844  0.00  0.00    +0.000 A 
ATOM      9  C   UNL     1       0.438   9.315  21.575  0.00  0.00    +0.000 A 
ATOM     10  N   UNL     1       1.185   8.239  21.251  0.00  0.00    +0.000 NA
ENDROOT
BRANCH   6  11
ATOM     11  N   UNL     1      -1.981  12.567  22.732  0.00  0.00    +0.000 N 
ATOM     12  C   UNL     1      -3.435  12.448  22.919  0.00  0.00    +0.000 C 
ATOM     13  C   UNL     1      -3.821  13.001  24.310  0.00  0.00    +0.000 C 
ATOM     14  N   UNL     1      -3.362  14.385  24.542  0.00  0.00    +0.000 NA
ATOM     15  C   UNL     1      -1.902  14.461  24.322  0.00  0.00    +0.000 C 
ATOM     16  C   UNL     1      -1.456  13.926  22.943  0.00  0.00    +0.000 C 
ATOM     17  H   UNL     1      -3.564  14.642  25.507  0.00  0.00    +0.000 HD
ENDBRANCH   6  11
BRANCH   1  19
ATOM     18  N   UNL     1       3.002   7.117  18.282  0.00  0.00    +0.000 N 
ATOM     19  C   UNL     1       2.400   7.027  19.529  0.00  0.00    +0.000 C 
ATOM     20  O   UNL     1       2.457   6.084  20.309  0.00  0.00    +0.000 OA
ATOM     21  H   UNL     1       2.945   8.017  17.821  0.00  0.00    +0.000 HD
BRANCH  18  28
ATOM     22  C   UNL     1       3.242   4.779  17.513  0.00  0.00    +0.000 A 
ATOM     23  C   UNL     1       4.012   3.818  16.819  0.00  0.00    +0.000 A 
ATOM     24  C   UNL     1       5.281   4.128  16.348  0.00  0.00    +0.000 A 
ATOM     25  F   UNL     1       5.995   3.198  15.703  0.00  0.00    +0.000 F 
ATOM     26  C   UNL     1       5.814   5.394  16.527  0.00  0.00    +0.000 A 
ATOM     27  C   UNL     1       5.058   6.357  17.180  0.00  0.00    +0.000 A 
ATOM     28  C   UNL     1       3.762   6.089  17.654  0.00  0.00    +0.000 A 
BRANCH  22  29
ATOM     29  N   UNL     1       1.904   4.441  17.795  0.00  0.00    +0.000 N 
ATOM     30  H   UNL     1       1.790   3.503  18.170  0.00  0.00    +0.000 HD
ATOM     31  H   UNL     1       1.367   5.127  18.309  0.00  0.00    +0.000 HD
ENDBRANCH  22  29
ENDBRANCH  18  28
ENDBRANCH   1  19
TORSDOF 4
ENDMDL
MODEL 3
REMARK VINA RESULT:      -7.9      1.587      2.508
REMARK  Name = 
REMARK  4 active torsions:
REMARK  status: ('A' for Active; 'I' for Inactive)
REMARK    1  A    between atoms: N_1  and  C_2
REMARK    2  A    between atoms: C_8  and  N_9
REMARK    3  A    between atoms: C_10  and  C_12
REMARK    4  A    between atoms: C_17  and  N_18
REMARK                            x       y       z     vdW  Elec       q    Type
REMARK                         _______ _______ _______ _____ _____    ______ ____
ROOT
ATOM      1  C   UNL     1       0.101  10.262  20.875  0.00  0.00    +0.000 A 
ATOM      2  C   UNL     1       0.341   9.266  21.807  0.00  0.00    +0.000 A 
ATOM      3  N   UNL     1       1.097   8.180  21.528  0.00  0.00    +0.000 NA
ATOM      4  C   UNL     1       1.598   8.110  20.280  0.00  0.00    +0.000 A 
ATOM      5  C   UNL     1       2.349   7.006  19.898  0.00  0.00    +0.000 A 
ATOM      6  C   UNL     1       2.893   6.864  18.614  0.00  0.00    +0.000 A 
ATOM      7  C   UNL     1       2.644   7.905  17.714  0.00  0.00    +0.000 A 
ATOM      8  C   UNL     1       1.892   9.025  18.074  0.00  0.00    +0.000 A 
ATOM      9  C   UNL     1       1.361   9.145  19.337  0.00  0.00    +0.000 A 
ATOM     10  N   UNL     1       0.617  10.234  19.620  0.00  0.00    +0.000 NA
ENDROOT
BRANCH   6  11
ATOM     11  N   UNL     1       3.644   5.771  18.256  0.00  0.00    +0.000 N 
ATOM     12  C   UNL     1       4.905   5.890  17.506  0.00  0.00    +0.000 C 
ATOM     13  C   UNL     1       6.016   5.108  18.243  0.00  0.00    +0.000 C 
ATOM     14  N   UNL     1       5.674   3.695  18.496  0.00  0.00    +0.000 NA
ATOM     15  C   UNL     1       4.394   3.624  19.230  0.00  0.00    +0.000 C 
ATOM     16  C   UNL     1       3.240   4.384  18.538  0.00  0.00    +0.000 C 
ATOM     17  H   UNL     1       6.406   3.275  19.067  0.00  0.00    +0.000 HD
ENDBRANCH   6  11
BRANCH   1  19
ATOM     18  N   UNL     1      -1.072  11.557  22.575  0.00  0.00    +0.000 N 
ATOM     19  C   UNL     1      -0.792  11.396  21.225  0.00  0.00    +0.000 C 
ATOM     20  O   UNL     1      -1.178  12.104  20.303  0.00  0.00    +0.000 OA
ATOM     21  H   UNL     1      -0.574  10.945  23.211  0.00  0.00    +0.000 HD
BRANCH  18  28
ATOM     22  C   UNL     1      -1.481  13.904  23.237  0.00  0.00    +0.000 A 
ATOM     23  C   UNL     1      -2.386  14.869  23.733  0.00  0.00    +0.000 A 
ATOM     24  C   UNL     1      -3.648  14.499  24.177  0.00  0.00    +0.000 A 
ATOM     25  F   UNL     1      -4.484  15.431  24.653  0.00  0.00    +0.000 F 
ATOM     26  C   UNL     1      -4.060  13.178  24.122  0.00  0.00    +0.000 A 
ATOM     27  C   UNL     1      -3.194  12.224  23.609  0.00  0.00    +0.000 A 
ATOM     28  C   UNL     1      -1.915  12.561  23.132  0.00  0.00    +0.000 A 
BRANCH  22  29
ATOM     29  N   UNL     1      -0.297  14.385  22.642  0.00  0.00    +0.000 N 
ATOM     30  H   UNL     1       0.431  14.617  23.313  0.00  0.00    +0.000 HD
ATOM     31  H   UNL     1       0.058  13.854  21.859  0.00  0.00    +0.000 HD
ENDBRANCH  22  29
ENDBRANCH  18  28
ENDBRANCH   1  19
TORSDOF 4
ENDMDL
MODEL 4
REMARK VINA RESULT:      -7.8      1.619      2.012
REMARK  Name = 
REMARK  4 active torsions:
REMARK  status: ('A' for Active; 'I' for Inactive)
REMARK    1  A    between atoms: N_1  and  C_2
REMARK    2  A    between atoms: C_8  and  N_9
REMARK    3  A    between atoms: C_10  and  C_12
REMARK    4  A    between atoms: C_17  and  N_18
REMARK                            x       y       z     vdW  Elec       q    Type
REMARK                         _______ _______ _______ _____ _____    ______ ____
ROOT
ATOM      1  C   UNL     1       0.511   9.637  21.242  0.00  0.00    +0.000 A 
ATOM      2  C   UNL     1       0.804  10.215  20.017  0.00  0.00    +0.000 A 
ATOM      3  N   UNL     1       1.435   9.540  19.030  0.00  0.00    +0.000 NA
ATOM      4  C   UNL     1       1.780   8.268  19.308  0.00  0.00    +0.000 A 
ATOM      5  C   UNL     1       2.470   7.518  18.364  0.00  0.00    +0.000 A 
ATOM      6  C   UNL     1       2.868   6.193  18.590  0.00  0.00    +0.000 A 
ATOM      7  C   UNL     1       2.530   5.644  19.830  0.00  0.00    +0.000 A 
ATOM      8  C   UNL     1       1.836   6.377  20.795  0.00  0.00    +0.000 A 
ATOM      9  C   UNL     1       1.459   7.679  20.559  0.00  0.00    +0.000 A 
ATOM     10  N   UNL     1       0.818   8.350  21.539  0.00  0.00    +0.000 NA
ENDROOT
BRANCH   6  11
ATOM     11  N   UNL     1       3.540   5.461  17.641  0.00  0.00    +0.000 N 
ATOM     12  C   UNL     1       4.652   6.017  16.855  0.00  0.00    +0.000 C 
ATOM     13  C   UNL     1       5.869   5.069  16.944  0.00  0.00    +0.000 C 
ATOM     14  N   UNL     1       5.567   3.683  16.538  0.00  0.00    +0.000 NA
ATOM     15  C   UNL     1       4.433   3.173  17.338  0.00  0.00    +0.000 C 
ATOM     16  C   UNL     1       3.182   4.079  17.282  0.00  0.00    +0.000 C 
ATOM     17  H   UNL     1       6.384   3.101  16.717  0.00  0.00    +0.000 HD
ENDBRANCH   6  11
BRANCH   1  19
ATOM     18  N   UNL     1      -0.920  11.507  21.873  0.00  0.00    +0.000 N 
ATOM     19  C   UNL     1      -0.127  10.455  22.306  0.00  0.00    +0.000 C 
ATOM     20  O   UNL     1       0.078  10.114  23.464  0.00  0.00    +0.000 OA
ATOM     21  H   UNL     1      -1.068  11.573  20.872  0.00  0.00    +0.000 HD
BRANCH  18  28
ATOM     22  C   UNL     1      -1.058  13.698  23.011  0.00  0.00    +0.000 A 
ATOM     23  C   UNL     1      -1.816  14.596  23.795  0.00  0.00    +0.000 A 
ATOM     24  C   UNL     1      -3.042  14.217  24.326  0.00  0.00    +0.000 A 
ATOM     25  F   UNL     1      -3.737  15.082  25.075  0.00  0.00    +0.000 F 
ATOM     26  C   UNL     1      -3.561  12.957  24.081  0.00  0.00    +0.000 A 
ATOM     27  C   UNL     1      -2.843  12.074  23.288  0.00  0.00    +0.000 A 
ATOM     28  C   UNL     1      -1.608  12.427  22.715  0.00  0.00    +0.000 A 
BRANCH  22  29
ATOM     29  N   UNL     1       0.080  14.220  22.364  0.00  0.00    +0.000 N 
ATOM     30  H   UNL     1       0.351  15.142  22.696  0.00  0.00    +0.000 HD
ATOM     31  H   UNL     1       0.872  13.597  22.278  0.00  0.00    +0.000 HD
ENDBRANCH  22  29
ENDBRANCH  18  28
ENDBRANCH   1  19
TORSDOF 4
ENDMDL
MODEL 5
REMARK VINA RESULT:      -7.8      4.053      9.967
REMARK  Name = 
REMARK  4 active torsions:
REMARK  status: ('A' for Active; 'I' for Inactive)
REMARK    1  A    between atoms: N_1  and  C_2
REMARK    2  A    between atoms: C_8  and  N_9
REMARK    3  A    between atoms: C_10  and  C_12
REMARK    4  A    between atoms: C_17  and  N_18
REMARK                            x       y       z     vdW  Elec       q    Type
REMARK                         _______ _______ _______ _____ _____    ______ ____
ROOT
ATOM      1  C   UNL     1       1.499   8.409  19.937  0.00  0.00    +0.000 A 
ATOM      2  C   UNL     1       1.448   9.533  19.129  0.00  0.00    +0.000 A 
ATOM      3  N   UNL     1       0.819  10.669  19.508  0.00  0.00    +0.000 NA
ATOM      4  C   UNL     1       0.228  10.645  20.717  0.00  0.00    +0.000 A 
ATOM      5  C   UNL     1      -0.476  11.756  21.164  0.00  0.00    +0.000 A 
ATOM      6  C   UNL     1      -1.122  11.797  22.407  0.00  0.00    +0.000 A 
ATOM      7  C   UNL     1      -1.023  10.649  23.198  0.00  0.00    +0.000 A 
ATOM      8  C   UNL     1      -0.321   9.520  22.772  0.00  0.00    +0.000 A 
ATOM      9  C   UNL     1       0.302   9.494  21.546  0.00  0.00    +0.000 A 
ATOM     10  N   UNL     1       0.941   8.366  21.172  0.00  0.00    +0.000 NA
ENDROOT
BRANCH   6  11
ATOM     11  N   UNL     1      -1.804  12.909  22.839  0.00  0.00    +0.000 N 
ATOM     12  C   UNL     1      -3.265  12.922  23.013  0.00  0.00    +0.000 C 
ATOM     13  C   UNL     1      -3.610  13.444  24.426  0.00  0.00    +0.000 C 
ATOM     14  N   UNL     1      -3.023  14.765  24.725  0.00  0.00    +0.000 NA
ATOM     15  C   UNL     1      -1.561  14.711  24.517  0.00  0.00    +0.000 C 
ATOM     16  C   UNL     1      -1.154  14.200  23.117  0.00  0.00    +0.000 C 
ATOM     17  H   UNL     1      -3.209  14.996  25.699  0.00  0.00    +0.000 HD
ENDBRANCH   6  11
BRANCH   1  19
ATOM     18  N   UNL     1       2.150   6.088  20.299  0.00  0.00    +0.000 N 
ATOM     19  C   UNL     1       2.150   7.172  19.434  0.00  0.00    +0.000 C 
ATOM     20  O   UNL     1       2.602   7.207  18.296  0.00  0.00    +0.000 OA
ATOM     21  H   UNL     1       1.630   6.203  21.161  0.00  0.00    +0.000 HD
BRANCH  18  28
ATOM     22  C   UNL     1       1.975   3.625  20.157  0.00  0.00    +0.000 A 
ATOM     23  C   UNL     1       2.585   2.398  19.813  0.00  0.00    +0.000 A 
ATOM     24  C   UNL     1       3.919   2.349  19.430  0.00  0.00    +0.000 A 
ATOM     25  F   UNL     1       4.478   1.173  19.118  0.00  0.00    +0.000 F 
ATOM     26  C   UNL     1       4.678   3.505  19.354  0.00  0.00    +0.000 A 
ATOM     27  C   UNL     1       4.085   4.721  19.660  0.00  0.00    +0.000 A 
ATOM     28  C   UNL     1       2.732   4.815  20.032  0.00  0.00    +0.000 A 
BRANCH  22  29
ATOM     29  N   UNL     1       0.581   3.611  20.357  0.00  0.00    +0.000 N 
ATOM     30  H   UNL     1       0.136   2.743  20.066  0.00  0.00    +0.000 HD
ATOM     31  H   UNL     1       0.254   3.923  21.261  0.00  0.00    +0.000 HD
ENDBRANCH  22  29
ENDBRANCH  18  28
ENDBRANCH   1  19
TORSDOF 4
ENDMDL
MODEL 6
REMARK VINA RESULT:      -7.8      3.885     10.038
REMARK  Name = 
REMARK  4 active torsions:
REMARK  status: ('A' for Active; 'I' for Inactive)
REMARK    1  A    between atoms: N_1  and  C_2
REMARK    2  A    between atoms: C_8  and  N_9
REMARK    3  A    between atoms: C_10  and  C_12
REMARK    4  A    between atoms: C_17  and  N_18
REMARK                            x       y       z     vdW  Elec       q    Type
REMARK                         _______ _______ _______ _____ _____    ______ ____
ROOT
ATOM      1  C   UNL     1       1.636   8.199  19.988  0.00  0.00    +0.000 A 
ATOM      2  C   UNL     1       1.361   9.216  19.089  0.00  0.00    +0.000 A 
ATOM      3  N   UNL     1       0.606  10.289  19.418  0.00  0.00    +0.000 NA
ATOM      4  C   UNL     1       0.119  10.309  20.672  0.00  0.00    +0.000 A 
ATOM      5  C   UNL     1      -0.703  11.354  21.078  0.00  0.00    +0.000 A 
ATOM      6  C   UNL     1      -1.252  11.434  22.365  0.00  0.00    +0.000 A 
ATOM      7  C   UNL     1      -0.927  10.398  23.245  0.00  0.00    +0.000 A 
ATOM      8  C   UNL     1      -0.104   9.337  22.863  0.00  0.00    +0.000 A 
ATOM      9  C   UNL     1       0.420   9.271  21.593  0.00  0.00    +0.000 A 
ATOM     10  N   UNL     1       1.185   8.207  21.268  0.00  0.00    +0.000 NA
ENDROOT
BRANCH   6  11
ATOM     11  N   UNL     1      -2.052  12.481  22.753  0.00  0.00    +0.000 N 
ATOM     12  C   UNL     1      -1.756  13.877  22.395  0.00  0.00    +0.000 C 
ATOM     13  C   UNL     1      -3.008  14.520  21.755  0.00  0.00    +0.000 C 
ATOM     14  N   UNL     1      -4.214  14.427  22.601  0.00  0.00    +0.000 NA
ATOM     15  C   UNL     1      -4.460  13.013  22.953  0.00  0.00    +0.000 C 
ATOM     16  C   UNL     1      -3.243  12.317  23.603  0.00  0.00    +0.000 C 
ATOM     17  H   UNL     1      -5.013  14.780  22.076  0.00  0.00    +0.000 HD
ENDBRANCH   6  11
BRANCH   1  19
ATOM     18  N   UNL     1       2.993   7.105  18.284  0.00  0.00    +0.000 N 
ATOM     19  C   UNL     1       2.419   7.017  19.544  0.00  0.00    +0.000 C 
ATOM     20  O   UNL     1       2.514   6.086  20.333  0.00  0.00    +0.000 OA
ATOM     21  H   UNL     1       2.904   7.999  17.813  0.00  0.00    +0.000 HD
BRANCH  18  28
ATOM     22  C   UNL     1       3.255   4.776  17.497  0.00  0.00    +0.000 A 
ATOM     23  C   UNL     1       4.037   3.827  16.800  0.00  0.00    +0.000 A 
ATOM     24  C   UNL     1       5.307   4.150  16.341  0.00  0.00    +0.000 A 
ATOM     25  F   UNL     1       6.033   3.230  15.693  0.00  0.00    +0.000 F 
ATOM     26  C   UNL     1       5.829   5.418  16.535  0.00  0.00    +0.000 A 
ATOM     27  C   UNL     1       5.062   6.370  17.190  0.00  0.00    +0.000 A 
ATOM     28  C   UNL     1       3.764   6.088  17.652  0.00  0.00    +0.000 A 
BRANCH  22  29
ATOM     29  N   UNL     1       1.917   4.426  17.766  0.00  0.00    +0.000 N 
ATOM     30  H   UNL     1       1.467   3.922  17.006  0.00  0.00    +0.000 HD
ATOM     31  H   UNL     1       1.737   4.003  18.666  0.00  0.00    +0.000 HD
ENDBRANCH  22  29
ENDBRANCH  18  28
ENDBRANCH   1  19
TORSDOF 4
ENDMDL
MODEL 7
REMARK VINA RESULT:      -7.8      3.869      9.859
REMARK  Name = 
REMARK  4 active torsions:
REMARK  status: ('A' for Active; 'I' for Inactive)
REMARK    1  A    between atoms: N_1  and  C_2
REMARK    2  A    between atoms: C_8  and  N_9
REMARK    3  A    between atoms: C_10  and  C_12
REMARK    4  A    between atoms: C_17  and  N_18
REMARK                            x       y       z     vdW  Elec       q    Type
REMARK                         _______ _______ _______ _____ _____    ______ ____
ROOT
ATOM      1  C   UNL     1       1.621   8.484  19.432  0.00  0.00    +0.000 A 
ATOM      2  C   UNL     1       1.430   9.670  18.742  0.00  0.00    +0.000 A 
ATOM      3  N   UNL     1       0.761  10.719  19.275  0.00  0.00    +0.000 NA
ATOM      4  C   UNL     1       0.275  10.542  20.518  0.00  0.00    +0.000 A 
ATOM      5  C   UNL     1      -0.461  11.553  21.122  0.00  0.00    +0.000 A 
ATOM      6  C   UNL     1      -1.005  11.434  22.409  0.00  0.00    +0.000 A 
ATOM      7  C   UNL     1      -0.766  10.228  23.076  0.00  0.00    +0.000 A 
ATOM      8  C   UNL     1      -0.029   9.196  22.491  0.00  0.00    +0.000 A 
ATOM      9  C   UNL     1       0.491   9.328  21.224  0.00  0.00    +0.000 A 
ATOM     10  N   UNL     1       1.169   8.288  20.696  0.00  0.00    +0.000 NA
ENDROOT
BRANCH   6  11
ATOM     11  N   UNL     1      -1.720  12.449  22.996  0.00  0.00    +0.000 N 
ATOM     12  C   UNL     1      -1.165  13.798  23.188  0.00  0.00    +0.000 C 
ATOM     13  C   UNL     1      -2.146  14.844  22.613  0.00  0.00    +0.000 C 
ATOM     14  N   UNL     1      -3.510  14.741  23.170  0.00  0.00    +0.000 NA
ATOM     15  C   UNL     1      -4.017  13.367  22.974  0.00  0.00    +0.000 C 
ATOM     16  C   UNL     1      -3.079  12.275  23.535  0.00  0.00    +0.000 C 
ATOM     17  H   UNL     1      -4.118  15.391  22.675  0.00  0.00    +0.000 HD
ENDBRANCH   6  11
BRANCH   1  19
ATOM     18  N   UNL     1       2.013   6.085  19.254  0.00  0.00    +0.000 N 
ATOM     19  C   UNL     1       2.307   7.349  18.764  0.00  0.00    +0.000 C 
ATOM     20  O   UNL     1       3.046   7.622  17.826  0.00  0.00    +0.000 OA
ATOM     21  H   UNL     1       1.291   6.037  19.963  0.00  0.00    +0.000 HD
BRANCH  18  28
ATOM     22  C   UNL     1       3.968   4.644  18.788  0.00  0.00    +0.000 A 
ATOM     23  C   UNL     1       4.458   3.386  18.370  0.00  0.00    +0.000 A 
ATOM     24  C   UNL     1       3.594   2.409  17.892  0.00  0.00    +0.000 A 
ATOM     25  F   UNL     1       4.083   1.229  17.492  0.00  0.00    +0.000 F 
ATOM     26  C   UNL     1       2.230   2.636  17.834  0.00  0.00    +0.000 A 
ATOM     27  C   UNL     1       1.730   3.855  18.269  0.00  0.00    +0.000 A 
ATOM     28  C   UNL     1       2.569   4.862  18.779  0.00  0.00    +0.000 A 
BRANCH  22  29
ATOM     29  N   UNL     1       4.883   5.505  19.425  0.00  0.00    +0.000 N 
ATOM     30  H   UNL     1       4.511   5.947  20.262  0.00  0.00    +0.000 HD
ATOM     31  H   UNL     1       5.816   5.143  19.567  0.00  0.00    +0.000 HD
ENDBRANCH  22  29
ENDBRANCH  18  28
ENDBRANCH   1  19
TORSDOF 4
ENDMDL
MODEL 8
REMARK VINA RESULT:      -7.8      1.995      2.519
REMARK  Name = 
REMARK  4 active torsions:
REMARK  status: ('A' for Active; 'I' for Inactive)
REMARK    1  A    between atoms: N_1  and  C_2
REMARK    2  A    between atoms: C_8  and  N_9
REMARK    3  A    between atoms: C_10  and  C_12
REMARK    4  A    between atoms: C_17  and  N_18
REMARK                            x       y       z     vdW  Elec       q    Type
REMARK                         _______ _______ _______ _____ _____    ______ ____
ROOT
ATOM      1  C   UNL     1       1.085   9.990  19.561  0.00  0.00    +0.000 A 
ATOM      2  C   UNL     1       1.606   9.917  18.280  0.00  0.00    +0.000 A 
ATOM      3  N   UNL     1       2.172   8.789  17.791  0.00  0.00    +0.000 NA
ATOM      4  C   UNL     1       2.214   7.736  18.629  0.00  0.00    +0.000 A 
ATOM      5  C   UNL     1       2.817   6.553  18.221  0.00  0.00    +0.000 A 
ATOM      6  C   UNL     1       2.905   5.421  19.044  0.00  0.00    +0.000 A 
ATOM      7  C   UNL     1       2.344   5.534  20.319  0.00  0.00    +0.000 A 
ATOM      8  C   UNL     1       1.733   6.712  20.753  0.00  0.00    +0.000 A 
ATOM      9  C   UNL     1       1.661   7.815  19.935  0.00  0.00    +0.000 A 
ATOM     10  N   UNL     1       1.086   8.937  20.416  0.00  0.00    +0.000 NA
ENDROOT
BRANCH   6  11
ATOM     11  N   UNL     1       3.494   4.255  18.620  0.00  0.00    +0.000 N 
ATOM     12  C   UNL     1       4.656   3.663  19.302  0.00  0.00    +0.000 C 
ATOM     13  C   UNL     1       4.365   2.179  19.618  0.00  0.00    +0.000 C 
ATOM     14  N   UNL     1       3.979   1.388  18.432  0.00  0.00    +0.000 NA
ATOM     15  C   UNL     1       2.825   2.030  17.769  0.00  0.00    +0.000 C 
ATOM     16  C   UNL     1       3.059   3.518  17.422  0.00  0.00    +0.000 C 
ATOM     17  H   UNL     1       3.709   0.453  18.733  0.00  0.00    +0.000 HD
ENDBRANCH   6  11
BRANCH   1  19
ATOM     18  N   UNL     1      -0.614  11.194  20.830  0.00  0.00    +0.000 N 
ATOM     19  C   UNL     1       0.536  11.278  20.058  0.00  0.00    +0.000 C 
ATOM     20  O   UNL     1       1.158  12.294  19.770  0.00  0.00    +0.000 OA
ATOM     21  H   UNL     1      -0.929  10.259  21.062  0.00  0.00    +0.000 HD
BRANCH  18  28
ATOM     22  C   UNL     1      -2.257  13.030  20.624  0.00  0.00    +0.000 A 
ATOM     23  C   UNL     1      -2.977  14.071  21.253  0.00  0.00    +0.000 A 
ATOM     24  C   UNL     1      -2.718  14.418  22.572  0.00  0.00    +0.000 A 
ATOM     25  F   UNL     1      -3.406  15.415  23.143  0.00  0.00    +0.000 F 
ATOM     26  C   UNL     1      -1.765  13.738  23.311  0.00  0.00    +0.000 A 
ATOM     27  C   UNL     1      -1.072  12.693  22.717  0.00  0.00    +0.000 A 
ATOM     28  C   UNL     1      -1.318  12.298  21.390  0.00  0.00    +0.000 A 
BRANCH  22  29
ATOM     29  N   UNL     1      -2.705  12.623  19.351  0.00  0.00    +0.000 N 
ATOM     30  H   UNL     1      -3.654  12.257  19.351  0.00  0.00    +0.000 HD
ATOM     31  H   UNL     1      -2.543  13.270  18.592  0.00  0.00    +0.000 HD
ENDBRANCH  22  29
ENDBRANCH  18  28
ENDBRANCH   1  19
TORSDOF 4
ENDMDL
MODEL 9
REMARK VINA RESULT:      -7.7      3.804     10.194
REMARK  Name = 
REMARK  4 active torsions:
REMARK  status: ('A' for Active; 'I' for Inactive)
REMARK    1  A    between atoms: N_1  and  C_2
REMARK    2  A    between atoms: C_8  and  N_9
REMARK    3  A    between atoms: C_10  and  C_12
REMARK    4  A    between atoms: C_17  and  N_18
REMARK                            x       y       z     vdW  Elec       q    Type
REMARK                         _______ _______ _______ _____ _____    ______ ____
ROOT
ATOM      1  C   UNL     1       1.263   8.955  19.550  0.00  0.00    +0.000 A 
ATOM      2  C   UNL     1       1.422   8.573  20.872  0.00  0.00    +0.000 A 
ATOM      3  N   UNL     1       0.771   9.187  21.887  0.00  0.00    +0.000 NA
ATOM      4  C   UNL     1      -0.036  10.208  21.542  0.00  0.00    +0.000 A 
ATOM      5  C   UNL     1      -0.708  10.921  22.528  0.00  0.00    +0.000 A 
ATOM      6  C   UNL     1      -1.555  12.000  22.242  0.00  0.00    +0.000 A 
ATOM      7  C   UNL     1      -1.702  12.335  20.892  0.00  0.00    +0.000 A 
ATOM      8  C   UNL     1      -1.039  11.634  19.883  0.00  0.00    +0.000 A 
ATOM      9  C   UNL     1      -0.205  10.582  20.183  0.00  0.00    +0.000 A 
ATOM     10  N   UNL     1       0.434   9.960  19.170  0.00  0.00    +0.000 NA
ENDROOT
BRANCH   6  11
ATOM     11  N   UNL     1      -2.222  12.686  23.228  0.00  0.00    +0.000 N 
ATOM     12  C   UNL     1      -1.746  13.976  23.753  0.00  0.00    +0.000 C 
ATOM     13  C   UNL     1      -2.897  15.006  23.704  0.00  0.00    +0.000 C 
ATOM     14  N   UNL     1      -4.117  14.559  24.404  0.00  0.00    +0.000 NA
ATOM     15  C   UNL     1      -4.545  13.253  23.860  0.00  0.00    +0.000 C 
ATOM     16  C   UNL     1      -3.435  12.178  23.887  0.00  0.00    +0.000 C 
ATOM     17  H   UNL     1      -4.857  15.241  24.245  0.00  0.00    +0.000 HD
ENDBRANCH   6  11
BRANCH   1  19
ATOM     18  N   UNL     1       2.621   7.062  18.835  0.00  0.00    +0.000 N 
ATOM     19  C   UNL     1       2.057   8.281  18.491  0.00  0.00    +0.000 C 
ATOM     20  O   UNL     1       2.120   8.842  17.404  0.00  0.00    +0.000 OA
ATOM     21  H   UNL     1       2.371   6.694  19.746  0.00  0.00    +0.000 HD
BRANCH  18  28
ATOM     22  C   UNL     1       3.131   4.889  17.769  0.00  0.00    +0.000 A 
ATOM     23  C   UNL     1       3.930   4.157  16.863  0.00  0.00    +0.000 A 
ATOM     24  C   UNL     1       5.032   4.742  16.253  0.00  0.00    +0.000 A 
ATOM     25  F   UNL     1       5.781   4.024  15.405  0.00  0.00    +0.000 F 
ATOM     26  C   UNL     1       5.361   6.064  16.500  0.00  0.00    +0.000 A 
ATOM     27  C   UNL     1       4.568   6.805  17.364  0.00  0.00    +0.000 A 
ATOM     28  C   UNL     1       3.433   6.256  17.986  0.00  0.00    +0.000 A 
BRANCH  22  29
ATOM     29  N   UNL     1       1.936   4.281  18.201  0.00  0.00    +0.000 N 
ATOM     30  H   UNL     1       1.711   4.469  19.175  0.00  0.00    +0.000 HD
ATOM     31  H   UNL     1       1.134   4.391  17.596  0.00  0.00    +0.000 HD
ENDBRANCH  22  29
ENDBRANCH  18  28
ENDBRANCH   1  19
TORSDOF 4
ENDMDL
