MODEL 1
REMARK VINA RESULT:      -7.6      0.000      0.000
REMARK  Name = 
REMARK  8 active torsions:
REMARK  status: ('A' for Active; 'I' for Inactive)
REMARK    1  A    between atoms: C_1  and  C_2
REMARK    2  A    between atoms: C_4  and  C_5
REMARK    3  A    between atoms: C_10  and  C_11
REMARK    4  A    between atoms: C_11  and  C_12
REMARK    5  A    between atoms: C_12  and  C_13
REMARK    6  A    between atoms: N_17  and  C_18
REMARK    7  A    between atoms: N_17  and  C_19
REMARK    8  A    between atoms: N_23  and  C_24
REMARK                            x       y       z     vdW  Elec       q    Type
REMARK                         _______ _______ _______ _____ _____    ______ ____
ROOT
ATOM      1  C   UNL     1       4.462   3.975  16.834  0.00  0.00    +0.000 C 
ATOM      2  O   UNL     1       4.147   2.849  17.239  0.00  0.00    +0.000 OA
ATOM      3  N   UNL     1       3.768   5.114  17.260  0.00  0.00    +0.000 N 
ATOM      4  C   UNL     1       4.043   6.482  16.809  0.00  0.00    +0.000 C 
ATOM      5  C   UNL     1       4.125   7.459  17.970  0.00  0.00    +0.000 C 
ATOM      6  C   UNL     1       2.863   7.421  18.832  0.00  0.00    +0.000 C 
ATOM      7  C   UNL     1       2.649   5.970  19.302  0.00  0.00    +0.000 C 
ATOM      8  C   UNL     1       2.607   4.966  18.143  0.00  0.00    +0.000 C 
ENDROOT
BRANCH   1  12
ATOM      9  C   UNL     1       7.470   4.933  12.902  0.00  0.00    +0.000 C 
ATOM     10  C   UNL     1       6.959   4.597  14.253  0.00  0.00    +0.000 A 
ATOM     11  C   UNL     1       5.717   4.027  14.588  0.00  0.00    +0.000 A 
ATOM     12  C   UNL     1       5.602   4.160  15.965  0.00  0.00    +0.000 A 
ATOM     13  N   UNL     1       6.862   4.532  16.370  0.00  0.00    +0.000 N 
ATOM     14  C   UNL     1       7.372   4.687  17.712  0.00  0.00    +0.000 C 
ATOM     15  N   UNL     1       7.673   4.878  15.345  0.00  0.00    +0.000 NA
ENDBRANCH   1  12
BRANCH   6  16
ATOM     16  C   UNL     1       1.666   8.020  18.066  0.00  0.00    +0.000 C 
BRANCH  16  17
ATOM     17  C   UNL     1       1.719   9.544  17.994  0.00  0.00    +0.000 C 
BRANCH  17  18
ATOM     18  C   UNL     1       0.864  10.180  19.020  0.00  0.00    +0.000 A 
ATOM     19  N   UNL     1       0.165  11.296  18.793  0.00  0.00    +0.000 NA
ATOM     20  O   UNL     1      -0.449  11.527  20.027  0.00  0.00    +0.000 OA
ATOM     21  C   UNL     1      -0.053  10.518  20.871  0.00  0.00    +0.000 A 
ATOM     22  N   UNL     1      -0.506  10.511  22.142  0.00  0.00    +0.000 N 
ATOM     23  C   UNL     1      -1.349  11.565  22.665  0.00  0.00    +0.000 C 
ATOM     24  C   UNL     1      -0.062   9.479  23.058  0.00  0.00    +0.000 C 
ATOM     25  N   UNL     1       0.749   9.662  20.280  0.00  0.00    +0.000 NA
ENDBRANCH  17  18
ENDBRANCH  16  17
ENDBRANCH   6  16
TORSDOF 4
ENDMDL
MODEL 2
REMARK VINA RESULT:      -7.5      1.372      1.753
REMARK  Name = 
REMARK  8 active torsions:
REMARK  status: ('A' for Active; 'I' for Inactive)
REMARK    1  A    between atoms: C_1  and  C_2
REMARK    2  A    between atoms: C_4  and  C_5
REMARK    3  A    between atoms: C_10  and  C_11
REMARK    4  A    between atoms: C_11  and  C_12
REMARK    5  A    between atoms: C_12  and  C_13
REMARK    6  A    between atoms: N_17  and  C_18
REMARK    7  A    between atoms: N_17  and  C_19
REMARK    8  A    between atoms: N_23  and  C_24
REMARK                            x       y       z     vdW  Elec       q    Type
REMARK                         _______ _______ _______ _____ _____    ______ ____
ROOT
ATOM      1  C   UNL     1       4.417   3.958  16.975  0.00  0.00    +0.000 C 
ATOM      2  O   UNL     1       4.115   2.833  17.388  0.00  0.00    +0.000 OA
ATOM      3  N   UNL     1       3.700   5.091  17.379  0.00  0.00    +0.000 N 
ATOM      4  C   UNL     1       3.960   6.458  16.917  0.00  0.00    +0.000 C 
ATOM      5  C   UNL     1       4.011   7.449  18.068  0.00  0.00    +0.000 C 
ATOM      6  C   UNL     1       2.738   7.400  18.913  0.00  0.00    +0.000 C 
ATOM      7  C   UNL     1       2.541   5.951  19.396  0.00  0.00    +0.000 C 
ATOM      8  C   UNL     1       2.530   4.934  18.248  0.00  0.00    +0.000 C 
ENDROOT
BRANCH   1  12
ATOM      9  C   UNL     1       7.466   4.950  13.082  0.00  0.00    +0.000 C 
ATOM     10  C   UNL     1       6.940   4.604  14.425  0.00  0.00    +0.000 A 
ATOM     11  C   UNL     1       5.697   4.028  14.743  0.00  0.00    +0.000 A 
ATOM     12  C   UNL     1       5.567   4.153  16.119  0.00  0.00    +0.000 A 
ATOM     13  N   UNL     1       6.821   4.525  16.540  0.00  0.00    +0.000 N 
ATOM     14  C   UNL     1       7.317   4.673  17.889  0.00  0.00    +0.000 C 
ATOM     15  N   UNL     1       7.642   4.880  15.527  0.00  0.00    +0.000 NA
ENDBRANCH   1  12
BRANCH   6  16
ATOM     16  C   UNL     1       1.543   7.972  18.125  0.00  0.00    +0.000 C 
BRANCH  16  17
ATOM     17  C   UNL     1       1.701   9.458  17.815  0.00  0.00    +0.000 C 
BRANCH  17  18
ATOM     18  C   UNL     1       0.720  10.288  18.549  0.00  0.00    +0.000 A 
ATOM     19  N   UNL     1       1.002  10.892  19.707  0.00  0.00    +0.000 NA
ATOM     20  O   UNL     1      -0.206  11.517  20.026  0.00  0.00    +0.000 OA
ATOM     21  C   UNL     1      -1.093  11.222  19.019  0.00  0.00    +0.000 A 
ATOM     22  N   UNL     1      -2.350  11.707  19.091  0.00  0.00    +0.000 N 
ATOM     23  C   UNL     1      -2.816  12.479  20.223  0.00  0.00    +0.000 C 
ATOM     24  C   UNL     1      -3.311  11.368  18.059  0.00  0.00    +0.000 C 
ATOM     25  N   UNL     1      -0.553  10.474  18.085  0.00  0.00    +0.000 NA
ENDBRANCH  17  18
ENDBRANCH  16  17
ENDBRANCH   6  16
TORSDOF 4
ENDMDL
MODEL 3
REMARK VINA RESULT:      -7.2      1.124      1.426
REMARK  Name = 
REMARK  8 active torsions:
REMARK  status: ('A' for Active; 'I' for Inactive)
REMARK    1  A    between atoms: C_1  and  C_2
REMARK    2  A    between atoms: C_4  and  C_5
REMARK    3  A    between atoms: C_10  and  C_11
REMARK    4  A    between atoms: C_11  and  C_12
REMARK    5  A    between atoms: C_12  and  C_13
REMARK    6  A    between atoms: N_17  and  C_18
REMARK    7  A    between atoms: N_17  and  C_19
REMARK    8  A    between atoms: N_23  and  C_24
REMARK                            x       y       z     vdW  Elec       q    Type
REMARK                         _______ _______ _______ _____ _____    ______ ____
ROOT
ATOM      1  C   UNL     1       4.455   4.014  16.880  0.00  0.00    +0.000 C 
ATOM      2  O   UNL     1       4.150   2.894  17.307  0.00  0.00    +0.000 OA
ATOM      3  N   UNL     1       3.753   5.156  17.286  0.00  0.00    +0.000 N 
ATOM      4  C   UNL     1       4.016   6.517  16.808  0.00  0.00    +0.000 C 
ATOM      5  C   UNL     1       4.093   7.516  17.949  0.00  0.00    +0.000 C 
ATOM      6  C   UNL     1       2.833   7.485  18.815  0.00  0.00    +0.000 C 
ATOM      7  C   UNL     1       2.632   6.041  19.313  0.00  0.00    +0.000 C 
ATOM      8  C   UNL     1       2.595   5.016  18.174  0.00  0.00    +0.000 C 
ENDROOT
BRANCH   1  12
ATOM      9  C   UNL     1       7.452   4.987  12.942  0.00  0.00    +0.000 C 
ATOM     10  C   UNL     1       6.944   4.634  14.291  0.00  0.00    +0.000 A 
ATOM     11  C   UNL     1       5.692   4.086  14.624  0.00  0.00    +0.000 A 
ATOM     12  C   UNL     1       5.592   4.192  16.005  0.00  0.00    +0.000 A 
ATOM     13  N   UNL     1       6.863   4.526  16.406  0.00  0.00    +0.000 N 
ATOM     14  C   UNL     1       7.388   4.641  17.746  0.00  0.00    +0.000 C 
ATOM     15  N   UNL     1       7.673   4.875  15.382  0.00  0.00    +0.000 NA
ENDBRANCH   1  12
BRANCH   6  16
ATOM     16  C   UNL     1       1.630   8.059  18.040  0.00  0.00    +0.000 C 
BRANCH  16  17
ATOM     17  C   UNL     1       1.694   9.578  17.898  0.00  0.00    +0.000 C 
BRANCH  17  18
ATOM     18  C   UNL     1       1.046  10.272  19.033  0.00  0.00    +0.000 A 
ATOM     19  N   UNL     1       0.087   9.712  19.775  0.00  0.00    +0.000 NA
ATOM     20  O   UNL     1      -0.229  10.727  20.681  0.00  0.00    +0.000 OA
ATOM     21  C   UNL     1       0.580  11.797  20.387  0.00  0.00    +0.000 A 
ATOM     22  N   UNL     1       0.468  12.925  21.122  0.00  0.00    +0.000 N 
ATOM     23  C   UNL     1      -0.518  13.065  22.172  0.00  0.00    +0.000 C 
ATOM     24  C   UNL     1       1.282  14.079  20.796  0.00  0.00    +0.000 C 
ATOM     25  N   UNL     1       1.388  11.549  19.382  0.00  0.00    +0.000 NA
ENDBRANCH  17  18
ENDBRANCH  16  17
ENDBRANCH   6  16
TORSDOF 4
ENDMDL
MODEL 4
REMARK VINA RESULT:      -7.2      0.992      1.045
REMARK  Name = 
REMARK  8 active torsions:
REMARK  status: ('A' for Active; 'I' for Inactive)
REMARK    1  A    between atoms: C_1  and  C_2
REMARK    2  A    between atoms: C_4  and  C_5
REMARK    3  A    between atoms: C_10  and  C_11
REMARK    4  A    between atoms: C_11  and  C_12
REMARK    5  A    between atoms: C_12  and  C_13
REMARK    6  A    between atoms: N_17  and  C_18
REMARK    7  A    between atoms: N_17  and  C_19
REMARK    8  A    between atoms: N_23  and  C_24
REMARK                            x       y       z     vdW  Elec       q    Type
REMARK                         _______ _______ _______ _____ _____    ______ ____
ROOT
ATOM      1  C   UNL     1       4.423   3.927  17.049  0.00  0.00    +0.000 C 
ATOM      2  O   UNL     1       4.126   2.792  17.439  0.00  0.00    +0.000 OA
ATOM      3  N   UNL     1       3.704   5.049  17.481  0.00  0.00    +0.000 N 
ATOM      4  C   UNL     1       3.957   6.426  17.048  0.00  0.00    +0.000 C 
ATOM      5  C   UNL     1       4.011   7.392  18.219  0.00  0.00    +0.000 C 
ATOM      6  C   UNL     1       2.742   7.321  19.068  0.00  0.00    +0.000 C 
ATOM      7  C   UNL     1       2.551   5.861  19.521  0.00  0.00    +0.000 C 
ATOM      8  C   UNL     1       2.538   4.870  18.352  0.00  0.00    +0.000 C 
ENDROOT
BRANCH   1  12
ATOM      9  C   UNL     1       7.450   5.006  13.163  0.00  0.00    +0.000 C 
ATOM     10  C   UNL     1       6.932   4.632  14.502  0.00  0.00    +0.000 A 
ATOM     11  C   UNL     1       5.693   4.044  14.814  0.00  0.00    +0.000 A 
ATOM     12  C   UNL     1       5.568   4.143  16.193  0.00  0.00    +0.000 A 
ATOM     13  N   UNL     1       6.821   4.516  16.616  0.00  0.00    +0.000 N 
ATOM     14  C   UNL     1       7.321   4.643  17.965  0.00  0.00    +0.000 C 
ATOM     15  N   UNL     1       7.636   4.894  15.605  0.00  0.00    +0.000 NA
ENDBRANCH   1  12
BRANCH   6  16
ATOM     16  C   UNL     1       1.541   7.906  18.298  0.00  0.00    +0.000 C 
BRANCH  16  17
ATOM     17  C   UNL     1       1.864   9.242  17.634  0.00  0.00    +0.000 C 
BRANCH  17  18
ATOM     18  C   UNL     1       1.548  10.391  18.512  0.00  0.00    +0.000 A 
ATOM     19  N   UNL     1       2.054  11.612  18.321  0.00  0.00    +0.000 NA
ATOM     20  O   UNL     1       1.510  12.337  19.385  0.00  0.00    +0.000 OA
ATOM     21  C   UNL     1       0.728  11.469  20.107  0.00  0.00    +0.000 A 
ATOM     22  N   UNL     1       0.085  11.925  21.204  0.00  0.00    +0.000 N 
ATOM     23  C   UNL     1       0.241  13.282  21.680  0.00  0.00    +0.000 C 
ATOM     24  C   UNL     1      -0.708  11.011  22.003  0.00  0.00    +0.000 C 
ATOM     25  N   UNL     1       0.718  10.262  19.592  0.00  0.00    +0.000 NA
ENDBRANCH  17  18
ENDBRANCH  16  17
ENDBRANCH   6  16
TORSDOF 4
ENDMDL
MODEL 5
REMARK VINA RESULT:      -6.8      1.995      8.978
REMARK  Name = 
REMARK  8 active torsions:
REMARK  status: ('A' for Active; 'I' for Inactive)
REMARK    1  A    between atoms: C_1  and  C_2
REMARK    2  A    between atoms: C_4  and  C_5
REMARK    3  A    between atoms: C_10  and  C_11
REMARK    4  A    between atoms: C_11  and  C_12
REMARK    5  A    between atoms: C_12  and  C_13
REMARK    6  A    between atoms: N_17  and  C_18
REMARK    7  A    between atoms: N_17  and  C_19
REMARK    8  A    between atoms: N_23  and  C_24
REMARK                            x       y       z     vdW  Elec       q    Type
REMARK                         _______ _______ _______ _____ _____    ______ ____
ROOT
ATOM      1  C   UNL     1       0.791   8.970  20.419  0.00  0.00    +0.000 C 
ATOM      2  O   UNL     1       0.453   8.796  21.595  0.00  0.00    +0.000 OA
ATOM      3  N   UNL     1       1.724   8.126  19.804  0.00  0.00    +0.000 N 
ATOM      4  C   UNL     1       2.213   8.273  18.430  0.00  0.00    +0.000 C 
ATOM      5  C   UNL     1       2.184   6.959  17.670  0.00  0.00    +0.000 C 
ATOM      6  C   UNL     1       2.962   5.865  18.402  0.00  0.00    +0.000 C 
ATOM      7  C   UNL     1       2.380   5.734  19.822  0.00  0.00    +0.000 C 
ATOM      8  C   UNL     1       2.363   7.063  20.586  0.00  0.00    +0.000 C 
ENDROOT
BRANCH   1  12
ATOM      9  C   UNL     1      -2.333  11.661  17.516  0.00  0.00    +0.000 C 
ATOM     10  C   UNL     1      -1.186  11.227  18.350  0.00  0.00    +0.000 A 
ATOM     11  C   UNL     1      -0.724   9.916  18.566  0.00  0.00    +0.000 A 
ATOM     12  C   UNL     1       0.181  10.006  19.615  0.00  0.00    +0.000 A 
ATOM     13  N   UNL     1       0.396  11.356  19.755  0.00  0.00    +0.000 N 
ATOM     14  C   UNL     1       1.343  12.038  20.606  0.00  0.00    +0.000 C 
ATOM     15  N   UNL     1      -0.480  12.112  19.056  0.00  0.00    +0.000 NA
ENDBRANCH   1  12
BRANCH   6  16
ATOM     16  C   UNL     1       4.475   6.159  18.365  0.00  0.00    +0.000 C 
BRANCH  16  17
ATOM     17  C   UNL     1       5.308   4.915  18.066  0.00  0.00    +0.000 C 
BRANCH  17  18
ATOM     18  C   UNL     1       6.110   5.065  16.831  0.00  0.00    +0.000 A 
ATOM     19  N   UNL     1       7.182   5.859  16.753  0.00  0.00    +0.000 NA
ATOM     20  O   UNL     1       7.581   5.702  15.423  0.00  0.00    +0.000 OA
ATOM     21  C   UNL     1       6.702   4.823  14.839  0.00  0.00    +0.000 A 
ATOM     22  N   UNL     1       6.864   4.502  13.537  0.00  0.00    +0.000 N 
ATOM     23  C   UNL     1       7.898   5.099  12.720  0.00  0.00    +0.000 C 
ATOM     24  C   UNL     1       5.918   3.612  12.893  0.00  0.00    +0.000 C 
ATOM     25  N   UNL     1       5.787   4.401  15.680  0.00  0.00    +0.000 NA
ENDBRANCH  17  18
ENDBRANCH  16  17
ENDBRANCH   6  16
TORSDOF 4
ENDMDL
MODEL 6
REMARK VINA RESULT:      -6.6      7.840     11.125
REMARK  Name = 
REMARK  8 active torsions:
REMARK  status: ('A' for Active; 'I' for Inactive)
REMARK    1  A    between atoms: C_1  and  C_2
REMARK    2  A    between atoms: C_4  and  C_5
REMARK    3  A    between atoms: C_10  and  C_11
REMARK    4  A    between atoms: C_11  and  C_12
REMARK    5  A    between atoms: C_12  and  C_13
REMARK    6  A    between atoms: N_17  and  C_18
REMARK    7  A    between atoms: N_17  and  C_19
REMARK    8  A    between atoms: N_23  and  C_24
REMARK                            x       y       z     vdW  Elec       q    Type
REMARK                         _______ _______ _______ _____ _____    ______ ____
ROOT
ATOM      1  C   UNL     1       8.903  14.962  20.370  0.00  0.00    +0.000 C 
ATOM      2  O   UNL     1       8.551  15.779  19.511  0.00  0.00    +0.000 OA
ATOM      3  N   UNL     1       9.095  13.613  20.046  0.00  0.00    +0.000 N 
ATOM      4  C   UNL     1       9.475  12.567  21.000  0.00  0.00    +0.000 C 
ATOM      5  C   UNL     1      10.612  11.705  20.478  0.00  0.00    +0.000 C 
ATOM      6  C   UNL     1      10.279  11.095  19.116  0.00  0.00    +0.000 C 
ATOM      7  C   UNL     1       9.924  12.243  18.152  0.00  0.00    +0.000 C 
ATOM      8  C   UNL     1       8.807  13.148  18.687  0.00  0.00    +0.000 C 
ENDROOT
BRANCH   1  12
ATOM      9  C   UNL     1      10.931  17.117  24.454  0.00  0.00    +0.000 C 
ATOM     10  C   UNL     1      10.059  16.338  23.541  0.00  0.00    +0.000 A 
ATOM     11  C   UNL     1      10.401  15.763  22.303  0.00  0.00    +0.000 A 
ATOM     12  C   UNL     1       9.199  15.385  21.721  0.00  0.00    +0.000 A 
ATOM     13  N   UNL     1       8.284  15.501  22.740  0.00  0.00    +0.000 N 
ATOM     14  C   UNL     1       6.892  15.116  22.754  0.00  0.00    +0.000 C 
ATOM     15  N   UNL     1       8.768  16.150  23.822  0.00  0.00    +0.000 NA
ENDBRANCH   1  12
BRANCH   6  16
ATOM     16  C   UNL     1       9.178  10.025  19.257  0.00  0.00    +0.000 C 
BRANCH  16  17
ATOM     17  C   UNL     1       8.532   9.667  17.920  0.00  0.00    +0.000 C 
BRANCH  17  18
ATOM     18  C   UNL     1       8.008   8.284  17.907  0.00  0.00    +0.000 A 
ATOM     19  N   UNL     1       8.417   7.343  18.763  0.00  0.00    +0.000 NA
ATOM     20  O   UNL     1       7.685   6.224  18.360  0.00  0.00    +0.000 OA
ATOM     21  C   UNL     1       6.905   6.613  17.297  0.00  0.00    +0.000 A 
ATOM     22  N   UNL     1       6.097   5.705  16.711  0.00  0.00    +0.000 N 
ATOM     23  C   UNL     1       6.067   4.319  17.126  0.00  0.00    +0.000 C 
ATOM     24  C   UNL     1       5.302   6.087  15.560  0.00  0.00    +0.000 C 
ATOM     25  N   UNL     1       7.070   7.880  16.997  0.00  0.00    +0.000 NA
ENDBRANCH  17  18
ENDBRANCH  16  17
ENDBRANCH   6  16
TORSDOF 4
ENDMDL
MODEL 7
REMARK VINA RESULT:      -6.6      3.119      4.128
REMARK  Name = 
REMARK  8 active torsions:
REMARK  status: ('A' for Active; 'I' for Inactive)
REMARK    1  A    between atoms: C_1  and  C_2
REMARK    2  A    between atoms: C_4  and  C_5
REMARK    3  A    between atoms: C_10  and  C_11
REMARK    4  A    between atoms: C_11  and  C_12
REMARK    5  A    between atoms: C_12  and  C_13
REMARK    6  A    between atoms: N_17  and  C_18
REMARK    7  A    between atoms: N_17  and  C_19
REMARK    8  A    between atoms: N_23  and  C_24
REMARK                            x       y       z     vdW  Elec       q    Type
REMARK                         _______ _______ _______ _____ _____    ______ ____
ROOT
ATOM      1  C   UNL     1       3.084   6.028  19.348  0.00  0.00    +0.000 C 
ATOM      2  O   UNL     1       3.259   5.425  20.413  0.00  0.00    +0.000 OA
ATOM      3  N   UNL     1       2.211   7.120  19.272  0.00  0.00    +0.000 N 
ATOM      4  C   UNL     1       1.912   7.873  18.050  0.00  0.00    +0.000 C 
ATOM      5  C   UNL     1       1.994   9.373  18.272  0.00  0.00    +0.000 C 
ATOM      6  C   UNL     1       1.088   9.826  19.417  0.00  0.00    +0.000 C 
ATOM      7  C   UNL     1       1.474   9.027  20.676  0.00  0.00    +0.000 C 
ATOM      8  C   UNL     1       1.438   7.510  20.455  0.00  0.00    +0.000 C 
ENDROOT
BRANCH   1  12
ATOM      9  C   UNL     1       6.699   5.399  15.887  0.00  0.00    +0.000 C 
ATOM     10  C   UNL     1       5.410   5.362  16.622  0.00  0.00    +0.000 A 
ATOM     11  C   UNL     1       4.936   6.278  17.578  0.00  0.00    +0.000 A 
ATOM     12  C   UNL     1       3.831   5.673  18.161  0.00  0.00    +0.000 A 
ATOM     13  N   UNL     1       3.569   4.600  17.344  0.00  0.00    +0.000 N 
ATOM     14  C   UNL     1       2.455   3.682  17.384  0.00  0.00    +0.000 C 
ATOM     15  N   UNL     1       4.558   4.349  16.457  0.00  0.00    +0.000 NA
ENDBRANCH   1  12
BRANCH   6  16
ATOM     16  C   UNL     1      -0.396   9.698  19.017  0.00  0.00    +0.000 C 
BRANCH  16  17
ATOM     17  C   UNL     1      -0.652  10.114  17.571  0.00  0.00    +0.000 C 
BRANCH  17  18
ATOM     18  C   UNL     1      -2.045  10.567  17.360  0.00  0.00    +0.000 A 
ATOM     19  N   UNL     1      -2.678  10.450  16.189  0.00  0.00    +0.000 NA
ATOM     20  O   UNL     1      -3.923  11.025  16.458  0.00  0.00    +0.000 OA
ATOM     21  C   UNL     1      -3.907  11.429  17.770  0.00  0.00    +0.000 A 
ATOM     22  N   UNL     1      -5.002  12.029  18.284  0.00  0.00    +0.000 N 
ATOM     23  C   UNL     1      -6.172  12.315  17.482  0.00  0.00    +0.000 C 
ATOM     24  C   UNL     1      -4.986  12.503  19.654  0.00  0.00    +0.000 C 
ATOM     25  N   UNL     1      -2.768  11.153  18.362  0.00  0.00    +0.000 NA
ENDBRANCH  17  18
ENDBRANCH  16  17
ENDBRANCH   6  16
TORSDOF 4
ENDMDL
MODEL 8
REMARK VINA RESULT:      -6.6      3.303      5.240
REMARK  Name = 
REMARK  8 active torsions:
REMARK  status: ('A' for Active; 'I' for Inactive)
REMARK    1  A    between atoms: C_1  and  C_2
REMARK    2  A    between atoms: C_4  and  C_5
REMARK    3  A    between atoms: C_10  and  C_11
REMARK    4  A    between atoms: C_11  and  C_12
REMARK    5  A    between atoms: C_12  and  C_13
REMARK    6  A    between atoms: N_17  and  C_18
REMARK    7  A    between atoms: N_17  and  C_19
REMARK    8  A    between atoms: N_23  and  C_24
REMARK                            x       y       z     vdW  Elec       q    Type
REMARK                         _______ _______ _______ _____ _____    ______ ____
ROOT
ATOM      1  C   UNL     1       2.372   6.970  18.917  0.00  0.00    +0.000 C 
ATOM      2  O   UNL     1       2.689   6.959  17.722  0.00  0.00    +0.000 OA
ATOM      3  N   UNL     1       1.810   8.111  19.503  0.00  0.00    +0.000 N 
ATOM      4  C   UNL     1       1.436   8.232  20.916  0.00  0.00    +0.000 C 
ATOM      5  C   UNL     1       0.045   8.816  21.090  0.00  0.00    +0.000 C 
ATOM      6  C   UNL     1      -0.096  10.163  20.380  0.00  0.00    +0.000 C 
ATOM      7  C   UNL     1       0.274   9.963  18.899  0.00  0.00    +0.000 C 
ATOM      8  C   UNL     1       1.660   9.334  18.708  0.00  0.00    +0.000 C 
ENDROOT
BRANCH   1  12
ATOM      9  C   UNL     1       1.488   2.752  21.535  0.00  0.00    +0.000 C 
ATOM     10  C   UNL     1       2.148   3.907  20.878  0.00  0.00    +0.000 A 
ATOM     11  C   UNL     1       1.586   5.158  20.567  0.00  0.00    +0.000 A 
ATOM     12  C   UNL     1       2.502   5.783  19.732  0.00  0.00    +0.000 A 
ATOM     13  N   UNL     1       3.629   5.002  19.831  0.00  0.00    +0.000 N 
ATOM     14  C   UNL     1       4.944   5.238  19.282  0.00  0.00    +0.000 C 
ATOM     15  N   UNL     1       3.410   3.823  20.454  0.00  0.00    +0.000 NA
ENDBRANCH   1  12
BRANCH   6  16
ATOM     16  C   UNL     1       0.737  11.243  21.100  0.00  0.00    +0.000 C 
BRANCH  16  17
ATOM     17  C   UNL     1       0.184  12.650  20.885  0.00  0.00    +0.000 C 
BRANCH  17  18
ATOM     18  C   UNL     1      -1.286  12.701  21.042  0.00  0.00    +0.000 A 
ATOM     19  N   UNL     1      -2.122  12.867  20.013  0.00  0.00    +0.000 NA
ATOM     20  O   UNL     1      -3.373  12.880  20.636  0.00  0.00    +0.000 OA
ATOM     21  C   UNL     1      -3.155  12.719  21.983  0.00  0.00    +0.000 A 
ATOM     22  N   UNL     1      -4.215  12.703  22.820  0.00  0.00    +0.000 N 
ATOM     23  C   UNL     1      -5.569  12.910  22.353  0.00  0.00    +0.000 C 
ATOM     24  C   UNL     1      -4.000  12.580  24.248  0.00  0.00    +0.000 C 
ATOM     25  N   UNL     1      -1.880  12.594  22.269  0.00  0.00    +0.000 NA
ENDBRANCH  17  18
ENDBRANCH  16  17
ENDBRANCH   6  16
TORSDOF 4
ENDMDL
MODEL 9
REMARK VINA RESULT:      -6.5      3.363      5.396
REMARK  Name = 
REMARK  8 active torsions:
REMARK  status: ('A' for Active; 'I' for Inactive)
REMARK    1  A    between atoms: C_1  and  C_2
REMARK    2  A    between atoms: C_4  and  C_5
REMARK    3  A    between atoms: C_10  and  C_11
REMARK    4  A    between atoms: C_11  and  C_12
REMARK    5  A    between atoms: C_12  and  C_13
REMARK    6  A    between atoms: N_17  and  C_18
REMARK    7  A    between atoms: N_17  and  C_19
REMARK    8  A    between atoms: N_23  and  C_24
REMARK                            x       y       z     vdW  Elec       q    Type
REMARK                         _______ _______ _______ _____ _____    ______ ____
ROOT
ATOM      1  C   UNL     1       2.226   6.883  18.861  0.00  0.00    +0.000 C 
ATOM      2  O   UNL     1       2.465   6.849  17.649  0.00  0.00    +0.000 OA
ATOM      3  N   UNL     1       1.719   8.041  19.464  0.00  0.00    +0.000 N 
ATOM      4  C   UNL     1       1.439   8.189  20.896  0.00  0.00    +0.000 C 
ATOM      5  C   UNL     1       0.070   8.798  21.148  0.00  0.00    +0.000 C 
ATOM      6  C   UNL     1      -0.095  10.136  20.428  0.00  0.00    +0.000 C 
ATOM      7  C   UNL     1       0.176   9.908  18.929  0.00  0.00    +0.000 C 
ATOM      8  C   UNL     1       1.537   9.254  18.661  0.00  0.00    +0.000 C 
ENDROOT
BRANCH   1  12
ATOM      9  C   UNL     1       1.470   2.643  21.485  0.00  0.00    +0.000 C 
ATOM     10  C   UNL     1       2.093   3.822  20.835  0.00  0.00    +0.000 A 
ATOM     11  C   UNL     1       1.485   5.047  20.505  0.00  0.00    +0.000 A 
ATOM     12  C   UNL     1       2.390   5.706  19.685  0.00  0.00    +0.000 A 
ATOM     13  N   UNL     1       3.547   4.975  19.811  0.00  0.00    +0.000 N 
ATOM     14  C   UNL     1       4.861   5.263  19.286  0.00  0.00    +0.000 C 
ATOM     15  N   UNL     1       3.366   3.790  20.436  0.00  0.00    +0.000 NA
ENDBRANCH   1  12
BRANCH   6  16
ATOM     16  C   UNL     1       0.797  11.213  21.075  0.00  0.00    +0.000 C 
BRANCH  16  17
ATOM     17  C   UNL     1       0.131  12.587  21.107  0.00  0.00    +0.000 C 
BRANCH  17  18
ATOM     18  C   UNL     1      -1.120  12.581  21.897  0.00  0.00    +0.000 A 
ATOM     19  N   UNL     1      -1.149  12.333  23.210  0.00  0.00    +0.000 NA
ATOM     20  O   UNL     1      -2.513  12.405  23.503  0.00  0.00    +0.000 OA
ATOM     21  C   UNL     1      -3.165  12.691  22.329  0.00  0.00    +0.000 A 
ATOM     22  N   UNL     1      -4.509  12.810  22.338  0.00  0.00    +0.000 N 
ATOM     23  C   UNL     1      -5.295  12.586  23.532  0.00  0.00    +0.000 C 
ATOM     24  C   UNL     1      -5.216  13.066  21.098  0.00  0.00    +0.000 C 
ATOM     25  N   UNL     1      -2.336  12.817  21.318  0.00  0.00    +0.000 NA
ENDBRANCH  17  18
ENDBRANCH  16  17
ENDBRANCH   6  16
TORSDOF 4
ENDMDL
