MODEL 1
REMARK VINA RESULT:      -7.1      0.000      0.000
REMARK  Name = 
REMARK  5 active torsions:
REMARK  status: ('A' for Active; 'I' for Inactive)
REMARK    1  A    between atoms: C_1  and  C_2
REMARK    2  A    between atoms: C_2  and  C_3
REMARK    3  A    between atoms: C_2  and  C_4
REMARK    4  A    between atoms: C_4  and  N_5
REMARK    5  A    between atoms: N_13  and  C_14
REMARK                            x       y       z     vdW  Elec       q    Type
REMARK                         _______ _______ _______ _____ _____    ______ ____
ROOT
ATOM      1  N   UNL     1       0.874   3.777  20.216  0.00  0.00    +0.000 NA
ATOM      2  C   UNL     1       0.819   2.982  18.984  0.00  0.00    +0.000 C 
ATOM      3  C   UNL     1       1.976   1.956  18.990  0.00  0.00    +0.000 C 
ATOM      4  C   UNL     1       2.863   1.978  17.740  0.00  0.00    +0.000 C 
ATOM      5  C   UNL     1       3.551   3.297  17.409  0.00  0.00    +0.000 C 
ATOM      6  N   UNL     1       4.719   3.698  18.190  0.00  0.00    +0.000 N 
ATOM      7  C   UNL     1       5.478   4.711  17.556  0.00  0.00    +0.000 C 
ATOM      8  O   UNL     1       5.237   5.101  16.415  0.00  0.00    +0.000 OA
ATOM      9  N   UNL     1       6.536   5.210  18.277  0.00  0.00    +0.000 N 
ATOM     10  C   UNL     1       4.737   3.544  19.647  0.00  0.00    +0.000 C 
ATOM     11  C   UNL     1       4.246   2.231  20.250  0.00  0.00    +0.000 C 
ATOM     12  C   UNL     1       2.740   2.000  20.316  0.00  0.00    +0.000 C 
ATOM     13  S   UNL     1       1.857   3.105  21.404  0.00  0.00    +0.000 S 
ATOM     14  O   UNL     1       1.014   2.307  22.268  0.00  0.00    +0.000 OA
ATOM     15  O   UNL     1       2.742   4.123  21.928  0.00  0.00    +0.000 OA
ATOM     16  H   UNL     1       6.384   5.277  19.268  0.00  0.00    +0.000 HD
ENDROOT
BRANCH   9  17
ATOM     17  C   UNL     1       7.393   6.264  17.747  0.00  0.00    +0.000 C 
ATOM     18  C   UNL     1       6.566   7.483  17.337  0.00  0.00    +0.000 C 
ATOM     19  C   UNL     1       7.550   8.637  17.380  0.00  0.00    +0.000 C 
ATOM     20  C   UNL     1       8.420   8.339  18.591  0.00  0.00    +0.000 C 
ATOM     21  C   UNL     1       8.424   6.817  18.744  0.00  0.00    +0.000 C 
ENDBRANCH   9  17
BRANCH   1  22
ATOM     22  C   UNL     1       0.712   5.240  20.141  0.00  0.00    +0.000 C 
BRANCH  22  24
ATOM     23  C   UNL     1       2.161   6.189  18.250  0.00  0.00    +0.000 C 
ATOM     24  C   UNL     1       2.023   5.958  19.758  0.00  0.00    +0.000 C 
ATOM     25  C   UNL     1       2.096   7.312  20.473  0.00  0.00    +0.000 C 
ENDBRANCH  22  24
ENDBRANCH   1  22
TORSDOF 3
ENDMDL
MODEL 2
REMARK VINA RESULT:      -6.9      2.723      4.354
REMARK  Name = 
REMARK  5 active torsions:
REMARK  status: ('A' for Active; 'I' for Inactive)
REMARK    1  A    between atoms: C_1  and  C_2
REMARK    2  A    between atoms: C_2  and  C_3
REMARK    3  A    between atoms: C_2  and  C_4
REMARK    4  A    between atoms: C_4  and  N_5
REMARK    5  A    between atoms: N_13  and  C_14
REMARK                            x       y       z     vdW  Elec       q    Type
REMARK                         _______ _______ _______ _____ _____    ______ ____
ROOT
ATOM      1  N   UNL     1       4.057   4.934  18.714  0.00  0.00    +0.000 NA
ATOM      2  C   UNL     1       4.033   5.150  17.263  0.00  0.00    +0.000 C 
ATOM      3  C   UNL     1       5.421   4.808  16.675  0.00  0.00    +0.000 C 
ATOM      4  C   UNL     1       6.046   5.910  15.813  0.00  0.00    +0.000 C 
ATOM      5  C   UNL     1       6.259   7.265  16.478  0.00  0.00    +0.000 C 
ATOM      6  N   UNL     1       7.373   7.425  17.410  0.00  0.00    +0.000 N 
ATOM      7  C   UNL     1       7.690   8.783  17.652  0.00  0.00    +0.000 C 
ATOM      8  O   UNL     1       7.163   9.706  17.033  0.00  0.00    +0.000 OA
ATOM      9  N   UNL     1       8.662   9.014  18.595  0.00  0.00    +0.000 N 
ATOM     10  C   UNL     1       7.674   6.392  18.405  0.00  0.00    +0.000 C 
ATOM     11  C   UNL     1       7.690   4.933  17.962  0.00  0.00    +0.000 C 
ATOM     12  C   UNL     1       6.347   4.239  17.754  0.00  0.00    +0.000 C 
ATOM     13  S   UNL     1       5.374   4.026  19.235  0.00  0.00    +0.000 S 
ATOM     14  O   UNL     1       4.952   2.644  19.301  0.00  0.00    +0.000 OA
ATOM     15  O   UNL     1       6.001   4.690  20.359  0.00  0.00    +0.000 OA
ATOM     16  H   UNL     1       8.663   8.379  19.373  0.00  0.00    +0.000 HD
ENDROOT
BRANCH   9  17
ATOM     17  C   UNL     1       9.079  10.366  18.949  0.00  0.00    +0.000 C 
ATOM     18  C   UNL     1       9.510  10.438  20.414  0.00  0.00    +0.000 C 
ATOM     19  C   UNL     1      10.426  11.645  20.479  0.00  0.00    +0.000 C 
ATOM     20  C   UNL     1      11.205  11.591  19.175  0.00  0.00    +0.000 C 
ATOM     21  C   UNL     1      10.294  10.891  18.166  0.00  0.00    +0.000 C 
ENDBRANCH   9  17
BRANCH   1  22
ATOM     22  C   UNL     1       3.469   5.949  19.607  0.00  0.00    +0.000 C 
BRANCH  22  24
ATOM     23  C   UNL     1       1.978   4.329  20.923  0.00  0.00    +0.000 C 
ATOM     24  C   UNL     1       2.037   5.586  20.048  0.00  0.00    +0.000 C 
ATOM     25  C   UNL     1       1.425   6.756  20.828  0.00  0.00    +0.000 C 
ENDBRANCH  22  24
ENDBRANCH   1  22
TORSDOF 3
ENDMDL
MODEL 3
REMARK VINA RESULT:      -6.8      2.860      4.667
REMARK  Name = 
REMARK  5 active torsions:
REMARK  status: ('A' for Active; 'I' for Inactive)
REMARK    1  A    between atoms: C_1  and  C_2
REMARK    2  A    between atoms: C_2  and  C_3
REMARK    3  A    between atoms: C_2  and  C_4
REMARK    4  A    between atoms: C_4  and  N_5
REMARK    5  A    between atoms: N_13  and  C_14
REMARK                            x       y       z     vdW  Elec       q    Type
REMARK                         _______ _______ _______ _____ _____    ______ ____
ROOT
ATOM      1  N   UNL     1       4.278   5.174  17.878  0.00  0.00    +0.000 NA
ATOM      2  C   UNL     1       4.818   5.223  16.514  0.00  0.00    +0.000 C 
ATOM      3  C   UNL     1       6.306   4.805  16.542  0.00  0.00    +0.000 C 
ATOM      4  C   UNL     1       7.267   5.798  15.878  0.00  0.00    +0.000 C 
ATOM      5  C   UNL     1       7.280   7.218  16.432  0.00  0.00    +0.000 C 
ATOM      6  N   UNL     1       7.963   7.474  17.698  0.00  0.00    +0.000 N 
ATOM      7  C   UNL     1       8.233   8.848  17.903  0.00  0.00    +0.000 C 
ATOM      8  O   UNL     1       8.028   9.699  17.039  0.00  0.00    +0.000 OA
ATOM      9  N   UNL     1       8.784   9.178  19.118  0.00  0.00    +0.000 N 
ATOM     10  C   UNL     1       7.810   6.559  18.833  0.00  0.00    +0.000 C 
ATOM     11  C   UNL     1       7.919   5.058  18.581  0.00  0.00    +0.000 C 
ATOM     12  C   UNL     1       6.723   4.356  17.946  0.00  0.00    +0.000 C 
ATOM     13  S   UNL     1       5.250   4.320  18.953  0.00  0.00    +0.000 S 
ATOM     14  O   UNL     1       4.765   2.958  18.993  0.00  0.00    +0.000 OA
ATOM     15  O   UNL     1       5.435   5.103  20.157  0.00  0.00    +0.000 OA
ATOM     16  H   UNL     1       8.455   8.634  19.898  0.00  0.00    +0.000 HD
ENDROOT
BRANCH   9  17
ATOM     17  C   UNL     1       9.102  10.558  19.465  0.00  0.00    +0.000 C 
ATOM     18  C   UNL     1       9.176  10.736  20.982  0.00  0.00    +0.000 C 
ATOM     19  C   UNL     1      10.049  11.961  21.175  0.00  0.00    +0.000 C 
ATOM     20  C   UNL     1      11.113  11.833  20.098  0.00  0.00    +0.000 C 
ATOM     21  C   UNL     1      10.466  11.051  18.954  0.00  0.00    +0.000 C 
ENDBRANCH   9  17
BRANCH   1  22
ATOM     22  C   UNL     1       3.447   6.288  18.368  0.00  0.00    +0.000 C 
BRANCH  22  24
ATOM     23  C   UNL     1       1.594   4.538  18.085  0.00  0.00    +0.000 C 
ATOM     24  C   UNL     1       2.033   5.831  18.780  0.00  0.00    +0.000 C 
ATOM     25  C   UNL     1       1.982   5.616  20.297  0.00  0.00    +0.000 C 
ENDBRANCH  22  24
ENDBRANCH   1  22
TORSDOF 3
ENDMDL
MODEL 4
REMARK VINA RESULT:      -6.7      3.039      6.222
REMARK  Name = 
REMARK  5 active torsions:
REMARK  status: ('A' for Active; 'I' for Inactive)
REMARK    1  A    between atoms: C_1  and  C_2
REMARK    2  A    between atoms: C_2  and  C_3
REMARK    3  A    between atoms: C_2  and  C_4
REMARK    4  A    between atoms: C_4  and  N_5
REMARK    5  A    between atoms: N_13  and  C_14
REMARK                            x       y       z     vdW  Elec       q    Type
REMARK                         _______ _______ _______ _____ _____    ______ ____
ROOT
ATOM      1  N   UNL     1       5.312   4.703  18.736  0.00  0.00    +0.000 NA
ATOM      2  C   UNL     1       4.560   3.958  19.752  0.00  0.00    +0.000 C 
ATOM      3  C   UNL     1       3.090   3.818  19.293  0.00  0.00    +0.000 C 
ATOM      4  C   UNL     1       2.049   4.286  20.316  0.00  0.00    +0.000 C 
ATOM      5  C   UNL     1       2.146   5.733  20.783  0.00  0.00    +0.000 C 
ATOM      6  N   UNL     1       1.680   6.794  19.892  0.00  0.00    +0.000 N 
ATOM      7  C   UNL     1       1.466   8.019  20.568  0.00  0.00    +0.000 C 
ATOM      8  O   UNL     1       1.541   8.121  21.791  0.00  0.00    +0.000 OA
ATOM      9  N   UNL     1       1.123   9.089  19.777  0.00  0.00    +0.000 N 
ATOM     10  C   UNL     1       2.001   6.768  18.462  0.00  0.00    +0.000 C 
ATOM     11  C   UNL     1       1.832   5.458  17.698  0.00  0.00    +0.000 C 
ATOM     12  C   UNL     1       2.899   4.386  17.884  0.00  0.00    +0.000 C 
ATOM     13  S   UNL     1       4.515   4.816  17.259  0.00  0.00    +0.000 S 
ATOM     14  O   UNL     1       4.981   3.728  16.428  0.00  0.00    +0.000 OA
ATOM     15  O   UNL     1       4.538   6.190  16.805  0.00  0.00    +0.000 OA
ATOM     16  H   UNL     1       1.565   9.113  18.875  0.00  0.00    +0.000 HD
ENDROOT
BRANCH   9  17
ATOM     17  C   UNL     1       0.884  10.412  20.343  0.00  0.00    +0.000 C 
ATOM     18  C   UNL     1       1.234  11.507  19.334  0.00  0.00    +0.000 C 
ATOM     19  C   UNL     1       0.424  12.708  19.785  0.00  0.00    +0.000 C 
ATOM     20  C   UNL     1      -0.896  12.113  20.246  0.00  0.00    +0.000 C 
ATOM     21  C   UNL     1      -0.579  10.695  20.723  0.00  0.00    +0.000 C 
ENDBRANCH   9  17
BRANCH   1  22
ATOM     22  C   UNL     1       6.227   5.779  19.158  0.00  0.00    +0.000 C 
BRANCH  22  24
ATOM     23  C   UNL     1       7.764   4.448  17.595  0.00  0.00    +0.000 C 
ATOM     24  C   UNL     1       7.577   5.729  18.414  0.00  0.00    +0.000 C 
ATOM     25  C   UNL     1       7.694   6.935  17.474  0.00  0.00    +0.000 C 
ENDBRANCH  22  24
ENDBRANCH   1  22
TORSDOF 3
ENDMDL
MODEL 5
REMARK VINA RESULT:      -6.2      3.465      5.272
REMARK  Name = 
REMARK  5 active torsions:
REMARK  status: ('A' for Active; 'I' for Inactive)
REMARK    1  A    between atoms: C_1  and  C_2
REMARK    2  A    between atoms: C_2  and  C_3
REMARK    3  A    between atoms: C_2  and  C_4
REMARK    4  A    between atoms: C_4  and  N_5
REMARK    5  A    between atoms: N_13  and  C_14
REMARK                            x       y       z     vdW  Elec       q    Type
REMARK                         _______ _______ _______ _____ _____    ______ ____
ROOT
ATOM      1  N   UNL     1       3.502   3.946  19.371  0.00  0.00    +0.000 NA
ATOM      2  C   UNL     1       4.923   4.053  19.721  0.00  0.00    +0.000 C 
ATOM      3  C   UNL     1       5.468   5.410  19.221  0.00  0.00    +0.000 C 
ATOM      4  C   UNL     1       6.726   5.319  18.351  0.00  0.00    +0.000 C 
ATOM      5  C   UNL     1       6.625   4.481  17.082  0.00  0.00    +0.000 C 
ATOM      6  N   UNL     1       5.921   5.034  15.927  0.00  0.00    +0.000 N 
ATOM      7  C   UNL     1       6.223   4.349  14.725  0.00  0.00    +0.000 C 
ATOM      8  O   UNL     1       7.085   3.475  14.661  0.00  0.00    +0.000 OA
ATOM      9  N   UNL     1       5.522   4.749  13.613  0.00  0.00    +0.000 N 
ATOM     10  C   UNL     1       4.649   5.743  16.091  0.00  0.00    +0.000 C 
ATOM     11  C   UNL     1       4.528   6.778  17.205  0.00  0.00    +0.000 C 
ATOM     12  C   UNL     1       4.345   6.268  18.631  0.00  0.00    +0.000 C 
ATOM     13  S   UNL     1       2.807   5.414  18.933  0.00  0.00    +0.000 S 
ATOM     14  O   UNL     1       2.202   5.981  20.118  0.00  0.00    +0.000 OA
ATOM     15  O   UNL     1       2.066   5.246  17.701  0.00  0.00    +0.000 OA
ATOM     16  H   UNL     1       4.568   5.018  13.783  0.00  0.00    +0.000 HD
ENDROOT
BRANCH   9  17
ATOM     17  C   UNL     1       5.726   4.120  12.313  0.00  0.00    +0.000 C 
ATOM     18  C   UNL     1       7.162   3.613  12.174  0.00  0.00    +0.000 C 
ATOM     19  C   UNL     1       7.076   2.525  11.119  0.00  0.00    +0.000 C 
ATOM     20  C   UNL     1       5.758   1.827  11.412  0.00  0.00    +0.000 C 
ATOM     21  C   UNL     1       4.854   2.881  12.054  0.00  0.00    +0.000 C 
ENDBRANCH   9  17
BRANCH   1  22
ATOM     22  C   UNL     1       2.992   2.693  18.786  0.00  0.00    +0.000 C 
BRANCH  22  24
ATOM     23  C   UNL     1       1.810   2.554  21.059  0.00  0.00    +0.000 C 
ATOM     24  C   UNL     1       1.820   2.100  19.595  0.00  0.00    +0.000 C 
ATOM     25  C   UNL     1       0.490   2.502  18.946  0.00  0.00    +0.000 C 
ENDBRANCH  22  24
ENDBRANCH   1  22
TORSDOF 3
ENDMDL
MODEL 6
REMARK VINA RESULT:      -6.0      9.853     12.179
REMARK  Name = 
REMARK  5 active torsions:
REMARK  status: ('A' for Active; 'I' for Inactive)
REMARK    1  A    between atoms: C_1  and  C_2
REMARK    2  A    between atoms: C_2  and  C_3
REMARK    3  A    between atoms: C_2  and  C_4
REMARK    4  A    between atoms: C_4  and  N_5
REMARK    5  A    between atoms: N_13  and  C_14
REMARK                            x       y       z     vdW  Elec       q    Type
REMARK                         _______ _______ _______ _____ _____    ______ ____
ROOT
ATOM      1  N   UNL     1       9.330  14.665  17.984  0.00  0.00    +0.000 NA
ATOM      2  C   UNL     1      10.185  15.638  18.676  0.00  0.00    +0.000 C 
ATOM      3  C   UNL     1      11.220  14.880  19.538  0.00  0.00    +0.000 C 
ATOM      4  C   UNL     1      11.269  15.306  21.009  0.00  0.00    +0.000 C 
ATOM      5  C   UNL     1       9.975  15.180  21.805  0.00  0.00    +0.000 C 
ATOM      6  N   UNL     1       9.548  13.856  22.250  0.00  0.00    +0.000 N 
ATOM      7  C   UNL     1       8.575  13.914  23.277  0.00  0.00    +0.000 C 
ATOM      8  O   UNL     1       8.240  14.969  23.812  0.00  0.00    +0.000 OA
ATOM      9  N   UNL     1       8.052  12.708  23.677  0.00  0.00    +0.000 N 
ATOM     10  C   UNL     1       9.629  12.700  21.354  0.00  0.00    +0.000 C 
ATOM     11  C   UNL     1      10.906  12.491  20.544  0.00  0.00    +0.000 C 
ATOM     12  C   UNL     1      11.118  13.368  19.315  0.00  0.00    +0.000 C 
ATOM     13  S   UNL     1       9.952  13.102  17.990  0.00  0.00    +0.000 S 
ATOM     14  O   UNL     1      10.698  12.925  16.763  0.00  0.00    +0.000 OA
ATOM     15  O   UNL     1       8.918  12.176  18.398  0.00  0.00    +0.000 OA
ATOM     16  H   UNL     1       7.933  12.029  22.945  0.00  0.00    +0.000 HD
ENDROOT
BRANCH   9  17
ATOM     17  C   UNL     1       7.034  12.624  24.718  0.00  0.00    +0.000 C 
ATOM     18  C   UNL     1       6.105  11.433  24.477  0.00  0.00    +0.000 C 
ATOM     19  C   UNL     1       5.529  11.122  25.845  0.00  0.00    +0.000 C 
ATOM     20  C   UNL     1       6.691  11.348  26.798  0.00  0.00    +0.000 C 
ATOM     21  C   UNL     1       7.581  12.401  26.137  0.00  0.00    +0.000 C 
ENDBRANCH   9  17
BRANCH   1  22
ATOM     22  C   UNL     1       7.871  14.872  17.961  0.00  0.00    +0.000 C 
BRANCH  22  24
ATOM     23  C   UNL     1       6.895  17.099  18.776  0.00  0.00    +0.000 C 
ATOM     24  C   UNL     1       7.374  15.697  19.166  0.00  0.00    +0.000 C 
ATOM     25  C   UNL     1       6.222  14.958  19.856  0.00  0.00    +0.000 C 
ENDBRANCH  22  24
ENDBRANCH   1  22
TORSDOF 3
ENDMDL
MODEL 7
REMARK VINA RESULT:      -6.0      6.915      9.258
REMARK  Name = 
REMARK  5 active torsions:
REMARK  status: ('A' for Active; 'I' for Inactive)
REMARK    1  A    between atoms: C_1  and  C_2
REMARK    2  A    between atoms: C_2  and  C_3
REMARK    3  A    between atoms: C_2  and  C_4
REMARK    4  A    between atoms: C_4  and  N_5
REMARK    5  A    between atoms: N_13  and  C_14
REMARK                            x       y       z     vdW  Elec       q    Type
REMARK                         _______ _______ _______ _____ _____    ______ ____
ROOT
ATOM      1  N   UNL     1       1.415  14.813  19.451  0.00  0.00    +0.000 NA
ATOM      2  C   UNL     1       0.038  14.648  18.971  0.00  0.00    +0.000 C 
ATOM      3  C   UNL     1      -0.751  13.781  19.979  0.00  0.00    +0.000 C 
ATOM      4  C   UNL     1      -1.463  12.569  19.369  0.00  0.00    +0.000 C 
ATOM      5  C   UNL     1      -0.591  11.560  18.630  0.00  0.00    +0.000 C 
ATOM      6  N   UNL     1       0.226  10.632  19.408  0.00  0.00    +0.000 N 
ATOM      7  C   UNL     1       0.673   9.527  18.643  0.00  0.00    +0.000 C 
ATOM      8  O   UNL     1       0.293   9.323  17.492  0.00  0.00    +0.000 OA
ATOM      9  N   UNL     1       1.529   8.662  19.281  0.00  0.00    +0.000 N 
ATOM     10  C   UNL     1       0.979  11.092  20.578  0.00  0.00    +0.000 C 
ATOM     11  C   UNL     1       0.280  11.999  21.586  0.00  0.00    +0.000 C 
ATOM     12  C   UNL     1       0.099  13.467  21.214  0.00  0.00    +0.000 C 
ATOM     13  S   UNL     1       1.615  14.399  21.069  0.00  0.00    +0.000 S 
ATOM     14  O   UNL     1       1.476  15.608  21.850  0.00  0.00    +0.000 OA
ATOM     15  O   UNL     1       2.764  13.528  21.204  0.00  0.00    +0.000 OA
ATOM     16  H   UNL     1       2.175   9.094  19.919  0.00  0.00    +0.000 HD
ENDROOT
BRANCH   9  17
ATOM     17  C   UNL     1       2.074   7.489  18.607  0.00  0.00    +0.000 C 
ATOM     18  C   UNL     1       3.298   7.862  17.770  0.00  0.00    +0.000 C 
ATOM     19  C   UNL     1       4.069   6.562  17.632  0.00  0.00    +0.000 C 
ATOM     20  C   UNL     1       3.910   5.890  18.985  0.00  0.00    +0.000 C 
ATOM     21  C   UNL     1       2.575   6.381  19.548  0.00  0.00    +0.000 C 
ENDBRANCH   9  17
BRANCH   1  22
ATOM     22  C   UNL     1       2.535  14.644  18.509  0.00  0.00    +0.000 C 
BRANCH  22  24
ATOM     23  C   UNL     1       4.927  15.530  18.232  0.00  0.00    +0.000 C 
ATOM     24  C   UNL     1       3.452  15.883  18.457  0.00  0.00    +0.000 C 
ATOM     25  C   UNL     1       2.993  16.817  17.330  0.00  0.00    +0.000 C 
ENDBRANCH  22  24
ENDBRANCH   1  22
TORSDOF 3
ENDMDL
MODEL 8
REMARK VINA RESULT:      -5.9      8.568     12.001
REMARK  Name = 
REMARK  5 active torsions:
REMARK  status: ('A' for Active; 'I' for Inactive)
REMARK    1  A    between atoms: C_1  and  C_2
REMARK    2  A    between atoms: C_2  and  C_3
REMARK    3  A    between atoms: C_2  and  C_4
REMARK    4  A    between atoms: C_4  and  N_5
REMARK    5  A    between atoms: N_13  and  C_14
REMARK                            x       y       z     vdW  Elec       q    Type
REMARK                         _______ _______ _______ _____ _____    ______ ____
ROOT
ATOM      1  N   UNL     1       1.034  11.429  20.255  0.00  0.00    +0.000 NA
ATOM      2  C   UNL     1       0.145  11.044  19.153  0.00  0.00    +0.000 C 
ATOM      3  C   UNL     1      -0.452  12.319  18.514  0.00  0.00    +0.000 C 
ATOM      4  C   UNL     1      -1.981  12.330  18.406  0.00  0.00    +0.000 C 
ATOM      5  C   UNL     1      -2.763  12.176  19.706  0.00  0.00    +0.000 C 
ATOM      6  N   UNL     1      -2.864  13.321  20.608  0.00  0.00    +0.000 N 
ATOM      7  C   UNL     1      -3.905  13.178  21.556  0.00  0.00    +0.000 C 
ATOM      8  O   UNL     1      -4.708  12.247  21.521  0.00  0.00    +0.000 OA
ATOM      9  N   UNL     1      -3.997  14.170  22.502  0.00  0.00    +0.000 N 
ATOM     10  C   UNL     1      -1.695  14.158  20.893  0.00  0.00    +0.000 C 
ATOM     11  C   UNL     1      -0.814  14.602  19.729  0.00  0.00    +0.000 C 
ATOM     12  C   UNL     1       0.152  13.580  19.140  0.00  0.00    +0.000 C 
ATOM     13  S   UNL     1       1.457  13.057  20.239  0.00  0.00    +0.000 S 
ATOM     14  O   UNL     1       2.714  13.173  19.533  0.00  0.00    +0.000 OA
ATOM     15  O   UNL     1       1.267  13.615  21.561  0.00  0.00    +0.000 OA
ATOM     16  H   UNL     1      -3.118  14.548  22.811  0.00  0.00    +0.000 HD
ENDROOT
BRANCH   9  17
ATOM     17  C   UNL     1      -5.016  14.141  23.544  0.00  0.00    +0.000 C 
ATOM     18  C   UNL     1      -6.373  14.579  22.991  0.00  0.00    +0.000 C 
ATOM     19  C   UNL     1      -7.383  13.961  23.940  0.00  0.00    +0.000 C 
ATOM     20  C   UNL     1      -6.796  12.601  24.275  0.00  0.00    +0.000 C 
ATOM     21  C   UNL     1      -5.279  12.752  24.149  0.00  0.00    +0.000 C 
ENDBRANCH   9  17
BRANCH   1  22
ATOM     22  C   UNL     1       0.950  10.707  21.538  0.00  0.00    +0.000 C 
BRANCH  22  24
ATOM     23  C   UNL     1      -0.527   8.745  22.277  0.00  0.00    +0.000 C 
ATOM     24  C   UNL     1      -0.479  10.214  21.843  0.00  0.00    +0.000 C 
ATOM     25  C   UNL     1      -1.096  11.074  22.952  0.00  0.00    +0.000 C 
ENDBRANCH  22  24
ENDBRANCH   1  22
TORSDOF 3
ENDMDL
MODEL 9
REMARK VINA RESULT:      -5.9      8.640     11.843
REMARK  Name = 
REMARK  5 active torsions:
REMARK  status: ('A' for Active; 'I' for Inactive)
REMARK    1  A    between atoms: C_1  and  C_2
REMARK    2  A    between atoms: C_2  and  C_3
REMARK    3  A    between atoms: C_2  and  C_4
REMARK    4  A    between atoms: C_4  and  N_5
REMARK    5  A    between atoms: N_13  and  C_14
REMARK                            x       y       z     vdW  Elec       q    Type
REMARK                         _______ _______ _______ _____ _____    ______ ____
ROOT
ATOM      1  N   UNL     1       0.847  10.926  19.795  0.00  0.00    +0.000 NA
ATOM      2  C   UNL     1      -0.291  10.468  18.990  0.00  0.00    +0.000 C 
ATOM      3  C   UNL     1      -0.875  11.668  18.209  0.00  0.00    +0.000 C 
ATOM      4  C   UNL     1      -2.382  11.881  18.387  0.00  0.00    +0.000 C 
ATOM      5  C   UNL     1      -2.882  12.099  19.811  0.00  0.00    +0.000 C 
ATOM      6  N   UNL     1      -2.669  13.400  20.441  0.00  0.00    +0.000 N 
ATOM      7  C   UNL     1      -3.494  13.598  21.574  0.00  0.00    +0.000 C 
ATOM      8  O   UNL     1      -4.378  12.805  21.896  0.00  0.00    +0.000 OA
ATOM      9  N   UNL     1      -3.279  14.758  22.278  0.00  0.00    +0.000 N 
ATOM     10  C   UNL     1      -1.386  14.096  20.312  0.00  0.00    +0.000 C 
ATOM     11  C   UNL     1      -0.731  14.172  18.936  0.00  0.00    +0.000 C 
ATOM     12  C   UNL     1      -0.024  12.924  18.417  0.00  0.00    +0.000 C 
ATOM     13  S   UNL     1       1.424  12.440  19.342  0.00  0.00    +0.000 S 
ATOM     14  O   UNL     1       2.507  12.232  18.407  0.00  0.00    +0.000 OA
ATOM     15  O   UNL     1       1.577  13.268  20.520  0.00  0.00    +0.000 OA
ATOM     16  H   UNL     1      -2.321  15.057  22.328  0.00  0.00    +0.000 HD
ENDROOT
BRANCH   9  17
ATOM     17  C   UNL     1      -4.051  15.082  23.473  0.00  0.00    +0.000 C 
ATOM     18  C   UNL     1      -3.360  16.175  24.288  0.00  0.00    +0.000 C 
ATOM     19  C   UNL     1      -4.477  16.801  25.102  0.00  0.00    +0.000 C 
ATOM     20  C   UNL     1      -5.665  16.815  24.154  0.00  0.00    +0.000 C 
ATOM     21  C   UNL     1      -5.458  15.639  23.198  0.00  0.00    +0.000 C 
ENDBRANCH   9  17
BRANCH   1  22
ATOM     22  C   UNL     1       0.963  10.489  21.198  0.00  0.00    +0.000 C 
BRANCH  22  24
ATOM     23  C   UNL     1      -0.417   8.881  22.643  0.00  0.00    +0.000 C 
ATOM     24  C   UNL     1      -0.408  10.183  21.835  0.00  0.00    +0.000 C 
ATOM     25  C   UNL     1      -0.817  11.337  22.758  0.00  0.00    +0.000 C 
ENDBRANCH  22  24
ENDBRANCH   1  22
TORSDOF 3
ENDMDL
