MODEL 1
REMARK VINA RESULT:      -7.8      0.000      0.000
REMARK  Name = 
REMARK  9 active torsions:
REMARK  status: ('A' for Active; 'I' for Inactive)
REMARK    1  A    between atoms: C_1  and  C_2
REMARK    2  A    between atoms: C_2  and  N_3
REMARK    3  A    between atoms: N_3  and  C_4
REMARK    4  A    between atoms: C_4  and  C_5
REMARK    5  A    between atoms: C_9  and  C_10
REMARK    6  A    between atoms: N_19  and  C_20
REMARK    7  A    between atoms: C_20  and  C_21
REMARK    8  A    between atoms: N_24  and  C_25
REMARK    9  A    between atoms: C_25  and  C_26
REMARK                            x       y       z     vdW  Elec       q    Type
REMARK                         _______ _______ _______ _____ _____    ______ ____
ROOT
ATOM      1  C   UNL     1       3.409   6.758  18.088  0.00  0.00    +0.000 A 
ATOM      2  N   UNL     1       4.682   7.075  17.909  0.00  0.00    +0.000 NA
ATOM      3  C   UNL     1       5.262   6.048  17.203  0.00  0.00    +0.000 A 
ATOM      4  C   UNL     1       6.577   5.854  16.743  0.00  0.00    +0.000 A 
ATOM      5 CL   UNL     1       7.710   7.080  17.101  0.00  0.00    +0.000 Cl
ATOM      6  C   UNL     1       6.927   4.703  16.038  0.00  0.00    +0.000 A 
ATOM      7  C   UNL     1       5.956   3.735  15.780  0.00  0.00    +0.000 A 
ATOM      8  C   UNL     1       4.638   3.889  16.222  0.00  0.00    +0.000 A 
ATOM      9  C   UNL     1       4.322   5.056  16.937  0.00  0.00    +0.000 A 
ATOM     10  N   UNL     1       3.158   5.508  17.533  0.00  0.00    +0.000 N 
ENDROOT
BRANCH   1  15
ATOM     11  N   UNL     1      -0.195  10.016  21.010  0.00  0.00    +0.000 N 
ATOM     12  C   UNL     1       0.698   9.229  20.270  0.00  0.00    +0.000 A 
ATOM     13  C   UNL     1       0.965   9.513  18.932  0.00  0.00    +0.000 A 
ATOM     14  C   UNL     1       1.846   8.699  18.207  0.00  0.00    +0.000 A 
ATOM     15  C   UNL     1       2.464   7.610  18.822  0.00  0.00    +0.000 A 
ATOM     16  C   UNL     1       2.079   7.374  20.130  0.00  0.00    +0.000 A 
ATOM     17  N   UNL     1       1.254   8.156  20.859  0.00  0.00    +0.000 NA
BRANCH  11  19
ATOM     18  C   UNL     1      -0.085   9.750  23.458  0.00  0.00    +0.000 C 
ATOM     19  C   UNL     1      -0.765   9.309  22.172  0.00  0.00    +0.000 C 
ENDBRANCH  11  19
BRANCH  11  20
ATOM     20  C   UNL     1       0.252  11.403  21.211  0.00  0.00    +0.000 C 
ATOM     21  C   UNL     1      -0.841  12.450  21.007  0.00  0.00    +0.000 C 
ENDBRANCH  11  20
ENDBRANCH   1  15
BRANCH  10  22
ATOM     22  C   UNL     1       1.950   4.697  17.676  0.00  0.00    +0.000 C 
BRANCH  22  23
ATOM     23  C   UNL     1       1.901   3.968  18.983  0.00  0.00    +0.000 A 
ATOM     24  C   UNL     1       0.915   4.002  20.000  0.00  0.00    +0.000 A 
ATOM     25  C   UNL     1       1.433   3.253  21.031  0.00  0.00    +0.000 A 
ATOM     26  N   UNL     1       2.648   2.807  20.602  0.00  0.00    +0.000 N 
ATOM     27  N   UNL     1       2.935   3.190  19.343  0.00  0.00    +0.000 NA
BRANCH  26  28
ATOM     28  C   UNL     1       3.587   1.990  21.349  0.00  0.00    +0.000 C 
ATOM     29  C   UNL     1       4.881   1.729  20.596  0.00  0.00    +0.000 C 
ENDBRANCH  26  28
ENDBRANCH  22  23
ENDBRANCH  10  22
TORSDOF 6
ENDMDL
MODEL 2
REMARK VINA RESULT:      -7.6      0.837      1.155
REMARK  Name = 
REMARK  9 active torsions:
REMARK  status: ('A' for Active; 'I' for Inactive)
REMARK    1  A    between atoms: C_1  and  C_2
REMARK    2  A    between atoms: C_2  and  N_3
REMARK    3  A    between atoms: N_3  and  C_4
REMARK    4  A    between atoms: C_4  and  C_5
REMARK    5  A    between atoms: C_9  and  C_10
REMARK    6  A    between atoms: N_19  and  C_20
REMARK    7  A    between atoms: C_20  and  C_21
REMARK    8  A    between atoms: N_24  and  C_25
REMARK    9  A    between atoms: C_25  and  C_26
REMARK                            x       y       z     vdW  Elec       q    Type
REMARK                         _______ _______ _______ _____ _____    ______ ____
ROOT
ATOM      1  C   UNL     1       3.540   6.884  17.913  0.00  0.00    +0.000 A 
ATOM      2  N   UNL     1       4.817   7.219  17.811  0.00  0.00    +0.000 NA
ATOM      3  C   UNL     1       5.447   6.216  17.112  0.00  0.00    +0.000 A 
ATOM      4  C   UNL     1       6.786   6.048  16.720  0.00  0.00    +0.000 A 
ATOM      5 CL   UNL     1       7.884   7.276  17.169  0.00  0.00    +0.000 Cl
ATOM      6  C   UNL     1       7.188   4.919  16.005  0.00  0.00    +0.000 A 
ATOM      7  C   UNL     1       6.244   3.948  15.671  0.00  0.00    +0.000 A 
ATOM      8  C   UNL     1       4.902   4.077  16.044  0.00  0.00    +0.000 A 
ATOM      9  C   UNL     1       4.534   5.222  16.770  0.00  0.00    +0.000 A 
ATOM     10  N   UNL     1       3.334   5.646  17.313  0.00  0.00    +0.000 N 
ENDROOT
BRANCH   1  15
ATOM     11  N   UNL     1      -0.246  10.038  20.716  0.00  0.00    +0.000 N 
ATOM     12  C   UNL     1       0.690   9.276  20.004  0.00  0.00    +0.000 A 
ATOM     13  C   UNL     1       0.911   9.497  18.645  0.00  0.00    +0.000 A 
ATOM     14  C   UNL     1       1.839   8.708  17.951  0.00  0.00    +0.000 A 
ATOM     15  C   UNL     1       2.547   7.707  18.615  0.00  0.00    +0.000 A 
ATOM     16  C   UNL     1       2.203   7.523  19.944  0.00  0.00    +0.000 A 
ATOM     17  N   UNL     1       1.335   8.284  20.643  0.00  0.00    +0.000 NA
BRANCH  11  19
ATOM     18  C   UNL     1      -0.623  10.276  23.140  0.00  0.00    +0.000 C 
ATOM     19  C   UNL     1      -0.742   9.363  21.930  0.00  0.00    +0.000 C 
ENDBRANCH  11  19
BRANCH  11  20
ATOM     20  C   UNL     1       0.099  11.465  20.823  0.00  0.00    +0.000 C 
ATOM     21  C   UNL     1      -0.907  12.404  20.162  0.00  0.00    +0.000 C 
ENDBRANCH  11  20
ENDBRANCH   1  15
BRANCH  10  22
ATOM     22  C   UNL     1       2.130   4.819  17.371  0.00  0.00    +0.000 C 
BRANCH  22  23
ATOM     23  C   UNL     1       2.286   3.642  18.282  0.00  0.00    +0.000 A 
ATOM     24  C   UNL     1       2.203   2.258  17.993  0.00  0.00    +0.000 A 
ATOM     25  C   UNL     1       2.291   1.627  19.212  0.00  0.00    +0.000 A 
ATOM     26  N   UNL     1       2.434   2.616  20.140  0.00  0.00    +0.000 N 
ATOM     27  N   UNL     1       2.480   3.847  19.596  0.00  0.00    +0.000 NA
BRANCH  26  28
ATOM     28  C   UNL     1       2.548   2.448  21.577  0.00  0.00    +0.000 C 
ATOM     29  C   UNL     1       1.213   2.543  22.296  0.00  0.00    +0.000 C 
ENDBRANCH  26  28
ENDBRANCH  22  23
ENDBRANCH  10  22
TORSDOF 6
ENDMDL
MODEL 3
REMARK VINA RESULT:      -7.3      3.476      8.265
REMARK  Name = 
REMARK  9 active torsions:
REMARK  status: ('A' for Active; 'I' for Inactive)
REMARK    1  A    between atoms: C_1  and  C_2
REMARK    2  A    between atoms: C_2  and  N_3
REMARK    3  A    between atoms: N_3  and  C_4
REMARK    4  A    between atoms: C_4  and  C_5
REMARK    5  A    between atoms: C_9  and  C_10
REMARK    6  A    between atoms: N_19  and  C_20
REMARK    7  A    between atoms: C_20  and  C_21
REMARK    8  A    between atoms: N_24  and  C_25
REMARK    9  A    between atoms: C_25  and  C_26
REMARK                            x       y       z     vdW  Elec       q    Type
REMARK                         _______ _______ _______ _____ _____    ______ ____
ROOT
ATOM      1  C   UNL     1       1.347  10.894  19.013  0.00  0.00    +0.000 A 
ATOM      2  N   UNL     1       2.210  11.831  18.654  0.00  0.00    +0.000 NA
ATOM      3  C   UNL     1       1.565  13.041  18.757  0.00  0.00    +0.000 A 
ATOM      4  C   UNL     1       1.995  14.356  18.503  0.00  0.00    +0.000 A 
ATOM      5 CL   UNL     1       3.600  14.552  17.955  0.00  0.00    +0.000 Cl
ATOM      6  C   UNL     1       1.135  15.439  18.683  0.00  0.00    +0.000 A 
ATOM      7  C   UNL     1      -0.167  15.213  19.129  0.00  0.00    +0.000 A 
ATOM      8  C   UNL     1      -0.634  13.921  19.392  0.00  0.00    +0.000 A 
ATOM      9  C   UNL     1       0.256  12.852  19.191  0.00  0.00    +0.000 A 
ATOM     10  N   UNL     1       0.123  11.482  19.318  0.00  0.00    +0.000 N 
ENDROOT
BRANCH   1  15
ATOM     11  N   UNL     1       2.520   5.349  19.091  0.00  0.00    +0.000 N 
ATOM     12  C   UNL     1       2.232   6.719  19.046  0.00  0.00    +0.000 A 
ATOM     13  C   UNL     1       2.499   7.472  17.903  0.00  0.00    +0.000 A 
ATOM     14  C   UNL     1       2.220   8.845  17.889  0.00  0.00    +0.000 A 
ATOM     15  C   UNL     1       1.669   9.462  19.013  0.00  0.00    +0.000 A 
ATOM     16  C   UNL     1       1.507   8.641  20.116  0.00  0.00    +0.000 A 
ATOM     17  N   UNL     1       1.743   7.313  20.149  0.00  0.00    +0.000 NA
BRANCH  11  19
ATOM     18  C   UNL     1       1.595   3.841  20.807  0.00  0.00    +0.000 C 
ATOM     19  C   UNL     1       2.692   4.836  20.463  0.00  0.00    +0.000 C 
ENDBRANCH  11  19
BRANCH  11  20
ATOM     20  C   UNL     1       1.725   4.537  18.156  0.00  0.00    +0.000 C 
ATOM     21  C   UNL     1       2.555   3.638  17.243  0.00  0.00    +0.000 C 
ENDBRANCH  11  20
ENDBRANCH   1  15
BRANCH  10  22
ATOM     22  C   UNL     1      -1.150  10.807  19.565  0.00  0.00    +0.000 C 
BRANCH  22  23
ATOM     23  C   UNL     1      -2.048  10.823  18.368  0.00  0.00    +0.000 A 
ATOM     24  C   UNL     1      -3.287  11.484  18.176  0.00  0.00    +0.000 A 
ATOM     25  C   UNL     1      -3.741  11.053  16.952  0.00  0.00    +0.000 A 
ATOM     26  N   UNL     1      -2.791  10.199  16.474  0.00  0.00    +0.000 N 
ATOM     27  N   UNL     1      -1.730  10.079  17.295  0.00  0.00    +0.000 NA
BRANCH  26  28
ATOM     28  C   UNL     1      -2.829   9.472  15.219  0.00  0.00    +0.000 C 
ATOM     29  C   UNL     1      -3.590  10.205  14.128  0.00  0.00    +0.000 C 
ENDBRANCH  26  28
ENDBRANCH  22  23
ENDBRANCH  10  22
TORSDOF 6
ENDMDL
MODEL 4
REMARK VINA RESULT:      -7.3      3.424      8.489
REMARK  Name = 
REMARK  9 active torsions:
REMARK  status: ('A' for Active; 'I' for Inactive)
REMARK    1  A    between atoms: C_1  and  C_2
REMARK    2  A    between atoms: C_2  and  N_3
REMARK    3  A    between atoms: N_3  and  C_4
REMARK    4  A    between atoms: C_4  and  C_5
REMARK    5  A    between atoms: C_9  and  C_10
REMARK    6  A    between atoms: N_19  and  C_20
REMARK    7  A    between atoms: C_20  and  C_21
REMARK    8  A    between atoms: N_24  and  C_25
REMARK    9  A    between atoms: C_25  and  C_26
REMARK                            x       y       z     vdW  Elec       q    Type
REMARK                         _______ _______ _______ _____ _____    ______ ____
ROOT
ATOM      1  C   UNL     1       1.265  10.936  19.035  0.00  0.00    +0.000 A 
ATOM      2  N   UNL     1       2.102  11.894  18.670  0.00  0.00    +0.000 NA
ATOM      3  C   UNL     1       1.436  13.090  18.803  0.00  0.00    +0.000 A 
ATOM      4  C   UNL     1       1.834  14.416  18.557  0.00  0.00    +0.000 A 
ATOM      5 CL   UNL     1       3.423  14.651  17.980  0.00  0.00    +0.000 Cl
ATOM      6  C   UNL     1       0.957  15.479  18.770  0.00  0.00    +0.000 A 
ATOM      7  C   UNL     1      -0.331  15.222  19.239  0.00  0.00    +0.000 A 
ATOM      8  C   UNL     1      -0.766  13.917  19.494  0.00  0.00    +0.000 A 
ATOM      9  C   UNL     1       0.140  12.869  19.261  0.00  0.00    +0.000 A 
ATOM     10  N   UNL     1       0.037  11.495  19.373  0.00  0.00    +0.000 N 
ENDROOT
BRANCH   1  15
ATOM     11  N   UNL     1       2.548   5.414  19.015  0.00  0.00    +0.000 N 
ATOM     12  C   UNL     1       2.232   6.779  18.994  0.00  0.00    +0.000 A 
ATOM     13  C   UNL     1       2.465   7.552  17.858  0.00  0.00    +0.000 A 
ATOM     14  C   UNL     1       2.158   8.920  17.868  0.00  0.00    +0.000 A 
ATOM     15  C   UNL     1       1.615   9.510  19.009  0.00  0.00    +0.000 A 
ATOM     16  C   UNL     1       1.488   8.672  20.103  0.00  0.00    +0.000 A 
ATOM     17  N   UNL     1       1.750   7.347  20.113  0.00  0.00    +0.000 NA
BRANCH  11  19
ATOM     18  C   UNL     1       1.582   4.013  20.797  0.00  0.00    +0.000 C 
ATOM     19  C   UNL     1       2.753   4.886  20.376  0.00  0.00    +0.000 C 
ENDBRANCH  11  19
BRANCH  11  20
ATOM     20  C   UNL     1       1.753   4.600  18.082  0.00  0.00    +0.000 C 
ATOM     21  C   UNL     1       2.577   3.637  17.230  0.00  0.00    +0.000 C 
ENDBRANCH  11  20
ENDBRANCH   1  15
BRANCH  10  22
ATOM     22  C   UNL     1      -1.218  10.792  19.637  0.00  0.00    +0.000 C 
BRANCH  22  23
ATOM     23  C   UNL     1      -2.024  10.572  18.395  0.00  0.00    +0.000 A 
ATOM     24  C   UNL     1      -1.676   9.894  17.200  0.00  0.00    +0.000 A 
ATOM     25  C   UNL     1      -2.731  10.108  16.343  0.00  0.00    +0.000 A 
ATOM     26  N   UNL     1      -3.635  10.859  17.035  0.00  0.00    +0.000 N 
ATOM     27  N   UNL     1      -3.249  11.115  18.300  0.00  0.00    +0.000 NA
BRANCH  26  28
ATOM     28  C   UNL     1      -4.907  11.357  16.544  0.00  0.00    +0.000 C 
ATOM     29  C   UNL     1      -5.550  12.371  17.476  0.00  0.00    +0.000 C 
ENDBRANCH  26  28
ENDBRANCH  22  23
ENDBRANCH  10  22
TORSDOF 6
ENDMDL
MODEL 5
REMARK VINA RESULT:      -7.3      2.665      4.871
REMARK  Name = 
REMARK  9 active torsions:
REMARK  status: ('A' for Active; 'I' for Inactive)
REMARK    1  A    between atoms: C_1  and  C_2
REMARK    2  A    between atoms: C_2  and  N_3
REMARK    3  A    between atoms: N_3  and  C_4
REMARK    4  A    between atoms: C_4  and  C_5
REMARK    5  A    between atoms: C_9  and  C_10
REMARK    6  A    between atoms: N_19  and  C_20
REMARK    7  A    between atoms: C_20  and  C_21
REMARK    8  A    between atoms: N_24  and  C_25
REMARK    9  A    between atoms: C_25  and  C_26
REMARK                            x       y       z     vdW  Elec       q    Type
REMARK                         _______ _______ _______ _____ _____    ______ ____
ROOT
ATOM      1  C   UNL     1       2.605   6.252  19.114  0.00  0.00    +0.000 A 
ATOM      2  N   UNL     1       2.034   5.406  19.957  0.00  0.00    +0.000 NA
ATOM      3  C   UNL     1       2.641   4.185  19.784  0.00  0.00    +0.000 A 
ATOM      4  C   UNL     1       2.433   2.940  20.404  0.00  0.00    +0.000 A 
ATOM      5 CL   UNL     1       1.214   2.864  21.596  0.00  0.00    +0.000 Cl
ATOM      6  C   UNL     1       3.190   1.825  20.045  0.00  0.00    +0.000 A 
ATOM      7  C   UNL     1       4.170   1.950  19.060  0.00  0.00    +0.000 A 
ATOM      8  C   UNL     1       4.406   3.170  18.418  0.00  0.00    +0.000 A 
ATOM      9  C   UNL     1       3.620   4.270  18.797  0.00  0.00    +0.000 A 
ATOM     10  N   UNL     1       3.564   5.581  18.361  0.00  0.00    +0.000 N 
ENDROOT
BRANCH   1  15
ATOM     11  N   UNL     1       1.075  11.699  18.757  0.00  0.00    +0.000 N 
ATOM     12  C   UNL     1       1.468  10.355  18.824  0.00  0.00    +0.000 A 
ATOM     13  C   UNL     1       2.046   9.721  17.726  0.00  0.00    +0.000 A 
ATOM     14  C   UNL     1       2.413   8.370  17.811  0.00  0.00    +0.000 A 
ATOM     15  C   UNL     1       2.208   7.660  18.994  0.00  0.00    +0.000 A 
ATOM     16  C   UNL     1       1.566   8.362  20.000  0.00  0.00    +0.000 A 
ATOM     17  N   UNL     1       1.226   9.668  19.954  0.00  0.00    +0.000 NA
BRANCH  11  19
ATOM     18  C   UNL     1      -1.329  12.129  19.087  0.00  0.00    +0.000 C 
ATOM     19  C   UNL     1       0.039  12.051  19.745  0.00  0.00    +0.000 C 
ENDBRANCH  11  19
BRANCH  11  20
ATOM     20  C   UNL     1       2.191  12.642  18.576  0.00  0.00    +0.000 C 
ATOM     21  C   UNL     1       2.412  13.585  19.756  0.00  0.00    +0.000 C 
ENDBRANCH  11  20
ENDBRANCH   1  15
BRANCH  10  22
ATOM     22  C   UNL     1       4.284   6.080  17.190  0.00  0.00    +0.000 C 
BRANCH  22  23
ATOM     23  C   UNL     1       5.686   6.492  17.513  0.00  0.00    +0.000 A 
ATOM     24  C   UNL     1       6.687   5.798  18.237  0.00  0.00    +0.000 A 
ATOM     25  C   UNL     1       7.733   6.685  18.347  0.00  0.00    +0.000 A 
ATOM     26  N   UNL     1       7.339   7.818  17.698  0.00  0.00    +0.000 N 
ATOM     27  N   UNL     1       6.118   7.709  17.143  0.00  0.00    +0.000 NA
BRANCH  26  28
ATOM     28  C   UNL     1       8.099   9.047  17.559  0.00  0.00    +0.000 C 
ATOM     29  C   UNL     1       8.852   9.429  18.822  0.00  0.00    +0.000 C 
ENDBRANCH  26  28
ENDBRANCH  22  23
ENDBRANCH  10  22
TORSDOF 6
ENDMDL
MODEL 6
REMARK VINA RESULT:      -7.1      2.358      4.618
REMARK  Name = 
REMARK  9 active torsions:
REMARK  status: ('A' for Active; 'I' for Inactive)
REMARK    1  A    between atoms: C_1  and  C_2
REMARK    2  A    between atoms: C_2  and  N_3
REMARK    3  A    between atoms: N_3  and  C_4
REMARK    4  A    between atoms: C_4  and  C_5
REMARK    5  A    between atoms: C_9  and  C_10
REMARK    6  A    between atoms: N_19  and  C_20
REMARK    7  A    between atoms: C_20  and  C_21
REMARK    8  A    between atoms: N_24  and  C_25
REMARK    9  A    between atoms: C_25  and  C_26
REMARK                            x       y       z     vdW  Elec       q    Type
REMARK                         _______ _______ _______ _____ _____    ______ ____
ROOT
ATOM      1  C   UNL     1       2.204   6.487  19.752  0.00  0.00    +0.000 A 
ATOM      2  N   UNL     1       1.802   5.467  20.494  0.00  0.00    +0.000 NA
ATOM      3  C   UNL     1       2.402   4.336  19.991  0.00  0.00    +0.000 A 
ATOM      4  C   UNL     1       2.332   2.988  20.382  0.00  0.00    +0.000 A 
ATOM      5 CL   UNL     1       1.331   2.619  21.714  0.00  0.00    +0.000 Cl
ATOM      6  C   UNL     1       3.047   2.005  19.697  0.00  0.00    +0.000 A 
ATOM      7  C   UNL     1       3.846   2.368  18.613  0.00  0.00    +0.000 A 
ATOM      8  C   UNL     1       3.940   3.699  18.191  0.00  0.00    +0.000 A 
ATOM      9  C   UNL     1       3.201   4.662  18.898  0.00  0.00    +0.000 A 
ATOM     10  N   UNL     1       3.039   6.026  18.740  0.00  0.00    +0.000 N 
ENDROOT
BRANCH   1  15
ATOM     11  N   UNL     1       0.442  11.822  20.511  0.00  0.00    +0.000 N 
ATOM     12  C   UNL     1       0.869  10.497  20.347  0.00  0.00    +0.000 A 
ATOM     13  C   UNL     1       1.020   9.651  21.444  0.00  0.00    +0.000 A 
ATOM     14  C   UNL     1       1.467   8.336  21.257  0.00  0.00    +0.000 A 
ATOM     15  C   UNL     1       1.756   7.868  19.974  0.00  0.00    +0.000 A 
ATOM     16  C   UNL     1       1.641   8.807  18.964  0.00  0.00    +0.000 A 
ATOM     17  N   UNL     1       1.188  10.070  19.113  0.00  0.00    +0.000 NA
BRANCH  11  19
ATOM     18  C   UNL     1      -0.382  13.303  18.721  0.00  0.00    +0.000 C 
ATOM     19  C   UNL     1       0.841  12.702  19.397  0.00  0.00    +0.000 C 
ENDBRANCH  11  19
BRANCH  11  20
ATOM     20  C   UNL     1      -0.932  11.951  21.021  0.00  0.00    +0.000 C 
ATOM     21  C   UNL     1      -1.027  12.565  22.416  0.00  0.00    +0.000 C 
ENDBRANCH  11  20
ENDBRANCH   1  15
BRANCH  10  22
ATOM     22  C   UNL     1       3.542   6.777  17.591  0.00  0.00    +0.000 C 
BRANCH  22  23
ATOM     23  C   UNL     1       4.920   6.354  17.188  0.00  0.00    +0.000 A 
ATOM     24  C   UNL     1       6.163   6.609  17.818  0.00  0.00    +0.000 A 
ATOM     25  C   UNL     1       7.113   6.107  16.959  0.00  0.00    +0.000 A 
ATOM     26  N   UNL     1       6.429   5.580  15.903  0.00  0.00    +0.000 N 
ATOM     27  N   UNL     1       5.093   5.677  16.041  0.00  0.00    +0.000 NA
BRANCH  26  28
ATOM     28  C   UNL     1       6.999   4.950  14.727  0.00  0.00    +0.000 C 
ATOM     29  C   UNL     1       6.038   3.997  14.036  0.00  0.00    +0.000 C 
ENDBRANCH  26  28
ENDBRANCH  22  23
ENDBRANCH  10  22
TORSDOF 6
ENDMDL
MODEL 7
REMARK VINA RESULT:      -7.1      3.578      8.449
REMARK  Name = 
REMARK  9 active torsions:
REMARK  status: ('A' for Active; 'I' for Inactive)
REMARK    1  A    between atoms: C_1  and  C_2
REMARK    2  A    between atoms: C_2  and  N_3
REMARK    3  A    between atoms: N_3  and  C_4
REMARK    4  A    between atoms: C_4  and  C_5
REMARK    5  A    between atoms: C_9  and  C_10
REMARK    6  A    between atoms: N_19  and  C_20
REMARK    7  A    between atoms: C_20  and  C_21
REMARK    8  A    between atoms: N_24  and  C_25
REMARK    9  A    between atoms: C_25  and  C_26
REMARK                            x       y       z     vdW  Elec       q    Type
REMARK                         _______ _______ _______ _____ _____    ______ ____
ROOT
ATOM      1  C   UNL     1       1.247  10.921  19.041  0.00  0.00    +0.000 A 
ATOM      2  N   UNL     1       2.127  11.860  18.732  0.00  0.00    +0.000 NA
ATOM      3  C   UNL     1       1.473  13.068  18.795  0.00  0.00    +0.000 A 
ATOM      4  C   UNL     1       1.913  14.383  18.563  0.00  0.00    +0.000 A 
ATOM      5 CL   UNL     1       3.547  14.584  18.111  0.00  0.00    +0.000 Cl
ATOM      6  C   UNL     1       1.040  15.464  18.690  0.00  0.00    +0.000 A 
ATOM      7  C   UNL     1      -0.286  15.234  19.059  0.00  0.00    +0.000 A 
ATOM      8  C   UNL     1      -0.763  13.941  19.296  0.00  0.00    +0.000 A 
ATOM      9  C   UNL     1       0.141  12.875  19.150  0.00  0.00    +0.000 A 
ATOM     10  N   UNL     1       0.006  11.504  19.272  0.00  0.00    +0.000 N 
ENDROOT
BRANCH   1  15
ATOM     11  N   UNL     1       2.567   5.408  19.042  0.00  0.00    +0.000 N 
ATOM     12  C   UNL     1       2.242   6.771  19.067  0.00  0.00    +0.000 A 
ATOM     13  C   UNL     1       1.824   7.386  20.245  0.00  0.00    +0.000 A 
ATOM     14  C   UNL     1       1.486   8.747  20.241  0.00  0.00    +0.000 A 
ATOM     15  C   UNL     1       1.574   9.489  19.063  0.00  0.00    +0.000 A 
ATOM     16  C   UNL     1       1.932   8.769  17.937  0.00  0.00    +0.000 A 
ATOM     17  N   UNL     1       2.288   7.466  17.918  0.00  0.00    +0.000 NA
BRANCH  11  19
ATOM     18  C   UNL     1       1.904   3.399  17.776  0.00  0.00    +0.000 C 
ATOM     19  C   UNL     1       2.462   4.811  17.697  0.00  0.00    +0.000 C 
ENDBRANCH  11  19
BRANCH  11  20
ATOM     20  C   UNL     1       3.744   5.055  19.852  0.00  0.00    +0.000 C 
ATOM     21  C   UNL     1       5.081   5.343  19.173  0.00  0.00    +0.000 C 
ENDBRANCH  11  20
ENDBRANCH   1  15
BRANCH  10  22
ATOM     22  C   UNL     1      -1.278  10.825  19.445  0.00  0.00    +0.000 C 
BRANCH  22  23
ATOM     23  C   UNL     1      -2.139  10.909  18.223  0.00  0.00    +0.000 A 
ATOM     24  C   UNL     1      -3.424  11.482  18.061  0.00  0.00    +0.000 A 
ATOM     25  C   UNL     1      -3.803  11.163  16.778  0.00  0.00    +0.000 A 
ATOM     26  N   UNL     1      -2.767  10.457  16.241  0.00  0.00    +0.000 N 
ATOM     27  N   UNL     1      -1.725  10.328  17.084  0.00  0.00    +0.000 NA
BRANCH  26  28
ATOM     28  C   UNL     1      -2.705   9.884  14.910  0.00  0.00    +0.000 C 
ATOM     29  C   UNL     1      -3.982  10.088  14.112  0.00  0.00    +0.000 C 
ENDBRANCH  26  28
ENDBRANCH  22  23
ENDBRANCH  10  22
TORSDOF 6
ENDMDL
MODEL 8
REMARK VINA RESULT:      -7.1      3.489      8.654
REMARK  Name = 
REMARK  9 active torsions:
REMARK  status: ('A' for Active; 'I' for Inactive)
REMARK    1  A    between atoms: C_1  and  C_2
REMARK    2  A    between atoms: C_2  and  N_3
REMARK    3  A    between atoms: N_3  and  C_4
REMARK    4  A    between atoms: C_4  and  C_5
REMARK    5  A    between atoms: C_9  and  C_10
REMARK    6  A    between atoms: N_19  and  C_20
REMARK    7  A    between atoms: C_20  and  C_21
REMARK    8  A    between atoms: N_24  and  C_25
REMARK    9  A    between atoms: C_25  and  C_26
REMARK                            x       y       z     vdW  Elec       q    Type
REMARK                         _______ _______ _______ _____ _____    ______ ____
ROOT
ATOM      1  C   UNL     1       1.256  11.054  19.107  0.00  0.00    +0.000 A 
ATOM      2  N   UNL     1       2.107  11.993  18.723  0.00  0.00    +0.000 NA
ATOM      3  C   UNL     1       1.456  13.200  18.822  0.00  0.00    +0.000 A 
ATOM      4  C   UNL     1       1.873  14.513  18.544  0.00  0.00    +0.000 A 
ATOM      5 CL   UNL     1       3.468  14.713  17.970  0.00  0.00    +0.000 Cl
ATOM      6  C   UNL     1       1.009  15.593  18.725  0.00  0.00    +0.000 A 
ATOM      7  C   UNL     1      -0.285  15.365  19.193  0.00  0.00    +0.000 A 
ATOM      8  C   UNL     1      -0.739  14.073  19.479  0.00  0.00    +0.000 A 
ATOM      9  C   UNL     1       0.155  13.008  19.277  0.00  0.00    +0.000 A 
ATOM     10  N   UNL     1       0.033  11.638  19.424  0.00  0.00    +0.000 N 
ENDROOT
BRANCH   1  15
ATOM     11  N   UNL     1       2.596   5.547  19.072  0.00  0.00    +0.000 N 
ATOM     12  C   UNL     1       2.266   6.908  19.106  0.00  0.00    +0.000 A 
ATOM     13  C   UNL     1       1.833   7.512  20.286  0.00  0.00    +0.000 A 
ATOM     14  C   UNL     1       1.490   8.871  20.290  0.00  0.00    +0.000 A 
ATOM     15  C   UNL     1       1.587   9.624  19.120  0.00  0.00    +0.000 A 
ATOM     16  C   UNL     1       1.960   8.915  17.991  0.00  0.00    +0.000 A 
ATOM     17  N   UNL     1       2.320   7.614  17.964  0.00  0.00    +0.000 NA
BRANCH  11  19
ATOM     18  C   UNL     1       1.623   3.725  17.728  0.00  0.00    +0.000 C 
ATOM     19  C   UNL     1       2.507   4.961  17.722  0.00  0.00    +0.000 C 
ENDBRANCH  11  19
BRANCH  11  20
ATOM     20  C   UNL     1       3.766   5.192  19.891  0.00  0.00    +0.000 C 
ATOM     21  C   UNL     1       5.096   5.253  19.144  0.00  0.00    +0.000 C 
ENDBRANCH  11  20
ENDBRANCH   1  15
BRANCH  10  22
ATOM     22  C   UNL     1      -1.232  10.958  19.698  0.00  0.00    +0.000 C 
BRANCH  22  23
ATOM     23  C   UNL     1      -2.058  10.766  18.465  0.00  0.00    +0.000 A 
ATOM     24  C   UNL     1      -1.761  10.048  17.280  0.00  0.00    +0.000 A 
ATOM     25  C   UNL     1      -2.806  10.310  16.426  0.00  0.00    +0.000 A 
ATOM     26  N   UNL     1      -3.659  11.126  17.110  0.00  0.00    +0.000 N 
ATOM     27  N   UNL     1      -3.250  11.380  18.368  0.00  0.00    +0.000 NA
BRANCH  26  28
ATOM     28  C   UNL     1      -4.902  11.691  16.618  0.00  0.00    +0.000 C 
ATOM     29  C   UNL     1      -5.721  12.366  17.705  0.00  0.00    +0.000 C 
ENDBRANCH  26  28
ENDBRANCH  22  23
ENDBRANCH  10  22
TORSDOF 6
ENDMDL
MODEL 9
REMARK VINA RESULT:      -7.0      2.367      4.482
REMARK  Name = 
REMARK  9 active torsions:
REMARK  status: ('A' for Active; 'I' for Inactive)
REMARK    1  A    between atoms: C_1  and  C_2
REMARK    2  A    between atoms: C_2  and  N_3
REMARK    3  A    between atoms: N_3  and  C_4
REMARK    4  A    between atoms: C_4  and  C_5
REMARK    5  A    between atoms: C_9  and  C_10
REMARK    6  A    between atoms: N_19  and  C_20
REMARK    7  A    between atoms: C_20  and  C_21
REMARK    8  A    between atoms: N_24  and  C_25
REMARK    9  A    between atoms: C_25  and  C_26
REMARK                            x       y       z     vdW  Elec       q    Type
REMARK                         _______ _______ _______ _____ _____    ______ ____
ROOT
ATOM      1  C   UNL     1       2.282   6.573  19.475  0.00  0.00    +0.000 A 
ATOM      2  N   UNL     1       1.858   5.594  20.259  0.00  0.00    +0.000 NA
ATOM      3  C   UNL     1       2.461   4.436  19.828  0.00  0.00    +0.000 A 
ATOM      4  C   UNL     1       2.375   3.109  20.285  0.00  0.00    +0.000 A 
ATOM      5 CL   UNL     1       1.343   2.815  21.613  0.00  0.00    +0.000 Cl
ATOM      6  C   UNL     1       3.096   2.089  19.665  0.00  0.00    +0.000 A 
ATOM      7  C   UNL     1       3.920   2.392  18.581  0.00  0.00    +0.000 A 
ATOM      8  C   UNL     1       4.032   3.699  18.095  0.00  0.00    +0.000 A 
ATOM      9  C   UNL     1       3.284   4.701  18.736  0.00  0.00    +0.000 A 
ATOM     10  N   UNL     1       3.135   6.056  18.506  0.00  0.00    +0.000 N 
ENDROOT
BRANCH   1  15
ATOM     11  N   UNL     1       0.599  11.947  20.126  0.00  0.00    +0.000 N 
ATOM     12  C   UNL     1       1.025  10.625  19.942  0.00  0.00    +0.000 A 
ATOM     13  C   UNL     1       1.370  10.151  18.677  0.00  0.00    +0.000 A 
ATOM     14  C   UNL     1       1.774   8.819  18.516  0.00  0.00    +0.000 A 
ATOM     15  C   UNL     1       1.839   7.966  19.618  0.00  0.00    +0.000 A 
ATOM     16  C   UNL     1       1.410   8.514  20.814  0.00  0.00    +0.000 A 
ATOM     17  N   UNL     1       1.041   9.799  21.002  0.00  0.00    +0.000 NA
BRANCH  11  19
ATOM     18  C   UNL     1      -1.682  12.290  20.993  0.00  0.00    +0.000 C 
ATOM     19  C   UNL     1      -0.212  12.132  21.344  0.00  0.00    +0.000 C 
ENDBRANCH  11  19
BRANCH  11  20
ATOM     20  C   UNL     1       1.631  12.956  19.837  0.00  0.00    +0.000 C 
ATOM     21  C   UNL     1       1.114  14.187  19.097  0.00  0.00    +0.000 C 
ENDBRANCH  11  20
ENDBRANCH   1  15
BRANCH  10  22
ATOM     22  C   UNL     1       3.666   6.745  17.330  0.00  0.00    +0.000 C 
BRANCH  22  23
ATOM     23  C   UNL     1       5.030   6.261  16.950  0.00  0.00    +0.000 A 
ATOM     24  C   UNL     1       6.264   6.414  17.629  0.00  0.00    +0.000 A 
ATOM     25  C   UNL     1       7.212   5.897  16.777  0.00  0.00    +0.000 A 
ATOM     26  N   UNL     1       6.535   5.460  15.677  0.00  0.00    +0.000 N 
ATOM     27  N   UNL     1       5.203   5.628  15.778  0.00  0.00    +0.000 NA
BRANCH  26  28
ATOM     28  C   UNL     1       7.107   4.852  14.490  0.00  0.00    +0.000 C 
ATOM     29  C   UNL     1       6.119   3.983  13.730  0.00  0.00    +0.000 C 
ENDBRANCH  26  28
ENDBRANCH  22  23
ENDBRANCH  10  22
TORSDOF 6
ENDMDL
