MODEL 1
REMARK VINA RESULT:      -6.8      0.000      0.000
REMARK  Name = 
REMARK  8 active torsions:
REMARK  status: ('A' for Active; 'I' for Inactive)
REMARK    1  A    between atoms: C_1  and  C_2
REMARK    2  A    between atoms: C_2  and  C_3
REMARK    3  A    between atoms: C_3  and  S_4
REMARK    4  A    between atoms: S_4  and  C_5
REMARK    5  A    between atoms: N_14  and  C_15
REMARK    6  A    between atoms: C_15  and  C_16
REMARK    7  A    between atoms: C_16  and  C_17
REMARK    8  A    between atoms: C_16  and  C_18
REMARK                            x       y       z     vdW  Elec       q    Type
REMARK                         _______ _______ _______ _____ _____    ______ ____
ROOT
ATOM      1  C   UNL     1       5.934   5.072  16.638  0.00  0.00    +0.000 A 
ATOM      2  N   UNL     1       6.934   5.512  17.440  0.00  0.00    +0.000 NA
ATOM      3  C   UNL     1       6.910   5.192  18.743  0.00  0.00    +0.000 A 
ATOM      4  N   UNL     1       7.940   5.685  19.521  0.00  0.00    +0.000 N 
ATOM      5  N   UNL     1       5.960   4.496  19.381  0.00  0.00    +0.000 NA
ATOM      6  C   UNL     1       4.982   4.094  18.557  0.00  0.00    +0.000 A 
ATOM      7  C   UNL     1       4.894   4.319  17.190  0.00  0.00    +0.000 A 
ATOM      8  N   UNL     1       3.756   3.726  16.682  0.00  0.00    +0.000 NA
ATOM      9  C   UNL     1       3.164   3.172  17.720  0.00  0.00    +0.000 A 
ATOM     10  N   UNL     1       3.848   3.401  18.885  0.00  0.00    +0.000 N 
ATOM     11  H   UNL     1       8.320   6.516  19.090  0.00  0.00    +0.000 HD
ATOM     12  H   UNL     1       7.642   5.754  20.484  0.00  0.00    +0.000 HD
ENDROOT
BRANCH   1  13
ATOM     13  S   UNL     1       6.051   5.400  14.904  0.00  0.00    +0.000 S 
BRANCH  13  14
ATOM     14  C   UNL     1       6.298   3.718  14.235  0.00  0.00    +0.000 C 
BRANCH  14  16
ATOM     15  C   UNL     1       5.106   3.321  12.031  0.00  0.00    +0.000 C 
ATOM     16  C   UNL     1       6.388   3.795  12.705  0.00  0.00    +0.000 C 
ENDBRANCH  14  16
ENDBRANCH  13  14
ENDBRANCH   1  13
BRANCH  10  17
ATOM     17  C   UNL     1       3.433   2.976  20.210  0.00  0.00    +0.000 C 
BRANCH  17  18
ATOM     18  C   UNL     1       1.969   3.284  20.572  0.00  0.00    +0.000 C 
ATOM     19  C   UNL     1       1.486   2.516  21.804  0.00  0.00    +0.000 C 
ATOM     20  C   UNL     1       1.787   4.786  20.810  0.00  0.00    +0.000 C 
ENDBRANCH  17  18
ENDBRANCH  10  17
TORSDOF 5
ENDMDL
MODEL 2
REMARK VINA RESULT:      -6.4      1.568      1.916
REMARK  Name = 
REMARK  8 active torsions:
REMARK  status: ('A' for Active; 'I' for Inactive)
REMARK    1  A    between atoms: C_1  and  C_2
REMARK    2  A    between atoms: C_2  and  C_3
REMARK    3  A    between atoms: C_3  and  S_4
REMARK    4  A    between atoms: S_4  and  C_5
REMARK    5  A    between atoms: N_14  and  C_15
REMARK    6  A    between atoms: C_15  and  C_16
REMARK    7  A    between atoms: C_16  and  C_17
REMARK    8  A    between atoms: C_16  and  C_18
REMARK                            x       y       z     vdW  Elec       q    Type
REMARK                         _______ _______ _______ _____ _____    ______ ____
ROOT
ATOM      1  C   UNL     1       6.479   4.999  15.640  0.00  0.00    +0.000 A 
ATOM      2  N   UNL     1       7.187   6.123  15.910  0.00  0.00    +0.000 NA
ATOM      3  C   UNL     1       6.971   6.764  17.069  0.00  0.00    +0.000 A 
ATOM      4  N   UNL     1       7.701   7.916  17.285  0.00  0.00    +0.000 N 
ATOM      5  N   UNL     1       6.078   6.438  18.012  0.00  0.00    +0.000 NA
ATOM      6  C   UNL     1       5.387   5.332  17.699  0.00  0.00    +0.000 A 
ATOM      7  C   UNL     1       5.528   4.551  16.562  0.00  0.00    +0.000 A 
ATOM      8  N   UNL     1       4.660   3.478  16.609  0.00  0.00    +0.000 NA
ATOM      9  C   UNL     1       4.001   3.620  17.740  0.00  0.00    +0.000 A 
ATOM     10  N   UNL     1       4.378   4.750  18.417  0.00  0.00    +0.000 N 
ATOM     11  H   UNL     1       7.981   8.310  16.396  0.00  0.00    +0.000 HD
ATOM     12  H   UNL     1       7.210   8.521  17.928  0.00  0.00    +0.000 HD
ENDROOT
BRANCH   1  13
ATOM     13  S   UNL     1       6.868   4.102  14.166  0.00  0.00    +0.000 S 
BRANCH  13  14
ATOM     14  C   UNL     1       5.249   4.078  13.321  0.00  0.00    +0.000 C 
BRANCH  14  16
ATOM     15  C   UNL     1       4.064   3.228  11.245  0.00  0.00    +0.000 C 
ATOM     16  C   UNL     1       5.367   3.248  12.035  0.00  0.00    +0.000 C 
ENDBRANCH  14  16
ENDBRANCH  13  14
ENDBRANCH   1  13
BRANCH  10  17
ATOM     17  C   UNL     1       3.804   5.221  19.666  0.00  0.00    +0.000 C 
BRANCH  17  18
ATOM     18  C   UNL     1       2.315   5.603  19.603  0.00  0.00    +0.000 C 
ATOM     19  C   UNL     1       1.460   4.835  20.614  0.00  0.00    +0.000 C 
ATOM     20  C   UNL     1       2.144   7.107  19.837  0.00  0.00    +0.000 C 
ENDBRANCH  17  18
ENDBRANCH  10  17
TORSDOF 5
ENDMDL
MODEL 3
REMARK VINA RESULT:      -6.2      2.610      3.518
REMARK  Name = 
REMARK  8 active torsions:
REMARK  status: ('A' for Active; 'I' for Inactive)
REMARK    1  A    between atoms: C_1  and  C_2
REMARK    2  A    between atoms: C_2  and  C_3
REMARK    3  A    between atoms: C_3  and  S_4
REMARK    4  A    between atoms: S_4  and  C_5
REMARK    5  A    between atoms: N_14  and  C_15
REMARK    6  A    between atoms: C_15  and  C_16
REMARK    7  A    between atoms: C_16  and  C_17
REMARK    8  A    between atoms: C_16  and  C_18
REMARK                            x       y       z     vdW  Elec       q    Type
REMARK                         _______ _______ _______ _____ _____    ______ ____
ROOT
ATOM      1  C   UNL     1       4.870   5.780  16.983  0.00  0.00    +0.000 A 
ATOM      2  N   UNL     1       4.331   7.022  17.054  0.00  0.00    +0.000 NA
ATOM      3  C   UNL     1       3.156   7.185  17.684  0.00  0.00    +0.000 A 
ATOM      4  N   UNL     1       2.639   8.466  17.707  0.00  0.00    +0.000 N 
ATOM      5  N   UNL     1       2.404   6.226  18.239  0.00  0.00    +0.000 NA
ATOM      6  C   UNL     1       2.964   5.013  18.132  0.00  0.00    +0.000 A 
ATOM      7  C   UNL     1       4.182   4.702  17.545  0.00  0.00    +0.000 A 
ATOM      8  N   UNL     1       4.432   3.348  17.654  0.00  0.00    +0.000 NA
ATOM      9  C   UNL     1       3.382   2.854  18.278  0.00  0.00    +0.000 A 
ATOM     10  N   UNL     1       2.448   3.817  18.554  0.00  0.00    +0.000 N 
ATOM     11  H   UNL     1       3.007   8.993  16.927  0.00  0.00    +0.000 HD
ATOM     12  H   UNL     1       1.635   8.430  17.813  0.00  0.00    +0.000 HD
ENDROOT
BRANCH   1  13
ATOM     13  S   UNL     1       6.475   5.610  16.259  0.00  0.00    +0.000 S 
BRANCH  13  14
ATOM     14  C   UNL     1       7.487   5.189  17.720  0.00  0.00    +0.000 C 
BRANCH  14  16
ATOM     15  C   UNL     1       7.800   7.704  17.637  0.00  0.00    +0.000 C 
ATOM     16  C   UNL     1       7.763   6.466  18.524  0.00  0.00    +0.000 C 
ENDBRANCH  14  16
ENDBRANCH  13  14
ENDBRANCH   1  13
BRANCH  10  17
ATOM     17  C   UNL     1       1.157   3.592  19.181  0.00  0.00    +0.000 C 
BRANCH  17  18
ATOM     18  C   UNL     1       1.143   3.710  20.716  0.00  0.00    +0.000 C 
ATOM     19  C   UNL     1       1.549   2.411  21.417  0.00  0.00    +0.000 C 
ATOM     20  C   UNL     1       2.071   4.840  21.169  0.00  0.00    +0.000 C 
ENDBRANCH  17  18
ENDBRANCH  10  17
TORSDOF 5
ENDMDL
MODEL 4
REMARK VINA RESULT:      -6.2      3.142      5.063
REMARK  Name = 
REMARK  8 active torsions:
REMARK  status: ('A' for Active; 'I' for Inactive)
REMARK    1  A    between atoms: C_1  and  C_2
REMARK    2  A    between atoms: C_2  and  C_3
REMARK    3  A    between atoms: C_3  and  S_4
REMARK    4  A    between atoms: S_4  and  C_5
REMARK    5  A    between atoms: N_14  and  C_15
REMARK    6  A    between atoms: C_15  and  C_16
REMARK    7  A    between atoms: C_16  and  C_17
REMARK    8  A    between atoms: C_16  and  C_18
REMARK                            x       y       z     vdW  Elec       q    Type
REMARK                         _______ _______ _______ _____ _____    ______ ____
ROOT
ATOM      1  C   UNL     1       7.605   7.537  17.965  0.00  0.00    +0.000 A 
ATOM      2  N   UNL     1       8.226   6.967  19.027  0.00  0.00    +0.000 NA
ATOM      3  C   UNL     1       7.964   5.683  19.318  0.00  0.00    +0.000 A 
ATOM      4  N   UNL     1       8.605   5.156  20.423  0.00  0.00    +0.000 N 
ATOM      5  N   UNL     1       7.100   4.877  18.688  0.00  0.00    +0.000 NA
ATOM      6  C   UNL     1       6.496   5.484  17.657  0.00  0.00    +0.000 A 
ATOM      7  C   UNL     1       6.694   6.785  17.219  0.00  0.00    +0.000 A 
ATOM      8  N   UNL     1       5.910   7.040  16.111  0.00  0.00    +0.000 NA
ATOM      9  C   UNL     1       5.244   5.924  15.897  0.00  0.00    +0.000 A 
ATOM     10  N   UNL     1       5.535   4.965  16.831  0.00  0.00    +0.000 N 
ATOM     11  H   UNL     1       8.851   5.904  21.059  0.00  0.00    +0.000 HD
ATOM     12  H   UNL     1       8.070   4.385  20.797  0.00  0.00    +0.000 HD
ENDROOT
BRANCH   1  13
ATOM     13  S   UNL     1       8.060   9.189  17.524  0.00  0.00    +0.000 S 
BRANCH  13  14
ATOM     14  C   UNL     1       9.037   9.695  18.982  0.00  0.00    +0.000 C 
BRANCH  14  16
ATOM     15  C   UNL     1      10.452  11.463  17.840  0.00  0.00    +0.000 C 
ATOM     16  C   UNL     1       9.365  11.190  18.872  0.00  0.00    +0.000 C 
ENDBRANCH  14  16
ENDBRANCH  13  14
ENDBRANCH   1  13
BRANCH  10  17
ATOM     17  C   UNL     1       4.930   3.647  16.910  0.00  0.00    +0.000 C 
BRANCH  17  18
ATOM     18  C   UNL     1       3.830   3.490  17.976  0.00  0.00    +0.000 C 
ATOM     19  C   UNL     1       2.624   4.398  17.724  0.00  0.00    +0.000 C 
ATOM     20  C   UNL     1       3.361   2.034  18.041  0.00  0.00    +0.000 C 
ENDBRANCH  17  18
ENDBRANCH  10  17
TORSDOF 5
ENDMDL
MODEL 5
REMARK VINA RESULT:      -6.2      1.829      5.873
REMARK  Name = 
REMARK  8 active torsions:
REMARK  status: ('A' for Active; 'I' for Inactive)
REMARK    1  A    between atoms: C_1  and  C_2
REMARK    2  A    between atoms: C_2  and  C_3
REMARK    3  A    between atoms: C_3  and  S_4
REMARK    4  A    between atoms: S_4  and  C_5
REMARK    5  A    between atoms: N_14  and  C_15
REMARK    6  A    between atoms: C_15  and  C_16
REMARK    7  A    between atoms: C_16  and  C_17
REMARK    8  A    between atoms: C_16  and  C_18
REMARK                            x       y       z     vdW  Elec       q    Type
REMARK                         _______ _______ _______ _____ _____    ______ ____
ROOT
ATOM      1  C   UNL     1       4.922   4.946  19.091  0.00  0.00    +0.000 A 
ATOM      2  N   UNL     1       6.041   5.195  19.816  0.00  0.00    +0.000 NA
ATOM      3  C   UNL     1       7.220   5.280  19.180  0.00  0.00    +0.000 A 
ATOM      4  N   UNL     1       8.332   5.511  19.967  0.00  0.00    +0.000 N 
ATOM      5  N   UNL     1       7.441   5.103  17.872  0.00  0.00    +0.000 NA
ATOM      6  C   UNL     1       6.314   4.843  17.195  0.00  0.00    +0.000 A 
ATOM      7  C   UNL     1       5.028   4.762  17.709  0.00  0.00    +0.000 A 
ATOM      8  N   UNL     1       4.124   4.504  16.698  0.00  0.00    +0.000 NA
ATOM      9  C   UNL     1       4.851   4.415  15.603  0.00  0.00    +0.000 A 
ATOM     10  N   UNL     1       6.187   4.574  15.858  0.00  0.00    +0.000 N 
ATOM     11  H   UNL     1       8.151   5.190  20.909  0.00  0.00    +0.000 HD
ATOM     12  H   UNL     1       9.159   5.161  19.506  0.00  0.00    +0.000 HD
ENDROOT
BRANCH   1  13
ATOM     13  S   UNL     1       3.365   4.962  19.930  0.00  0.00    +0.000 S 
BRANCH  13  14
ATOM     14  C   UNL     1       3.003   3.176  20.053  0.00  0.00    +0.000 C 
BRANCH  14  16
ATOM     15  C   UNL     1       0.841   2.457  18.940  0.00  0.00    +0.000 C 
ATOM     16  C   UNL     1       1.490   2.980  20.214  0.00  0.00    +0.000 C 
ENDBRANCH  14  16
ENDBRANCH  13  14
ENDBRANCH   1  13
BRANCH  10  17
ATOM     17  C   UNL     1       7.255   4.477  14.879  0.00  0.00    +0.000 C 
BRANCH  17  18
ATOM     18  C   UNL     1       6.857   4.829  13.434  0.00  0.00    +0.000 C 
ATOM     19  C   UNL     1       7.994   5.483  12.646  0.00  0.00    +0.000 C 
ATOM     20  C   UNL     1       6.388   3.573  12.694  0.00  0.00    +0.000 C 
ENDBRANCH  17  18
ENDBRANCH  10  17
TORSDOF 5
ENDMDL
MODEL 6
REMARK VINA RESULT:      -6.2      2.276      2.846
REMARK  Name = 
REMARK  8 active torsions:
REMARK  status: ('A' for Active; 'I' for Inactive)
REMARK    1  A    between atoms: C_1  and  C_2
REMARK    2  A    between atoms: C_2  and  C_3
REMARK    3  A    between atoms: C_3  and  S_4
REMARK    4  A    between atoms: S_4  and  C_5
REMARK    5  A    between atoms: N_14  and  C_15
REMARK    6  A    between atoms: C_15  and  C_16
REMARK    7  A    between atoms: C_16  and  C_17
REMARK    8  A    between atoms: C_16  and  C_18
REMARK                            x       y       z     vdW  Elec       q    Type
REMARK                         _______ _______ _______ _____ _____    ______ ____
ROOT
ATOM      1  C   UNL     1       4.766   6.180  17.221  0.00  0.00    +0.000 A 
ATOM      2  N   UNL     1       4.057   7.322  17.044  0.00  0.00    +0.000 NA
ATOM      3  C   UNL     1       3.075   7.617  17.911  0.00  0.00    +0.000 A 
ATOM      4  N   UNL     1       2.367   8.779  17.672  0.00  0.00    +0.000 N 
ATOM      5  N   UNL     1       2.669   6.873  18.947  0.00  0.00    +0.000 NA
ATOM      6  C   UNL     1       3.384   5.746  19.077  0.00  0.00    +0.000 A 
ATOM      7  C   UNL     1       4.444   5.331  18.283  0.00  0.00    +0.000 A 
ATOM      8  N   UNL     1       4.944   4.130  18.746  0.00  0.00    +0.000 NA
ATOM      9  C   UNL     1       4.193   3.821  19.783  0.00  0.00    +0.000 A 
ATOM     10  N   UNL     1       3.209   4.750  19.999  0.00  0.00    +0.000 N 
ATOM     11  H   UNL     1       2.425   9.014  16.690  0.00  0.00    +0.000 HD
ATOM     12  H   UNL     1       1.447   8.713  18.082  0.00  0.00    +0.000 HD
ENDROOT
BRANCH   1  13
ATOM     13  S   UNL     1       6.134   5.874  16.142  0.00  0.00    +0.000 S 
BRANCH  13  14
ATOM     14  C   UNL     1       5.464   4.550  15.077  0.00  0.00    +0.000 C 
BRANCH  14  16
ATOM     15  C   UNL     1       5.855   3.529  12.789  0.00  0.00    +0.000 C 
ATOM     16  C   UNL     1       6.494   4.210  13.992  0.00  0.00    +0.000 C 
ENDBRANCH  14  16
ENDBRANCH  13  14
ENDBRANCH   1  13
BRANCH  10  17
ATOM     17  C   UNL     1       2.184   4.675  21.025  0.00  0.00    +0.000 C 
BRANCH  17  18
ATOM     18  C   UNL     1       1.152   3.547  20.844  0.00  0.00    +0.000 C 
ATOM     19  C   UNL     1       0.986   3.121  19.383  0.00  0.00    +0.000 C 
ATOM     20  C   UNL     1       1.548   2.329  21.683  0.00  0.00    +0.000 C 
ENDBRANCH  17  18
ENDBRANCH  10  17
TORSDOF 5
ENDMDL
MODEL 7
REMARK VINA RESULT:      -6.2      0.960      1.199
REMARK  Name = 
REMARK  8 active torsions:
REMARK  status: ('A' for Active; 'I' for Inactive)
REMARK    1  A    between atoms: C_1  and  C_2
REMARK    2  A    between atoms: C_2  and  C_3
REMARK    3  A    between atoms: C_3  and  S_4
REMARK    4  A    between atoms: S_4  and  C_5
REMARK    5  A    between atoms: N_14  and  C_15
REMARK    6  A    between atoms: C_15  and  C_16
REMARK    7  A    between atoms: C_16  and  C_17
REMARK    8  A    between atoms: C_16  and  C_18
REMARK                            x       y       z     vdW  Elec       q    Type
REMARK                         _______ _______ _______ _____ _____    ______ ____
ROOT
ATOM      1  C   UNL     1       6.550   5.293  16.947  0.00  0.00    +0.000 A 
ATOM      2  N   UNL     1       7.528   5.438  17.875  0.00  0.00    +0.000 NA
ATOM      3  C   UNL     1       7.212   5.317  19.174  0.00  0.00    +0.000 A 
ATOM      4  N   UNL     1       8.240   5.497  20.079  0.00  0.00    +0.000 N 
ATOM      5  N   UNL     1       5.994   5.102  19.687  0.00  0.00    +0.000 NA
ATOM      6  C   UNL     1       5.055   4.982  18.739  0.00  0.00    +0.000 A 
ATOM      7  C   UNL     1       5.239   5.046  17.365  0.00  0.00    +0.000 A 
ATOM      8  N   UNL     1       4.039   4.849  16.713  0.00  0.00    +0.000 NA
ATOM      9  C   UNL     1       3.150   4.686  17.671  0.00  0.00    +0.000 A 
ATOM     10  N   UNL     1       3.710   4.797  18.916  0.00  0.00    +0.000 N 
ATOM     11  H   UNL     1       8.961   6.071  19.663  0.00  0.00    +0.000 HD
ATOM     12  H   UNL     1       7.867   5.793  20.970  0.00  0.00    +0.000 HD
ENDROOT
BRANCH   1  13
ATOM     13  S   UNL     1       7.010   5.332  15.239  0.00  0.00    +0.000 S 
BRANCH  13  14
ATOM     14  C   UNL     1       6.346   3.735  14.651  0.00  0.00    +0.000 C 
BRANCH  14  16
ATOM     15  C   UNL     1       6.028   3.259  12.180  0.00  0.00    +0.000 C 
ATOM     16  C   UNL     1       5.482   3.979  13.406  0.00  0.00    +0.000 C 
ENDBRANCH  14  16
ENDBRANCH  13  14
ENDBRANCH   1  13
BRANCH  10  17
ATOM     17  C   UNL     1       2.994   4.724  20.178  0.00  0.00    +0.000 C 
BRANCH  17  18
ATOM     18  C   UNL     1       2.114   3.475  20.364  0.00  0.00    +0.000 C 
ATOM     19  C   UNL     1       2.690   2.233  19.681  0.00  0.00    +0.000 C 
ATOM     20  C   UNL     1       1.916   3.186  21.855  0.00  0.00    +0.000 C 
ENDBRANCH  17  18
ENDBRANCH  10  17
TORSDOF 5
ENDMDL
MODEL 8
REMARK VINA RESULT:      -6.1      2.397      4.214
REMARK  Name = 
REMARK  8 active torsions:
REMARK  status: ('A' for Active; 'I' for Inactive)
REMARK    1  A    between atoms: C_1  and  C_2
REMARK    2  A    between atoms: C_2  and  C_3
REMARK    3  A    between atoms: C_3  and  S_4
REMARK    4  A    between atoms: S_4  and  C_5
REMARK    5  A    between atoms: N_14  and  C_15
REMARK    6  A    between atoms: C_15  and  C_16
REMARK    7  A    between atoms: C_16  and  C_17
REMARK    8  A    between atoms: C_16  and  C_18
REMARK                            x       y       z     vdW  Elec       q    Type
REMARK                         _______ _______ _______ _____ _____    ______ ____
ROOT
ATOM      1  C   UNL     1       6.727   5.326  17.760  0.00  0.00    +0.000 A 
ATOM      2  N   UNL     1       6.753   5.424  16.408  0.00  0.00    +0.000 NA
ATOM      3  C   UNL     1       5.813   4.784  15.693  0.00  0.00    +0.000 A 
ATOM      4  N   UNL     1       5.898   4.898  14.319  0.00  0.00    +0.000 N 
ATOM      5  N   UNL     1       4.839   3.999  16.169  0.00  0.00    +0.000 NA
ATOM      6  C   UNL     1       4.859   3.915  17.506  0.00  0.00    +0.000 A 
ATOM      7  C   UNL     1       5.742   4.546  18.372  0.00  0.00    +0.000 A 
ATOM      8  N   UNL     1       5.428   4.238  19.680  0.00  0.00    +0.000 NA
ATOM      9  C   UNL     1       4.392   3.428  19.604  0.00  0.00    +0.000 A 
ATOM     10  N   UNL     1       4.035   3.171  18.307  0.00  0.00    +0.000 N 
ATOM     11  H   UNL     1       6.853   5.101  14.055  0.00  0.00    +0.000 HD
ATOM     12  H   UNL     1       5.453   4.105  13.879  0.00  0.00    +0.000 HD
ENDROOT
BRANCH   1  13
ATOM     13  S   UNL     1       7.897   6.276  18.686  0.00  0.00    +0.000 S 
BRANCH  13  14
ATOM     14  C   UNL     1       7.821   7.883  17.821  0.00  0.00    +0.000 C 
BRANCH  14  16
ATOM     15  C   UNL     1       8.588  10.296  17.972  0.00  0.00    +0.000 C 
ATOM     16  C   UNL     1       8.688   8.900  18.575  0.00  0.00    +0.000 C 
ENDBRANCH  14  16
ENDBRANCH  13  14
ENDBRANCH   1  13
BRANCH  10  17
ATOM     17  C   UNL     1       2.973   2.276  17.881  0.00  0.00    +0.000 C 
BRANCH  17  18
ATOM     18  C   UNL     1       1.544   2.817  18.065  0.00  0.00    +0.000 C 
ATOM     19  C   UNL     1       1.017   2.635  19.490  0.00  0.00    +0.000 C 
ATOM     20  C   UNL     1       1.487   4.301  17.692  0.00  0.00    +0.000 C 
ENDBRANCH  17  18
ENDBRANCH  10  17
TORSDOF 5
ENDMDL
MODEL 9
REMARK VINA RESULT:      -6.1      2.416      3.661
REMARK  Name = 
REMARK  8 active torsions:
REMARK  status: ('A' for Active; 'I' for Inactive)
REMARK    1  A    between atoms: C_1  and  C_2
REMARK    2  A    between atoms: C_2  and  C_3
REMARK    3  A    between atoms: C_3  and  S_4
REMARK    4  A    between atoms: S_4  and  C_5
REMARK    5  A    between atoms: N_14  and  C_15
REMARK    6  A    between atoms: C_15  and  C_16
REMARK    7  A    between atoms: C_16  and  C_17
REMARK    8  A    between atoms: C_16  and  C_18
REMARK                            x       y       z     vdW  Elec       q    Type
REMARK                         _______ _______ _______ _____ _____    ______ ____
ROOT
ATOM      1  C   UNL     1       4.425   6.060  16.931  0.00  0.00    +0.000 A 
ATOM      2  N   UNL     1       3.798   7.262  16.894  0.00  0.00    +0.000 NA
ATOM      3  C   UNL     1       2.988   7.603  17.908  0.00  0.00    +0.000 A 
ATOM      4  N   UNL     1       2.356   8.828  17.810  0.00  0.00    +0.000 N 
ATOM      5  N   UNL     1       2.680   6.855  18.975  0.00  0.00    +0.000 NA
ATOM      6  C   UNL     1       3.305   5.670  18.965  0.00  0.00    +0.000 A 
ATOM      7  C   UNL     1       4.193   5.200  18.008  0.00  0.00    +0.000 A 
ATOM      8  N   UNL     1       4.651   3.945  18.358  0.00  0.00    +0.000 NA
ATOM      9  C   UNL     1       4.041   3.660  19.489  0.00  0.00    +0.000 A 
ATOM     10  N   UNL     1       3.185   4.657  19.878  0.00  0.00    +0.000 N 
ATOM     11  H   UNL     1       2.285   9.094  16.838  0.00  0.00    +0.000 HD
ATOM     12  H   UNL     1       1.506   8.821  18.355  0.00  0.00    +0.000 HD
ENDROOT
BRANCH   1  13
ATOM     13  S   UNL     1       5.583   5.684  15.648  0.00  0.00    +0.000 S 
BRANCH  13  14
ATOM     14  C   UNL     1       7.126   5.479  16.604  0.00  0.00    +0.000 C 
BRANCH  14  16
ATOM     15  C   UNL     1       7.919   6.472  18.799  0.00  0.00    +0.000 C 
ATOM     16  C   UNL     1       7.399   6.764  17.397  0.00  0.00    +0.000 C 
ENDBRANCH  14  16
ENDBRANCH  13  14
ENDBRANCH   1  13
BRANCH  10  17
ATOM     17  C   UNL     1       2.324   4.627  21.047  0.00  0.00    +0.000 C 
BRANCH  17  18
ATOM     18  C   UNL     1       1.182   3.596  20.997  0.00  0.00    +0.000 C 
ATOM     19  C   UNL     1       0.818   3.179  19.570  0.00  0.00    +0.000 C 
ATOM     20  C   UNL     1       1.557   2.351  21.806  0.00  0.00    +0.000 C 
ENDBRANCH  17  18
ENDBRANCH  10  17
TORSDOF 5
ENDMDL
