MODEL 1
REMARK VINA RESULT:      -7.3      0.000      0.000
REMARK  Name = 
REMARK  4 active torsions:
REMARK  status: ('A' for Active; 'I' for Inactive)
REMARK    1  A    between atoms: C_1  and  C_2
REMARK    2  A    between atoms: N_5  and  C_6
REMARK    3  A    between atoms: C_11  and  C_12
REMARK    4  A    between atoms: C_16  and  C_17
REMARK                            x       y       z     vdW  Elec       q    Type
REMARK                         _______ _______ _______ _____ _____    ______ ____
ROOT
ATOM      1  C   UNL     1      -0.564   8.290  21.539  0.00  0.00    +0.000 C 
ATOM      2  C   UNL     1       0.864   8.864  21.468  0.00  0.00    +0.000 C 
ATOM      3  C   UNL     1       0.808  10.388  21.633  0.00  0.00    +0.000 C 
ATOM      4  C   UNL     1       0.887  11.273  20.625  0.00  0.00    +0.000 C 
ATOM      5  N   UNL     1       0.578  12.632  20.883  0.00  0.00    +0.000 N 
ATOM      6  C   UNL     1       1.175  13.732  20.128  0.00  0.00    +0.000 C 
ATOM      7  C   UNL     1      -0.802  12.824  20.840  0.00  0.00    +0.000 C 
ATOM      8  O   UNL     1      -1.417  13.525  21.633  0.00  0.00    +0.000 OA
ATOM      9  C   UNL     1      -1.430  12.220  19.594  0.00  0.00    +0.000 C 
ATOM     10  C   UNL     1      -0.501  11.430  18.605  0.00  0.00    +0.000 C 
ATOM     11  C   UNL     1       0.844  10.816  19.163  0.00  0.00    +0.000 C 
ATOM     12  C   UNL     1       2.124  11.333  18.430  0.00  0.00    +0.000 C 
ATOM     13  C   UNL     1       0.843   9.210  18.966  0.00  0.00    +0.000 C 
ATOM     14  C   UNL     1       1.320   8.759  17.568  0.00  0.00    +0.000 C 
ATOM     15  C   UNL     1       1.598   7.271  17.501  0.00  0.00    +0.000 C 
ATOM     16  C   UNL     1       2.658   6.785  18.505  0.00  0.00    +0.000 C 
ATOM     17  C   UNL     1       4.038   7.454  18.222  0.00  0.00    +0.000 C 
ATOM     18  C   UNL     1       2.326   7.184  19.977  0.00  0.00    +0.000 C 
ATOM     19  C   UNL     1       2.140   5.863  20.736  0.00  0.00    +0.000 C 
ATOM     20  C   UNL     1       3.115   4.932  19.969  0.00  0.00    +0.000 C 
ATOM     21  C   UNL     1       2.764   5.214  18.499  0.00  0.00    +0.000 C 
ATOM     22  C   UNL     1       1.530   4.374  18.106  0.00  0.00    +0.000 C 
ATOM     23  C   UNL     1       2.155   3.092  17.605  0.00  0.00    +0.000 C 
ATOM     24  C   UNL     1       3.354   3.632  16.866  0.00  0.00    +0.000 C 
ATOM     25  O   UNL     1       3.815   4.761  17.624  0.00  0.00    +0.000 OA
ATOM     26  C   UNL     1       1.618   8.559  20.155  0.00  0.00    +0.000 C 
ENDROOT
TORSDOF 0
ENDMDL
MODEL 2
REMARK VINA RESULT:      -6.3      8.661     11.245
REMARK  Name = 
REMARK  4 active torsions:
REMARK  status: ('A' for Active; 'I' for Inactive)
REMARK    1  A    between atoms: C_1  and  C_2
REMARK    2  A    between atoms: N_5  and  C_6
REMARK    3  A    between atoms: C_11  and  C_12
REMARK    4  A    between atoms: C_16  and  C_17
REMARK                            x       y       z     vdW  Elec       q    Type
REMARK                         _______ _______ _______ _____ _____    ______ ____
ROOT
ATOM      1  C   UNL     1      10.189  11.735  21.005  0.00  0.00    +0.000 C 
ATOM      2  C   UNL     1       8.983  12.558  20.516  0.00  0.00    +0.000 C 
ATOM      3  C   UNL     1       9.365  13.311  19.236  0.00  0.00    +0.000 C 
ATOM      4  C   UNL     1       9.700  14.610  19.180  0.00  0.00    +0.000 C 
ATOM      5  N   UNL     1      10.267  15.120  17.984  0.00  0.00    +0.000 N 
ATOM      6  C   UNL     1      10.110  16.513  17.570  0.00  0.00    +0.000 C 
ATOM      7  C   UNL     1      11.633  14.846  17.949  0.00  0.00    +0.000 C 
ATOM      8  O   UNL     1      12.228  14.474  16.946  0.00  0.00    +0.000 OA
ATOM      9  C   UNL     1      12.333  15.238  19.240  0.00  0.00    +0.000 C 
ATOM     10  C   UNL     1      11.458  15.799  20.417  0.00  0.00    +0.000 C 
ATOM     11  C   UNL     1       9.922  15.428  20.457  0.00  0.00    +0.000 C 
ATOM     12  C   UNL     1       8.974  16.669  20.438  0.00  0.00    +0.000 C 
ATOM     13  C   UNL     1       9.581  14.634  21.824  0.00  0.00    +0.000 C 
ATOM     14  C   UNL     1       9.296  15.565  23.024  0.00  0.00    +0.000 C 
ATOM     15  C   UNL     1       8.691  14.827  24.201  0.00  0.00    +0.000 C 
ATOM     16  C   UNL     1       7.369  14.109  23.880  0.00  0.00    +0.000 C 
ATOM     17  C   UNL     1       6.272  15.133  23.453  0.00  0.00    +0.000 C 
ATOM     18  C   UNL     1       7.488  13.137  22.664  0.00  0.00    +0.000 C 
ATOM     19  C   UNL     1       7.200  11.736  23.221  0.00  0.00    +0.000 C 
ATOM     20  C   UNL     1       6.204  12.062  24.364  0.00  0.00    +0.000 C 
ATOM     21  C   UNL     1       6.896  13.225  25.093  0.00  0.00    +0.000 C 
ATOM     22  C   UNL     1       7.947  12.654  26.068  0.00  0.00    +0.000 C 
ATOM     23  C   UNL     1       7.147  12.468  27.337  0.00  0.00    +0.000 C 
ATOM     24  C   UNL     1       6.282  13.704  27.309  0.00  0.00    +0.000 C 
ATOM     25  O   UNL     1       5.962  13.936  25.929  0.00  0.00    +0.000 OA
ATOM     26  C   UNL     1       8.453  13.595  21.532  0.00  0.00    +0.000 C 
ENDROOT
TORSDOF 0
ENDMDL
MODEL 3
REMARK VINA RESULT:      -6.3      8.285     10.385
REMARK  Name = 
REMARK  4 active torsions:
REMARK  status: ('A' for Active; 'I' for Inactive)
REMARK    1  A    between atoms: C_1  and  C_2
REMARK    2  A    between atoms: N_5  and  C_6
REMARK    3  A    between atoms: C_11  and  C_12
REMARK    4  A    between atoms: C_16  and  C_17
REMARK                            x       y       z     vdW  Elec       q    Type
REMARK                         _______ _______ _______ _____ _____    ______ ____
ROOT
ATOM      1  C   UNL     1       6.246  16.410  22.515  0.00  0.00    +0.000 C 
ATOM      2  C   UNL     1       6.017  15.018  21.896  0.00  0.00    +0.000 C 
ATOM      3  C   UNL     1       5.465  14.069  22.967  0.00  0.00    +0.000 C 
ATOM      4  C   UNL     1       6.191  13.156  23.632  0.00  0.00    +0.000 C 
ATOM      5  N   UNL     1       5.619  12.518  24.761  0.00  0.00    +0.000 N 
ATOM      6  C   UNL     1       5.993  11.167  25.176  0.00  0.00    +0.000 C 
ATOM      7  C   UNL     1       5.751  13.329  25.887  0.00  0.00    +0.000 C 
ATOM      8  O   UNL     1       4.870  13.486  26.722  0.00  0.00    +0.000 OA
ATOM      9  C   UNL     1       7.170  13.848  26.060  0.00  0.00    +0.000 C 
ATOM     10  C   UNL     1       8.231  13.485  24.960  0.00  0.00    +0.000 C 
ATOM     11  C   UNL     1       7.719  13.116  23.512  0.00  0.00    +0.000 C 
ATOM     12  C   UNL     1       8.154  11.694  23.033  0.00  0.00    +0.000 C 
ATOM     13  C   UNL     1       8.328  14.152  22.429  0.00  0.00    +0.000 C 
ATOM     14  C   UNL     1       9.740  13.765  21.932  0.00  0.00    +0.000 C 
ATOM     15  C   UNL     1      10.165  14.562  20.715  0.00  0.00    +0.000 C 
ATOM     16  C   UNL     1       9.221  14.418  19.509  0.00  0.00    +0.000 C 
ATOM     17  C   UNL     1       9.175  12.940  19.014  0.00  0.00    +0.000 C 
ATOM     18  C   UNL     1       7.738  14.758  19.858  0.00  0.00    +0.000 C 
ATOM     19  C   UNL     1       7.375  15.976  18.996  0.00  0.00    +0.000 C 
ATOM     20  C   UNL     1       8.256  15.734  17.743  0.00  0.00    +0.000 C 
ATOM     21  C   UNL     1       9.628  15.405  18.352  0.00  0.00    +0.000 C 
ATOM     22  C   UNL     1      10.352  16.723  18.702  0.00  0.00    +0.000 C 
ATOM     23  C   UNL     1      11.105  17.028  17.426  0.00  0.00    +0.000 C 
ATOM     24  C   UNL     1      11.549  15.644  17.022  0.00  0.00    +0.000 C 
ATOM     25  O   UNL     1      10.479  14.759  17.385  0.00  0.00    +0.000 OA
ATOM     26  C   UNL     1       7.279  14.364  21.292  0.00  0.00    +0.000 C 
ENDROOT
TORSDOF 0
ENDMDL
MODEL 4
REMARK VINA RESULT:      -6.2      3.795      8.848
REMARK  Name = 
REMARK  4 active torsions:
REMARK  status: ('A' for Active; 'I' for Inactive)
REMARK    1  A    between atoms: C_1  and  C_2
REMARK    2  A    between atoms: N_5  and  C_6
REMARK    3  A    between atoms: C_11  and  C_12
REMARK    4  A    between atoms: C_16  and  C_17
REMARK                            x       y       z     vdW  Elec       q    Type
REMARK                         _______ _______ _______ _____ _____    ______ ____
ROOT
ATOM      1  C   UNL     1      -3.311  10.552  18.570  0.00  0.00    +0.000 C 
ATOM      2  C   UNL     1      -2.791  12.002  18.612  0.00  0.00    +0.000 C 
ATOM      3  C   UNL     1      -1.313  12.026  18.205  0.00  0.00    +0.000 C 
ATOM      4  C   UNL     1      -0.282  12.110  19.061  0.00  0.00    +0.000 C 
ATOM      5  N   UNL     1       1.030  11.876  18.578  0.00  0.00    +0.000 N 
ATOM      6  C   UNL     1       2.211  12.497  19.173  0.00  0.00    +0.000 C 
ATOM      7  C   UNL     1       1.283  10.506  18.529  0.00  0.00    +0.000 C 
ATOM      8  O   UNL     1       1.872   9.954  17.609  0.00  0.00    +0.000 OA
ATOM      9  C   UNL     1       0.914   9.805  19.826  0.00  0.00    +0.000 C 
ATOM     10  C   UNL     1       0.255  10.658  20.968  0.00  0.00    +0.000 C 
ATOM     11  C   UNL     1      -0.496  11.992  20.574  0.00  0.00    +0.000 C 
ATOM     12  C   UNL     1       0.079  13.267  21.271  0.00  0.00    +0.000 C 
ATOM     13  C   UNL     1      -2.048  11.906  21.023  0.00  0.00    +0.000 C 
ATOM     14  C   UNL     1      -2.288  12.310  22.495  0.00  0.00    +0.000 C 
ATOM     15  C   UNL     1      -3.756  12.514  22.809  0.00  0.00    +0.000 C 
ATOM     16  C   UNL     1      -4.440  13.586  21.943  0.00  0.00    +0.000 C 
ATOM     17  C   UNL     1      -3.792  14.985  22.176  0.00  0.00    +0.000 C 
ATOM     18  C   UNL     1      -4.269  13.327  20.413  0.00  0.00    +0.000 C 
ATOM     19  C   UNL     1      -5.686  13.106  19.866  0.00  0.00    +0.000 C 
ATOM     20  C   UNL     1      -6.521  14.006  20.813  0.00  0.00    +0.000 C 
ATOM     21  C   UNL     1      -5.993  13.615  22.203  0.00  0.00    +0.000 C 
ATOM     22  C   UNL     1      -6.707  12.329  22.670  0.00  0.00    +0.000 C 
ATOM     23  C   UNL     1      -7.917  12.874  23.395  0.00  0.00    +0.000 C 
ATOM     24  C   UNL     1      -7.315  14.069  24.091  0.00  0.00    +0.000 C 
ATOM     25  O   UNL     1      -6.342  14.611  23.184  0.00  0.00    +0.000 OA
ATOM     26  C   UNL     1      -2.913  12.693  19.988  0.00  0.00    +0.000 C 
ENDROOT
TORSDOF 0
ENDMDL
MODEL 5
REMARK VINA RESULT:      -6.2      8.539     10.222
REMARK  Name = 
REMARK  4 active torsions:
REMARK  status: ('A' for Active; 'I' for Inactive)
REMARK    1  A    between atoms: C_1  and  C_2
REMARK    2  A    between atoms: N_5  and  C_6
REMARK    3  A    between atoms: C_11  and  C_12
REMARK    4  A    between atoms: C_16  and  C_17
REMARK                            x       y       z     vdW  Elec       q    Type
REMARK                         _______ _______ _______ _____ _____    ______ ____
ROOT
ATOM      1  C   UNL     1       7.465  11.891  22.741  0.00  0.00    +0.000 C 
ATOM      2  C   UNL     1       8.549  12.801  23.351  0.00  0.00    +0.000 C 
ATOM      3  C   UNL     1       7.978  13.521  24.578  0.00  0.00    +0.000 C 
ATOM      4  C   UNL     1       7.545  14.792  24.589  0.00  0.00    +0.000 C 
ATOM      5  N   UNL     1       6.818  15.258  25.714  0.00  0.00    +0.000 N 
ATOM      6  C   UNL     1       6.827  16.657  26.134  0.00  0.00    +0.000 C 
ATOM      7  C   UNL     1       5.479  14.884  25.605  0.00  0.00    +0.000 C 
ATOM      8  O   UNL     1       4.809  14.469  26.541  0.00  0.00    +0.000 OA
ATOM      9  C   UNL     1       4.895  15.225  24.244  0.00  0.00    +0.000 C 
ATOM     10  C   UNL     1       5.847  15.851  23.164  0.00  0.00    +0.000 C 
ATOM     11  C   UNL     1       7.401  15.593  23.290  0.00  0.00    +0.000 C 
ATOM     12  C   UNL     1       8.249  16.901  23.402  0.00  0.00    +0.000 C 
ATOM     13  C   UNL     1       7.944  14.828  21.972  0.00  0.00    +0.000 C 
ATOM     14  C   UNL     1       8.286  15.779  20.803  0.00  0.00    +0.000 C 
ATOM     15  C   UNL     1       9.066  15.089  19.703  0.00  0.00    +0.000 C 
ATOM     16  C   UNL     1      10.396  14.470  20.169  0.00  0.00    +0.000 C 
ATOM     17  C   UNL     1      11.363  15.571  20.704  0.00  0.00    +0.000 C 
ATOM     18  C   UNL     1      10.219  13.490  21.370  0.00  0.00    +0.000 C 
ATOM     19  C   UNL     1      10.666  12.115  20.857  0.00  0.00    +0.000 C 
ATOM     20  C   UNL     1      11.752  12.514  19.824  0.00  0.00    +0.000 C 
ATOM     21  C   UNL     1      11.059  13.624  19.018  0.00  0.00    +0.000 C 
ATOM     22  C   UNL     1      10.162  12.979  17.940  0.00  0.00    +0.000 C 
ATOM     23  C   UNL     1      11.105  12.854  16.765  0.00  0.00    +0.000 C 
ATOM     24  C   UNL     1      11.870  14.150  16.877  0.00  0.00    +0.000 C 
ATOM     25  O   UNL     1      12.022  14.403  18.282  0.00  0.00    +0.000 OA
ATOM     26  C   UNL     1       9.107  13.874  22.391  0.00  0.00    +0.000 C 
ENDROOT
TORSDOF 0
ENDMDL
MODEL 6
REMARK VINA RESULT:      -6.0      8.793     11.421
REMARK  Name = 
REMARK  4 active torsions:
REMARK  status: ('A' for Active; 'I' for Inactive)
REMARK    1  A    between atoms: C_1  and  C_2
REMARK    2  A    between atoms: N_5  and  C_6
REMARK    3  A    between atoms: C_11  and  C_12
REMARK    4  A    between atoms: C_16  and  C_17
REMARK                            x       y       z     vdW  Elec       q    Type
REMARK                         _______ _______ _______ _____ _____    ______ ____
ROOT
ATOM      1  C   UNL     1       9.413  16.338  20.845  0.00  0.00    +0.000 C 
ATOM      2  C   UNL     1      10.280  15.261  21.524  0.00  0.00    +0.000 C 
ATOM      3  C   UNL     1      11.130  14.549  20.465  0.00  0.00    +0.000 C 
ATOM      4  C   UNL     1      10.850  13.347  19.936  0.00  0.00    +0.000 C 
ATOM      5  N   UNL     1      11.576  12.915  18.796  0.00  0.00    +0.000 N 
ATOM      6  C   UNL     1      11.822  11.504  18.508  0.00  0.00    +0.000 C 
ATOM      7  C   UNL     1      11.023  13.466  17.641  0.00  0.00    +0.000 C 
ATOM      8  O   UNL     1      11.687  13.909  16.713  0.00  0.00    +0.000 OA
ATOM      9  C   UNL     1       9.515  13.286  17.581  0.00  0.00    +0.000 C 
ATOM     10  C   UNL     1       8.800  12.606  18.803  0.00  0.00    +0.000 C 
ATOM     11  C   UNL     1       9.513  12.650  20.212  0.00  0.00    +0.000 C 
ATOM     12  C   UNL     1       9.792  11.239  20.821  0.00  0.00    +0.000 C 
ATOM     13  C   UNL     1       8.573  13.415  21.284  0.00  0.00    +0.000 C 
ATOM     14  C   UNL     1       7.519  12.498  21.945  0.00  0.00    +0.000 C 
ATOM     15  C   UNL     1       6.858  13.144  23.146  0.00  0.00    +0.000 C 
ATOM     16  C   UNL     1       7.841  13.556  24.257  0.00  0.00    +0.000 C 
ATOM     17  C   UNL     1       8.575  12.308  24.837  0.00  0.00    +0.000 C 
ATOM     18  C   UNL     1       8.989  14.477  23.738  0.00  0.00    +0.000 C 
ATOM     19  C   UNL     1       8.820  15.811  24.480  0.00  0.00    +0.000 C 
ATOM     20  C   UNL     1       8.222  15.334  25.830  0.00  0.00    +0.000 C 
ATOM     21  C   UNL     1       7.108  14.374  25.384  0.00  0.00    +0.000 C 
ATOM     22  C   UNL     1       5.849  15.194  25.028  0.00  0.00    +0.000 C 
ATOM     23  C   UNL     1       5.121  15.264  26.351  0.00  0.00    +0.000 C 
ATOM     24  C   UNL     1       5.370  13.875  26.885  0.00  0.00    +0.000 C 
ATOM     25  O   UNL     1       6.699  13.521  26.471  0.00  0.00    +0.000 OA
ATOM     26  C   UNL     1       9.485  14.182  22.293  0.00  0.00    +0.000 C 
ENDROOT
TORSDOF 0
ENDMDL
MODEL 7
REMARK VINA RESULT:      -6.0      7.461      9.051
REMARK  Name = 
REMARK  4 active torsions:
REMARK  status: ('A' for Active; 'I' for Inactive)
REMARK    1  A    between atoms: C_1  and  C_2
REMARK    2  A    between atoms: N_5  and  C_6
REMARK    3  A    between atoms: C_11  and  C_12
REMARK    4  A    between atoms: C_16  and  C_17
REMARK                            x       y       z     vdW  Elec       q    Type
REMARK                         _______ _______ _______ _____ _____    ______ ____
ROOT
ATOM      1  C   UNL     1       6.699  13.649  22.384  0.00  0.00    +0.000 C 
ATOM      2  C   UNL     1       6.933  15.110  21.955  0.00  0.00    +0.000 C 
ATOM      3  C   UNL     1       5.659  15.925  22.204  0.00  0.00    +0.000 C 
ATOM      4  C   UNL     1       4.767  16.264  21.258  0.00  0.00    +0.000 C 
ATOM      5  N   UNL     1       3.518  16.802  21.658  0.00  0.00    +0.000 N 
ATOM      6  C   UNL     1       2.758  17.732  20.825  0.00  0.00    +0.000 C 
ATOM      7  C   UNL     1       2.643  15.772  22.002  0.00  0.00    +0.000 C 
ATOM      8  O   UNL     1       1.890  15.812  22.967  0.00  0.00    +0.000 OA
ATOM      9  C   UNL     1       2.594  14.680  20.946  0.00  0.00    +0.000 C 
ATOM     10  C   UNL     1       3.545  14.807  19.703  0.00  0.00    +0.000 C 
ATOM     11  C   UNL     1       4.853  15.684  19.842  0.00  0.00    +0.000 C 
ATOM     12  C   UNL     1       4.936  16.858  18.815  0.00  0.00    +0.000 C 
ATOM     13  C   UNL     1       6.162  14.772  19.574  0.00  0.00    +0.000 C 
ATOM     14  C   UNL     1       6.521  14.632  18.078  0.00  0.00    +0.000 C 
ATOM     15  C   UNL     1       7.898  14.038  17.864  0.00  0.00    +0.000 C 
ATOM     16  C   UNL     1       9.037  14.842  18.516  0.00  0.00    +0.000 C 
ATOM     17  C   UNL     1       9.127  16.273  17.901  0.00  0.00    +0.000 C 
ATOM     18  C   UNL     1       8.809  15.087  20.040  0.00  0.00    +0.000 C 
ATOM     19  C   UNL     1       9.965  14.373  20.755  0.00  0.00    +0.000 C 
ATOM     20  C   UNL     1      11.099  14.507  19.706  0.00  0.00    +0.000 C 
ATOM     21  C   UNL     1      10.407  14.075  18.404  0.00  0.00    +0.000 C 
ATOM     22  C   UNL     1      10.406  12.533  18.320  0.00  0.00    +0.000 C 
ATOM     23  C   UNL     1      11.707  12.246  17.605  0.00  0.00    +0.000 C 
ATOM     24  C   UNL     1      11.728  13.366  16.595  0.00  0.00    +0.000 C 
ATOM     25  O   UNL     1      11.159  14.508  17.253  0.00  0.00    +0.000 OA
ATOM     26  C   UNL     1       7.328  15.292  20.473  0.00  0.00    +0.000 C 
ENDROOT
TORSDOF 0
ENDMDL
MODEL 8
REMARK VINA RESULT:      -5.7      7.166     10.452
REMARK  Name = 
REMARK  4 active torsions:
REMARK  status: ('A' for Active; 'I' for Inactive)
REMARK    1  A    between atoms: C_1  and  C_2
REMARK    2  A    between atoms: N_5  and  C_6
REMARK    3  A    between atoms: C_11  and  C_12
REMARK    4  A    between atoms: C_16  and  C_17
REMARK                            x       y       z     vdW  Elec       q    Type
REMARK                         _______ _______ _______ _____ _____    ______ ____
ROOT
ATOM      1  C   UNL     1       7.334  13.530  17.486  0.00  0.00    +0.000 C 
ATOM      2  C   UNL     1       7.470  15.030  17.809  0.00  0.00    +0.000 C 
ATOM      3  C   UNL     1       8.922  15.338  18.193  0.00  0.00    +0.000 C 
ATOM      4  C   UNL     1       9.368  15.490  19.450  0.00  0.00    +0.000 C 
ATOM      5  N   UNL     1      10.767  15.527  19.681  0.00  0.00    +0.000 N 
ATOM      6  C   UNL     1      11.362  16.259  20.797  0.00  0.00    +0.000 C 
ATOM      7  C   UNL     1      11.276  14.231  19.739  0.00  0.00    +0.000 C 
ATOM      8  O   UNL     1      12.333  13.890  19.224  0.00  0.00    +0.000 OA
ATOM      9  C   UNL     1      10.470  13.336  20.666  0.00  0.00    +0.000 C 
ATOM     10  C   UNL     1       9.187  13.935  21.344  0.00  0.00    +0.000 C 
ATOM     11  C   UNL     1       8.475  15.166  20.653  0.00  0.00    +0.000 C 
ATOM     12  C   UNL     1       8.375  16.429  21.568  0.00  0.00    +0.000 C 
ATOM     13  C   UNL     1       6.952  14.780  20.268  0.00  0.00    +0.000 C 
ATOM     14  C   UNL     1       5.954  14.969  21.432  0.00  0.00    +0.000 C 
ATOM     15  C   UNL     1       4.511  14.895  20.977  0.00  0.00    +0.000 C 
ATOM     16  C   UNL     1       4.137  15.934  19.905  0.00  0.00    +0.000 C 
ATOM     17  C   UNL     1       4.301  17.384  20.457  0.00  0.00    +0.000 C 
ATOM     18  C   UNL     1       5.076  15.883  18.659  0.00  0.00    +0.000 C 
ATOM     19  C   UNL     1       4.178  15.500  17.475  0.00  0.00    +0.000 C 
ATOM     20  C   UNL     1       2.829  16.139  17.897  0.00  0.00    +0.000 C 
ATOM     21  C   UNL     1       2.682  15.683  19.357  0.00  0.00    +0.000 C 
ATOM     22  C   UNL     1       2.101  14.253  19.382  0.00  0.00    +0.000 C 
ATOM     23  C   UNL     1       0.611  14.509  19.418  0.00  0.00    +0.000 C 
ATOM     24  C   UNL     1       0.550  15.698  20.344  0.00  0.00    +0.000 C 
ATOM     25  O   UNL     1       1.712  16.490  20.053  0.00  0.00    +0.000 OA
ATOM     26  C   UNL     1       6.563  15.529  18.955  0.00  0.00    +0.000 C 
ENDROOT
TORSDOF 0
ENDMDL
MODEL 9
REMARK VINA RESULT:      -5.6      6.065      8.415
REMARK  Name = 
REMARK  4 active torsions:
REMARK  status: ('A' for Active; 'I' for Inactive)
REMARK    1  A    between atoms: C_1  and  C_2
REMARK    2  A    between atoms: N_5  and  C_6
REMARK    3  A    between atoms: C_11  and  C_12
REMARK    4  A    between atoms: C_16  and  C_17
REMARK                            x       y       z     vdW  Elec       q    Type
REMARK                         _______ _______ _______ _____ _____    ______ ____
ROOT
ATOM      1  C   UNL     1      -1.165  16.973  18.893  0.00  0.00    +0.000 C 
ATOM      2  C   UNL     1      -0.747  16.460  20.284  0.00  0.00    +0.000 C 
ATOM      3  C   UNL     1       0.780  16.519  20.412  0.00  0.00    +0.000 C 
ATOM      4  C   UNL     1       1.603  15.467  20.275  0.00  0.00    +0.000 C 
ATOM      5  N   UNL     1       2.999  15.699  20.172  0.00  0.00    +0.000 N 
ATOM      6  C   UNL     1       3.993  14.727  20.621  0.00  0.00    +0.000 C 
ATOM      7  C   UNL     1       3.332  16.031  18.860  0.00  0.00    +0.000 C 
ATOM      8  O   UNL     1       4.130  16.910  18.562  0.00  0.00    +0.000 OA
ATOM      9  C   UNL     1       2.739  15.060  17.851  0.00  0.00    +0.000 C 
ATOM     10  C   UNL     1       1.811  13.912  18.384  0.00  0.00    +0.000 C 
ATOM     11  C   UNL     1       1.085  14.114  19.774  0.00  0.00    +0.000 C 
ATOM     12  C   UNL     1       1.431  13.015  20.829  0.00  0.00    +0.000 C 
ATOM     13  C   UNL     1      -0.519  14.047  19.576  0.00  0.00    +0.000 C 
ATOM     14  C   UNL     1      -1.082  12.608  19.591  0.00  0.00    +0.000 C 
ATOM     15  C   UNL     1      -2.593  12.578  19.707  0.00  0.00    +0.000 C 
ATOM     16  C   UNL     1      -3.140  13.276  20.964  0.00  0.00    +0.000 C 
ATOM     17  C   UNL     1      -2.633  12.568  22.258  0.00  0.00    +0.000 C 
ATOM     18  C   UNL     1      -2.639  14.748  21.105  0.00  0.00    +0.000 C 
ATOM     19  C   UNL     1      -3.896  15.625  21.030  0.00  0.00    +0.000 C 
ATOM     20  C   UNL     1      -4.959  14.687  21.659  0.00  0.00    +0.000 C 
ATOM     21  C   UNL     1      -4.712  13.359  20.927  0.00  0.00    +0.000 C 
ATOM     22  C   UNL     1      -5.435  13.392  19.563  0.00  0.00    +0.000 C 
ATOM     23  C   UNL     1      -6.797  12.833  19.904  0.00  0.00    +0.000 C 
ATOM     24  C   UNL     1      -6.422  11.749  20.883  0.00  0.00    +0.000 C 
ATOM     25  O   UNL     1      -5.313  12.259  21.638  0.00  0.00    +0.000 OA
ATOM     26  C   UNL     1      -1.191  15.014  20.601  0.00  0.00    +0.000 C 
ENDROOT
TORSDOF 0
ENDMDL
