MODEL 1
REMARK VINA RESULT:      -4.8      0.000      0.000
REMARK  Name = 
REMARK  20 active torsions:
REMARK  status: ('A' for Active; 'I' for Inactive)
REMARK    1  A    between atoms: C_1  and  C_2
REMARK    2  A    between atoms: C_2  and  O_3
REMARK    3  A    between atoms: O_3  and  C_4
REMARK    4  A    between atoms: C_4  and  C_6
REMARK    5  A    between atoms: C_6  and  C_7
REMARK    6  A    between atoms: C_7  and  O_9
REMARK    7  A    between atoms: O_9  and  C_10
REMARK    8  A    between atoms: C_10  and  C_11
REMARK    9  A    between atoms: N_13  and  C_14
REMARK   10  A    between atoms: C_20  and  C_21
REMARK   11  A    between atoms: C_21  and  O_23
REMARK   12  A    between atoms: O_23  and  C_24
REMARK   13  A    between atoms: C_25  and  C_26
REMARK   14  A    between atoms: C_25  and  C_31
REMARK   15  A    between atoms: C_26  and  O_28
REMARK   16  A    between atoms: O_28  and  C_29
REMARK   17  A    between atoms: C_29  and  C_30
REMARK   18  A    between atoms: C_31  and  O_33
REMARK   19  A    between atoms: O_33  and  C_34
REMARK   20  A    between atoms: C_34  and  C_35
REMARK                            x       y       z     vdW  Elec       q    Type
REMARK                         _______ _______ _______ _____ _____    ______ ____
ROOT
ATOM      1  C   UNL     1      -0.344  13.392  20.340  0.00  0.00    +0.000 C 
ATOM      2  C   UNL     1      -1.017  13.380  18.962  0.00  0.00    +0.000 C 
ATOM      3  N   UNL     1      -2.088  12.397  19.124  0.00  0.00    +0.000 N 
ATOM      4  C   UNL     1      -2.557  12.350  20.533  0.00  0.00    +0.000 C 
ATOM      5  C   UNL     1      -1.539  13.218  21.328  0.00  0.00    +0.000 C 
ENDROOT
BRANCH   3   6
ATOM      6  C   UNL     1      -2.443  11.490  18.148  0.00  0.00    +0.000 A 
ATOM      7  C   UNL     1      -3.064  10.268  18.451  0.00  0.00    +0.000 A 
ATOM      8  C   UNL     1      -3.379   9.325  17.464  0.00  0.00    +0.000 A 
ATOM      9  C   UNL     1      -3.102   9.595  16.133  0.00  0.00    +0.000 A 
ATOM     10  C   UNL     1      -2.526  10.811  15.792  0.00  0.00    +0.000 A 
ATOM     11  C   UNL     1      -2.205  11.743  16.788  0.00  0.00    +0.000 A 
ENDBRANCH   3   6
BRANCH   1  12
ATOM     12  C   UNL     1       0.405  14.699  20.529  0.00  0.00    +0.000 C 
ATOM     13  O   UNL     1       0.839  15.121  21.594  0.00  0.00    +0.000 OA
BRANCH  12  14
ATOM     14  O   UNL     1       0.429  15.396  19.362  0.00  0.00    +0.000 OA
BRANCH  14  16
ATOM     15  C   UNL     1       2.030  16.815  18.249  0.00  0.00    +0.000 C 
ATOM     16  C   UNL     1       1.035  16.694  19.392  0.00  0.00    +0.000 C 
ENDBRANCH  14  16
ENDBRANCH  12  14
ENDBRANCH   1  12
BRANCH   1  17
ATOM     17  C   UNL     1       0.721  12.307  20.259  0.00  0.00    +0.000 C 
ATOM     18  O   UNL     1       1.553  12.133  21.146  0.00  0.00    +0.000 OA
BRANCH  17  19
ATOM     19  O   UNL     1       0.740  11.626  19.083  0.00  0.00    +0.000 OA
BRANCH  19  20
ATOM     20  C   UNL     1       0.838  10.198  19.237  0.00  0.00    +0.000 C 
ATOM     21  C   UNL     1       1.214   9.531  17.924  0.00  0.00    +0.000 C 
ENDBRANCH  19  20
ENDBRANCH  17  19
ENDBRANCH   1  17
BRANCH   4  22
ATOM     22  C   UNL     1      -4.032  12.821  20.641  0.00  0.00    +0.000 C 
ATOM     23  O   UNL     1      -4.667  13.434  19.793  0.00  0.00    +0.000 OA
BRANCH  22  24
ATOM     24  O   UNL     1      -4.565  12.406  21.831  0.00  0.00    +0.000 OA
ATOM     25  C   UNL     1      -5.940  12.761  22.001  0.00  0.00    +0.000 C 
ENDBRANCH  22  24
ENDBRANCH   4  22
BRANCH   5  26
ATOM     26  C   UNL     1      -1.113  12.489  22.587  0.00  0.00    +0.000 C 
ATOM     27  O   UNL     1      -0.485  13.011  23.495  0.00  0.00    +0.000 OA
BRANCH  26  28
ATOM     28  O   UNL     1      -1.540  11.197  22.618  0.00  0.00    +0.000 OA
BRANCH  28  29
ATOM     29  C   UNL     1      -0.653  10.239  23.223  0.00  0.00    +0.000 C 
ATOM     30  C   UNL     1      -0.497   9.016  22.339  0.00  0.00    +0.000 C 
ENDBRANCH  28  29
ENDBRANCH  26  28
ENDBRANCH   5  26
BRANCH   5  31
ATOM     31  C   UNL     1      -2.129  14.578  21.637  0.00  0.00    +0.000 C 
ATOM     32  O   UNL     1      -2.379  15.404  20.766  0.00  0.00    +0.000 OA
BRANCH  31  33
ATOM     33  O   UNL     1      -2.320  14.810  22.960  0.00  0.00    +0.000 OA
BRANCH  33  34
ATOM     34  C   UNL     1      -3.193  15.912  23.274  0.00  0.00    +0.000 C 
ATOM     35  C   UNL     1      -4.388  15.428  24.077  0.00  0.00    +0.000 C 
ENDBRANCH  33  34
ENDBRANCH  31  33
ENDBRANCH   5  31
TORSDOF 15
ENDMDL
MODEL 2
REMARK VINA RESULT:      -4.6      0.778      1.071
REMARK  Name = 
REMARK  20 active torsions:
REMARK  status: ('A' for Active; 'I' for Inactive)
REMARK    1  A    between atoms: C_1  and  C_2
REMARK    2  A    between atoms: C_2  and  O_3
REMARK    3  A    between atoms: O_3  and  C_4
REMARK    4  A    between atoms: C_4  and  C_6
REMARK    5  A    between atoms: C_6  and  C_7
REMARK    6  A    between atoms: C_7  and  O_9
REMARK    7  A    between atoms: O_9  and  C_10
REMARK    8  A    between atoms: C_10  and  C_11
REMARK    9  A    between atoms: N_13  and  C_14
REMARK   10  A    between atoms: C_20  and  C_21
REMARK   11  A    between atoms: C_21  and  O_23
REMARK   12  A    between atoms: O_23  and  C_24
REMARK   13  A    between atoms: C_25  and  C_26
REMARK   14  A    between atoms: C_25  and  C_31
REMARK   15  A    between atoms: C_26  and  O_28
REMARK   16  A    between atoms: O_28  and  C_29
REMARK   17  A    between atoms: C_29  and  C_30
REMARK   18  A    between atoms: C_31  and  O_33
REMARK   19  A    between atoms: O_33  and  C_34
REMARK   20  A    between atoms: C_34  and  C_35
REMARK                            x       y       z     vdW  Elec       q    Type
REMARK                         _______ _______ _______ _____ _____    ______ ____
ROOT
ATOM      1  C   UNL     1      -0.385  13.434  20.383  0.00  0.00    +0.000 C 
ATOM      2  C   UNL     1      -1.063  13.417  19.007  0.00  0.00    +0.000 C 
ATOM      3  N   UNL     1      -2.120  12.420  19.170  0.00  0.00    +0.000 N 
ATOM      4  C   UNL     1      -2.584  12.363  20.581  0.00  0.00    +0.000 C 
ATOM      5  C   UNL     1      -1.574  13.243  21.374  0.00  0.00    +0.000 C 
ENDROOT
BRANCH   3   6
ATOM      6  C   UNL     1      -2.467  11.510  18.194  0.00  0.00    +0.000 A 
ATOM      7  C   UNL     1      -3.096  10.292  18.493  0.00  0.00    +0.000 A 
ATOM      8  C   UNL     1      -3.402   9.346  17.506  0.00  0.00    +0.000 A 
ATOM      9  C   UNL     1      -3.107   9.609  16.178  0.00  0.00    +0.000 A 
ATOM     10  C   UNL     1      -2.522  10.822  15.839  0.00  0.00    +0.000 A 
ATOM     11  C   UNL     1      -2.211  11.757  16.836  0.00  0.00    +0.000 A 
ENDBRANCH   3   6
BRANCH   1  12
ATOM     12  C   UNL     1       0.347  14.751  20.573  0.00  0.00    +0.000 C 
ATOM     13  O   UNL     1       0.739  15.197  21.644  0.00  0.00    +0.000 OA
BRANCH  12  14
ATOM     14  O   UNL     1       0.408  15.425  19.394  0.00  0.00    +0.000 OA
BRANCH  14  16
ATOM     15  C   UNL     1       0.035  17.521  18.260  0.00  0.00    +0.000 C 
ATOM     16  C   UNL     1       0.664  16.833  19.462  0.00  0.00    +0.000 C 
ENDBRANCH  14  16
ENDBRANCH  12  14
ENDBRANCH   1  12
BRANCH   1  17
ATOM     17  C   UNL     1       0.694  12.364  20.296  0.00  0.00    +0.000 C 
ATOM     18  O   UNL     1       1.532  12.199  21.179  0.00  0.00    +0.000 OA
BRANCH  17  19
ATOM     19  O   UNL     1       0.717  11.685  19.119  0.00  0.00    +0.000 OA
BRANCH  19  20
ATOM     20  C   UNL     1       0.848  10.259  19.270  0.00  0.00    +0.000 C 
ATOM     21  C   UNL     1       1.211   9.600  17.949  0.00  0.00    +0.000 C 
ENDBRANCH  19  20
ENDBRANCH  17  19
ENDBRANCH   1  17
BRANCH   4  22
ATOM     22  C   UNL     1      -4.065  12.814  20.695  0.00  0.00    +0.000 C 
ATOM     23  O   UNL     1      -4.704  13.441  19.860  0.00  0.00    +0.000 OA
BRANCH  22  24
ATOM     24  O   UNL     1      -4.597  12.363  21.872  0.00  0.00    +0.000 OA
ATOM     25  C   UNL     1      -5.659  13.179  22.372  0.00  0.00    +0.000 C 
ENDBRANCH  22  24
ENDBRANCH   4  22
BRANCH   5  26
ATOM     26  C   UNL     1      -1.135  12.516  22.630  0.00  0.00    +0.000 C 
ATOM     27  O   UNL     1      -0.522  13.047  23.544  0.00  0.00    +0.000 OA
BRANCH  26  28
ATOM     28  O   UNL     1      -1.531  11.214  22.652  0.00  0.00    +0.000 OA
BRANCH  28  29
ATOM     29  C   UNL     1      -0.611  10.270  23.229  0.00  0.00    +0.000 C 
ATOM     30  C   UNL     1      -0.446   9.059  22.328  0.00  0.00    +0.000 C 
ENDBRANCH  28  29
ENDBRANCH  26  28
ENDBRANCH   5  26
BRANCH   5  31
ATOM     31  C   UNL     1      -2.181  14.594  21.688  0.00  0.00    +0.000 C 
ATOM     32  O   UNL     1      -2.441  14.952  22.831  0.00  0.00    +0.000 OA
BRANCH  31  33
ATOM     33  O   UNL     1      -2.441  15.351  20.593  0.00  0.00    +0.000 OA
BRANCH  33  34
ATOM     34  C   UNL     1      -2.800  16.720  20.860  0.00  0.00    +0.000 C 
ATOM     35  C   UNL     1      -4.109  17.067  20.173  0.00  0.00    +0.000 C 
ENDBRANCH  33  34
ENDBRANCH  31  33
ENDBRANCH   5  31
TORSDOF 15
ENDMDL
MODEL 3
REMARK VINA RESULT:      -4.6      2.332      4.475
REMARK  Name = 
REMARK  20 active torsions:
REMARK  status: ('A' for Active; 'I' for Inactive)
REMARK    1  A    between atoms: C_1  and  C_2
REMARK    2  A    between atoms: C_2  and  O_3
REMARK    3  A    between atoms: O_3  and  C_4
REMARK    4  A    between atoms: C_4  and  C_6
REMARK    5  A    between atoms: C_6  and  C_7
REMARK    6  A    between atoms: C_7  and  O_9
REMARK    7  A    between atoms: O_9  and  C_10
REMARK    8  A    between atoms: C_10  and  C_11
REMARK    9  A    between atoms: N_13  and  C_14
REMARK   10  A    between atoms: C_20  and  C_21
REMARK   11  A    between atoms: C_21  and  O_23
REMARK   12  A    between atoms: O_23  and  C_24
REMARK   13  A    between atoms: C_25  and  C_26
REMARK   14  A    between atoms: C_25  and  C_31
REMARK   15  A    between atoms: C_26  and  O_28
REMARK   16  A    between atoms: O_28  and  C_29
REMARK   17  A    between atoms: C_29  and  C_30
REMARK   18  A    between atoms: C_31  and  O_33
REMARK   19  A    between atoms: O_33  and  C_34
REMARK   20  A    between atoms: C_34  and  C_35
REMARK                            x       y       z     vdW  Elec       q    Type
REMARK                         _______ _______ _______ _____ _____    ______ ____
ROOT
ATOM      1  C   UNL     1      -1.626  12.920  21.848  0.00  0.00    +0.000 C 
ATOM      2  C   UNL     1      -2.743  12.593  20.849  0.00  0.00    +0.000 C 
ATOM      3  N   UNL     1      -3.902  13.290  21.406  0.00  0.00    +0.000 N 
ATOM      4  C   UNL     1      -3.481  14.494  22.169  0.00  0.00    +0.000 C 
ATOM      5  C   UNL     1      -1.931  14.393  22.262  0.00  0.00    +0.000 C 
ENDROOT
BRANCH   3   6
ATOM      6  C   UNL     1      -5.177  12.767  21.408  0.00  0.00    +0.000 A 
ATOM      7  C   UNL     1      -5.718  12.107  20.293  0.00  0.00    +0.000 A 
ATOM      8  C   UNL     1      -7.032  11.621  20.277  0.00  0.00    +0.000 A 
ATOM      9  C   UNL     1      -7.837  11.760  21.397  0.00  0.00    +0.000 A 
ATOM     10  C   UNL     1      -7.322  12.371  22.533  0.00  0.00    +0.000 A 
ATOM     11  C   UNL     1      -6.010  12.863  22.534  0.00  0.00    +0.000 A 
ENDBRANCH   3   6
BRANCH   1  12
ATOM     12  C   UNL     1      -0.275  12.753  21.174  0.00  0.00    +0.000 C 
ATOM     13  O   UNL     1       0.787  13.191  21.597  0.00  0.00    +0.000 OA
BRANCH  12  14
ATOM     14  O   UNL     1      -0.428  12.143  19.969  0.00  0.00    +0.000 OA
BRANCH  14  16
ATOM     15  C   UNL     1       0.790  10.504  18.686  0.00  0.00    +0.000 C 
ATOM     16  C   UNL     1       0.756  11.939  19.189  0.00  0.00    +0.000 C 
ENDBRANCH  14  16
ENDBRANCH  12  14
ENDBRANCH   1  12
BRANCH   1  17
ATOM     17  C   UNL     1      -1.710  11.818  22.896  0.00  0.00    +0.000 C 
ATOM     18  O   UNL     1      -2.748  11.562  23.501  0.00  0.00    +0.000 OA
BRANCH  17  19
ATOM     19  O   UNL     1      -0.522  11.221  23.179  0.00  0.00    +0.000 OA
BRANCH  19  20
ATOM     20  C   UNL     1      -0.600   9.787  23.283  0.00  0.00    +0.000 C 
ATOM     21  C   UNL     1      -0.234   9.123  21.966  0.00  0.00    +0.000 C 
ENDBRANCH  19  20
ENDBRANCH  17  19
ENDBRANCH   1  17
BRANCH   4  22
ATOM     22  C   UNL     1      -4.006  15.788  21.493  0.00  0.00    +0.000 C 
ATOM     23  O   UNL     1      -4.441  15.893  20.354  0.00  0.00    +0.000 OA
BRANCH  22  24
ATOM     24  O   UNL     1      -3.963  16.827  22.383  0.00  0.00    +0.000 OA
ATOM     25  C   UNL     1      -4.511  18.045  21.874  0.00  0.00    +0.000 C 
ENDBRANCH  22  24
ENDBRANCH   4  22
BRANCH   5  26
ATOM     26  C   UNL     1      -1.481  14.672  23.683  0.00  0.00    +0.000 C 
ATOM     27  O   UNL     1      -0.311  14.785  24.015  0.00  0.00    +0.000 OA
BRANCH  26  28
ATOM     28  O   UNL     1      -2.522  14.824  24.545  0.00  0.00    +0.000 OA
BRANCH  28  29
ATOM     29  C   UNL     1      -2.263  15.582  25.741  0.00  0.00    +0.000 C 
ATOM     30  C   UNL     1      -2.457  17.066  25.489  0.00  0.00    +0.000 C 
ENDBRANCH  28  29
ENDBRANCH  26  28
ENDBRANCH   5  26
BRANCH   5  31
ATOM     31  C   UNL     1      -1.278  15.332  21.269  0.00  0.00    +0.000 C 
ATOM     32  O   UNL     1      -1.405  15.205  20.057  0.00  0.00    +0.000 OA
BRANCH  31  33
ATOM     33  O   UNL     1      -0.516  16.297  21.841  0.00  0.00    +0.000 OA
BRANCH  33  34
ATOM     34  C   UNL     1      -0.691  17.622  21.302  0.00  0.00    +0.000 C 
ATOM     35  C   UNL     1      -0.870  18.630  22.424  0.00  0.00    +0.000 C 
ENDBRANCH  33  34
ENDBRANCH  31  33
ENDBRANCH   5  31
TORSDOF 15
ENDMDL
MODEL 4
REMARK VINA RESULT:      -4.5      1.814      6.261
REMARK  Name = 
REMARK  20 active torsions:
REMARK  status: ('A' for Active; 'I' for Inactive)
REMARK    1  A    between atoms: C_1  and  C_2
REMARK    2  A    between atoms: C_2  and  O_3
REMARK    3  A    between atoms: O_3  and  C_4
REMARK    4  A    between atoms: C_4  and  C_6
REMARK    5  A    between atoms: C_6  and  C_7
REMARK    6  A    between atoms: C_7  and  O_9
REMARK    7  A    between atoms: O_9  and  C_10
REMARK    8  A    between atoms: C_10  and  C_11
REMARK    9  A    between atoms: N_13  and  C_14
REMARK   10  A    between atoms: C_20  and  C_21
REMARK   11  A    between atoms: C_21  and  O_23
REMARK   12  A    between atoms: O_23  and  C_24
REMARK   13  A    between atoms: C_25  and  C_26
REMARK   14  A    between atoms: C_25  and  C_31
REMARK   15  A    between atoms: C_26  and  O_28
REMARK   16  A    between atoms: O_28  and  C_29
REMARK   17  A    between atoms: C_29  and  C_30
REMARK   18  A    between atoms: C_31  and  O_33
REMARK   19  A    between atoms: O_33  and  C_34
REMARK   20  A    between atoms: C_34  and  C_35
REMARK                            x       y       z     vdW  Elec       q    Type
REMARK                         _______ _______ _______ _____ _____    ______ ____
ROOT
ATOM      1  C   UNL     1      -1.176  12.583  19.411  0.00  0.00    +0.000 C 
ATOM      2  C   UNL     1      -0.633  13.624  18.423  0.00  0.00    +0.000 C 
ATOM      3  N   UNL     1       0.247  14.444  19.255  0.00  0.00    +0.000 N 
ATOM      4  C   UNL     1       0.814  13.647  20.373  0.00  0.00    +0.000 C 
ATOM      5  C   UNL     1       0.044  12.295  20.340  0.00  0.00    +0.000 C 
ENDROOT
BRANCH   3   6
ATOM      6  C   UNL     1       0.347  15.814  19.138  0.00  0.00    +0.000 A 
ATOM      7  C   UNL     1      -0.366  16.537  18.169  0.00  0.00    +0.000 A 
ATOM      8  C   UNL     1      -0.226  17.923  18.018  0.00  0.00    +0.000 A 
ATOM      9  C   UNL     1       0.619  18.631  18.859  0.00  0.00    +0.000 A 
ATOM     10  C   UNL     1       1.309  17.954  19.855  0.00  0.00    +0.000 A 
ATOM     11  C   UNL     1       1.170  16.566  19.991  0.00  0.00    +0.000 A 
ENDBRANCH   3   6
BRANCH   1  12
ATOM     12  C   UNL     1      -1.653  11.359  18.650  0.00  0.00    +0.000 C 
ATOM     13  O   UNL     1      -1.738  10.226  19.110  0.00  0.00    +0.000 OA
BRANCH  12  14
ATOM     14  O   UNL     1      -1.866  11.675  17.346  0.00  0.00    +0.000 OA
BRANCH  14  16
ATOM     15  C   UNL     1      -2.727  10.222  15.623  0.00  0.00    +0.000 C 
ATOM     16  C   UNL     1      -3.073  11.187  16.747  0.00  0.00    +0.000 C 
ENDBRANCH  14  16
ENDBRANCH  12  14
ENDBRANCH   1  12
BRANCH   1  17
ATOM     17  C   UNL     1      -2.427  13.224  19.999  0.00  0.00    +0.000 C 
ATOM     18  O   UNL     1      -2.452  14.392  20.379  0.00  0.00    +0.000 OA
BRANCH  17  19
ATOM     19  O   UNL     1      -3.470  12.369  20.165  0.00  0.00    +0.000 OA
BRANCH  19  20
ATOM     20  C   UNL     1      -4.760  13.006  20.112  0.00  0.00    +0.000 C 
ATOM     21  C   UNL     1      -5.841  12.017  19.703  0.00  0.00    +0.000 C 
ENDBRANCH  19  20
ENDBRANCH  17  19
ENDBRANCH   1  17
BRANCH   4  22
ATOM     22  C   UNL     1       2.355  13.518  20.235  0.00  0.00    +0.000 C 
ATOM     23  O   UNL     1       3.004  13.596  19.200  0.00  0.00    +0.000 OA
BRANCH  22  24
ATOM     24  O   UNL     1       2.919  13.344  21.469  0.00  0.00    +0.000 OA
ATOM     25  C   UNL     1       4.037  14.200  21.717  0.00  0.00    +0.000 C 
ENDBRANCH  22  24
ENDBRANCH   4  22
BRANCH   5  26
ATOM     26  C   UNL     1      -0.403  11.924  21.740  0.00  0.00    +0.000 C 
ATOM     27  O   UNL     1      -0.886  10.840  22.034  0.00  0.00    +0.000 OA
BRANCH  26  28
ATOM     28  O   UNL     1      -0.174  12.911  22.647  0.00  0.00    +0.000 OA
BRANCH  28  29
ATOM     29  C   UNL     1      -1.304  13.347  23.424  0.00  0.00    +0.000 C 
ATOM     30  C   UNL     1      -1.190  14.823  23.761  0.00  0.00    +0.000 C 
ENDBRANCH  28  29
ENDBRANCH  26  28
ENDBRANCH   5  26
BRANCH   5  31
ATOM     31  C   UNL     1       0.898  11.213  19.715  0.00  0.00    +0.000 C 
ATOM     32  O   UNL     1       1.222  11.226  18.533  0.00  0.00    +0.000 OA
BRANCH  31  33
ATOM     33  O   UNL     1       1.240  10.217  20.570  0.00  0.00    +0.000 OA
BRANCH  33  34
ATOM     34  C   UNL     1       1.302   8.899  19.990  0.00  0.00    +0.000 C 
ATOM     35  C   UNL     1       1.262   7.840  21.078  0.00  0.00    +0.000 C 
ENDBRANCH  33  34
ENDBRANCH  31  33
ENDBRANCH   5  31
TORSDOF 15
ENDMDL
MODEL 5
REMARK VINA RESULT:      -4.5      1.931      4.320
REMARK  Name = 
REMARK  20 active torsions:
REMARK  status: ('A' for Active; 'I' for Inactive)
REMARK    1  A    between atoms: C_1  and  C_2
REMARK    2  A    between atoms: C_2  and  O_3
REMARK    3  A    between atoms: O_3  and  C_4
REMARK    4  A    between atoms: C_4  and  C_6
REMARK    5  A    between atoms: C_6  and  C_7
REMARK    6  A    between atoms: C_7  and  O_9
REMARK    7  A    between atoms: O_9  and  C_10
REMARK    8  A    between atoms: C_10  and  C_11
REMARK    9  A    between atoms: N_13  and  C_14
REMARK   10  A    between atoms: C_20  and  C_21
REMARK   11  A    between atoms: C_21  and  O_23
REMARK   12  A    between atoms: O_23  and  C_24
REMARK   13  A    between atoms: C_25  and  C_26
REMARK   14  A    between atoms: C_25  and  C_31
REMARK   15  A    between atoms: C_26  and  O_28
REMARK   16  A    between atoms: O_28  and  C_29
REMARK   17  A    between atoms: C_29  and  C_30
REMARK   18  A    between atoms: C_31  and  O_33
REMARK   19  A    between atoms: O_33  and  C_34
REMARK   20  A    between atoms: C_34  and  C_35
REMARK                            x       y       z     vdW  Elec       q    Type
REMARK                         _______ _______ _______ _____ _____    ______ ____
ROOT
ATOM      1  C   UNL     1      -1.786  15.347  21.339  0.00  0.00    +0.000 C 
ATOM      2  C   UNL     1      -2.912  14.451  20.806  0.00  0.00    +0.000 C 
ATOM      3  N   UNL     1      -2.293  13.128  20.764  0.00  0.00    +0.000 N 
ATOM      4  C   UNL     1      -1.241  13.000  21.806  0.00  0.00    +0.000 C 
ATOM      5  C   UNL     1      -1.063  14.436  22.379  0.00  0.00    +0.000 C 
ENDROOT
BRANCH   3   6
ATOM      6  C   UNL     1      -2.506  12.218  19.750  0.00  0.00    +0.000 A 
ATOM      7  C   UNL     1      -1.484  11.391  19.258  0.00  0.00    +0.000 A 
ATOM      8  C   UNL     1      -1.689  10.504  18.193  0.00  0.00    +0.000 A 
ATOM      9  C   UNL     1      -2.940  10.402  17.605  0.00  0.00    +0.000 A 
ATOM     10  C   UNL     1      -3.985  11.175  18.093  0.00  0.00    +0.000 A 
ATOM     11  C   UNL     1      -3.767  12.067  19.151  0.00  0.00    +0.000 A 
ENDBRANCH   3   6
BRANCH   1  12
ATOM     12  C   UNL     1      -2.381  16.602  21.953  0.00  0.00    +0.000 C 
ATOM     13  O   UNL     1      -1.810  17.346  22.741  0.00  0.00    +0.000 OA
BRANCH  12  14
ATOM     14  O   UNL     1      -3.685  16.725  21.590  0.00  0.00    +0.000 OA
BRANCH  14  16
ATOM     15  C   UNL     1      -5.752  16.521  22.816  0.00  0.00    +0.000 C 
ATOM     16  C   UNL     1      -4.554  17.404  22.505  0.00  0.00    +0.000 C 
ENDBRANCH  14  16
ENDBRANCH  12  14
ENDBRANCH   1  12
BRANCH   1  17
ATOM     17  C   UNL     1      -1.034  15.804  20.096  0.00  0.00    +0.000 C 
ATOM     18  O   UNL     1      -0.692  15.025  19.210  0.00  0.00    +0.000 OA
BRANCH  17  19
ATOM     19  O   UNL     1      -0.682  17.116  20.104  0.00  0.00    +0.000 OA
BRANCH  19  20
ATOM     20  C   UNL     1       0.465  17.418  19.289  0.00  0.00    +0.000 C 
ATOM     21  C   UNL     1       1.671  17.761  20.148  0.00  0.00    +0.000 C 
ENDBRANCH  19  20
ENDBRANCH  17  19
ENDBRANCH   1  17
BRANCH   4  22
ATOM     22  C   UNL     1      -1.631  11.927  22.857  0.00  0.00    +0.000 C 
ATOM     23  O   UNL     1      -2.764  11.639  23.221  0.00  0.00    +0.000 OA
BRANCH  22  24
ATOM     24  O   UNL     1      -0.508  11.290  23.309  0.00  0.00    +0.000 OA
ATOM     25  C   UNL     1      -0.539   9.872  23.130  0.00  0.00    +0.000 C 
ENDBRANCH  22  24
ENDBRANCH   4  22
BRANCH   5  26
ATOM     26  C   UNL     1       0.413  14.772  22.475  0.00  0.00    +0.000 C 
ATOM     27  O   UNL     1       0.844  15.801  22.973  0.00  0.00    +0.000 OA
BRANCH  26  28
ATOM     28  O   UNL     1       1.211  13.786  21.984  0.00  0.00    +0.000 OA
BRANCH  28  29
ATOM     29  C   UNL     1       2.248  14.192  21.071  0.00  0.00    +0.000 C 
ATOM     30  C   UNL     1       2.244  13.319  19.830  0.00  0.00    +0.000 C 
ENDBRANCH  28  29
ENDBRANCH  26  28
ENDBRANCH   5  26
BRANCH   5  31
ATOM     31  C   UNL     1      -1.758  14.563  23.718  0.00  0.00    +0.000 C 
ATOM     32  O   UNL     1      -2.976  14.497  23.840  0.00  0.00    +0.000 OA
BRANCH  31  33
ATOM     33  O   UNL     1      -0.917  14.790  24.758  0.00  0.00    +0.000 OA
BRANCH  33  34
ATOM     34  C   UNL     1      -1.482  15.527  25.859  0.00  0.00    +0.000 C 
ATOM     35  C   UNL     1      -0.517  16.604  26.325  0.00  0.00    +0.000 C 
ENDBRANCH  33  34
ENDBRANCH  31  33
ENDBRANCH   5  31
TORSDOF 15
ENDMDL
MODEL 6
REMARK VINA RESULT:      -4.5      7.386     10.659
REMARK  Name = 
REMARK  20 active torsions:
REMARK  status: ('A' for Active; 'I' for Inactive)
REMARK    1  A    between atoms: C_1  and  C_2
REMARK    2  A    between atoms: C_2  and  O_3
REMARK    3  A    between atoms: O_3  and  C_4
REMARK    4  A    between atoms: C_4  and  C_6
REMARK    5  A    between atoms: C_6  and  C_7
REMARK    6  A    between atoms: C_7  and  O_9
REMARK    7  A    between atoms: O_9  and  C_10
REMARK    8  A    between atoms: C_10  and  C_11
REMARK    9  A    between atoms: N_13  and  C_14
REMARK   10  A    between atoms: C_20  and  C_21
REMARK   11  A    between atoms: C_21  and  O_23
REMARK   12  A    between atoms: O_23  and  C_24
REMARK   13  A    between atoms: C_25  and  C_26
REMARK   14  A    between atoms: C_25  and  C_31
REMARK   15  A    between atoms: C_26  and  O_28
REMARK   16  A    between atoms: O_28  and  C_29
REMARK   17  A    between atoms: C_29  and  C_30
REMARK   18  A    between atoms: C_31  and  O_33
REMARK   19  A    between atoms: O_33  and  C_34
REMARK   20  A    between atoms: C_34  and  C_35
REMARK                            x       y       z     vdW  Elec       q    Type
REMARK                         _______ _______ _______ _____ _____    ______ ____
ROOT
ATOM      1  C   UNL     1       7.181  16.036  19.202  0.00  0.00    +0.000 C 
ATOM      2  C   UNL     1       7.479  14.572  18.853  0.00  0.00    +0.000 C 
ATOM      3  N   UNL     1       8.552  14.221  19.784  0.00  0.00    +0.000 N 
ATOM      4  C   UNL     1       8.448  15.012  21.037  0.00  0.00    +0.000 C 
ATOM      5  C   UNL     1       7.353  16.081  20.752  0.00  0.00    +0.000 C 
ENDROOT
BRANCH   3   6
ATOM      6  C   UNL     1       9.630  13.433  19.441  0.00  0.00    +0.000 A 
ATOM      7  C   UNL     1       9.545  12.430  18.462  0.00  0.00    +0.000 A 
ATOM      8  C   UNL     1      10.626  11.597  18.150  0.00  0.00    +0.000 A 
ATOM      9  C   UNL     1      11.841  11.764  18.797  0.00  0.00    +0.000 A 
ATOM     10  C   UNL     1      11.975  12.773  19.742  0.00  0.00    +0.000 A 
ATOM     11  C   UNL     1      10.883  13.594  20.054  0.00  0.00    +0.000 A 
ENDBRANCH   3   6
BRANCH   1  12
ATOM     12  C   UNL     1       5.778  16.392  18.744  0.00  0.00    +0.000 C 
ATOM     13  O   UNL     1       5.159  17.398  19.069  0.00  0.00    +0.000 OA
BRANCH  12  14
ATOM     14  O   UNL     1       5.257  15.377  18.006  0.00  0.00    +0.000 OA
BRANCH  14  16
ATOM     15  C   UNL     1       3.140  14.250  18.266  0.00  0.00    +0.000 C 
ATOM     16  C   UNL     1       3.862  15.455  17.684  0.00  0.00    +0.000 C 
ENDBRANCH  14  16
ENDBRANCH  12  14
ENDBRANCH   1  12
BRANCH   1  17
ATOM     17  C   UNL     1       8.126  16.843  18.322  0.00  0.00    +0.000 C 
ATOM     18  O   UNL     1       8.089  18.070  18.268  0.00  0.00    +0.000 OA
BRANCH  17  19
ATOM     19  O   UNL     1       8.933  16.091  17.528  0.00  0.00    +0.000 OA
BRANCH  19  20
ATOM     20  C   UNL     1      10.276  16.597  17.415  0.00  0.00    +0.000 C 
ATOM     21  C   UNL     1      11.213  15.540  16.854  0.00  0.00    +0.000 C 
ENDBRANCH  19  20
ENDBRANCH  17  19
ENDBRANCH   1  17
BRANCH   4  22
ATOM     22  C   UNL     1       8.152  14.090  22.250  0.00  0.00    +0.000 C 
ATOM     23  O   UNL     1       8.159  14.411  23.431  0.00  0.00    +0.000 OA
BRANCH  22  24
ATOM     24  O   UNL     1       7.826  12.836  21.811  0.00  0.00    +0.000 OA
ATOM     25  C   UNL     1       8.186  11.795  22.722  0.00  0.00    +0.000 C 
ENDBRANCH  22  24
ENDBRANCH   4  22
BRANCH   5  26
ATOM     26  C   UNL     1       7.831  17.443  21.215  0.00  0.00    +0.000 C 
ATOM     27  O   UNL     1       7.130  18.444  21.218  0.00  0.00    +0.000 OA
BRANCH  26  28
ATOM     28  O   UNL     1       9.113  17.426  21.668  0.00  0.00    +0.000 OA
BRANCH  28  29
ATOM     29  C   UNL     1       9.427  18.323  22.749  0.00  0.00    +0.000 C 
ATOM     30  C   UNL     1       9.055  17.707  24.085  0.00  0.00    +0.000 C 
ENDBRANCH  28  29
ENDBRANCH  26  28
ENDBRANCH   5  26
BRANCH   5  31
ATOM     31  C   UNL     1       6.045  15.689  21.407  0.00  0.00    +0.000 C 
ATOM     32  O   UNL     1       5.382  14.728  21.036  0.00  0.00    +0.000 OA
BRANCH  31  33
ATOM     33  O   UNL     1       5.663  16.514  22.413  0.00  0.00    +0.000 OA
BRANCH  33  34
ATOM     34  C   UNL     1       4.245  16.571  22.660  0.00  0.00    +0.000 C 
ATOM     35  C   UNL     1       3.680  17.903  22.198  0.00  0.00    +0.000 C 
ENDBRANCH  33  34
ENDBRANCH  31  33
ENDBRANCH   5  31
TORSDOF 15
ENDMDL
MODEL 7
REMARK VINA RESULT:      -4.4      2.282      4.403
REMARK  Name = 
REMARK  20 active torsions:
REMARK  status: ('A' for Active; 'I' for Inactive)
REMARK    1  A    between atoms: C_1  and  C_2
REMARK    2  A    between atoms: C_2  and  O_3
REMARK    3  A    between atoms: O_3  and  C_4
REMARK    4  A    between atoms: C_4  and  C_6
REMARK    5  A    between atoms: C_6  and  C_7
REMARK    6  A    between atoms: C_7  and  O_9
REMARK    7  A    between atoms: O_9  and  C_10
REMARK    8  A    between atoms: C_10  and  C_11
REMARK    9  A    between atoms: N_13  and  C_14
REMARK   10  A    between atoms: C_20  and  C_21
REMARK   11  A    between atoms: C_21  and  O_23
REMARK   12  A    between atoms: O_23  and  C_24
REMARK   13  A    between atoms: C_25  and  C_26
REMARK   14  A    between atoms: C_25  and  C_31
REMARK   15  A    between atoms: C_26  and  O_28
REMARK   16  A    between atoms: O_28  and  C_29
REMARK   17  A    between atoms: C_29  and  C_30
REMARK   18  A    between atoms: C_31  and  O_33
REMARK   19  A    between atoms: O_33  and  C_34
REMARK   20  A    between atoms: C_34  and  C_35
REMARK                            x       y       z     vdW  Elec       q    Type
REMARK                         _______ _______ _______ _____ _____    ______ ____
ROOT
ATOM      1  C   UNL     1      -1.468  13.150  21.797  0.00  0.00    +0.000 C 
ATOM      2  C   UNL     1      -2.418  12.793  20.646  0.00  0.00    +0.000 C 
ATOM      3  N   UNL     1      -3.672  13.435  21.040  0.00  0.00    +0.000 N 
ATOM      4  C   UNL     1      -3.414  14.644  21.864  0.00  0.00    +0.000 C 
ATOM      5  C   UNL     1      -1.889  14.604  22.175  0.00  0.00    +0.000 C 
ENDROOT
BRANCH   3   6
ATOM      6  C   UNL     1      -4.912  12.861  20.857  0.00  0.00    +0.000 A 
ATOM      7  C   UNL     1      -5.305  12.301  19.631  0.00  0.00    +0.000 A 
ATOM      8  C   UNL     1      -6.583  11.764  19.431  0.00  0.00    +0.000 A 
ATOM      9  C   UNL     1      -7.501  11.750  20.469  0.00  0.00    +0.000 A 
ATOM     10  C   UNL     1      -7.134  12.258  21.708  0.00  0.00    +0.000 A 
ATOM     11  C   UNL     1      -5.856  12.803  21.894  0.00  0.00    +0.000 A 
ENDBRANCH   3   6
BRANCH   1  12
ATOM     12  C   UNL     1      -0.030  13.048  21.319  0.00  0.00    +0.000 C 
ATOM     13  O   UNL     1       0.940  13.545  21.877  0.00  0.00    +0.000 OA
BRANCH  12  14
ATOM     14  O   UNL     1       0.017  12.417  20.115  0.00  0.00    +0.000 OA
BRANCH  14  16
ATOM     15  C   UNL     1       1.835  12.651  18.548  0.00  0.00    +0.000 C 
ATOM     16  C   UNL     1       1.278  11.861  19.722  0.00  0.00    +0.000 C 
ENDBRANCH  14  16
ENDBRANCH  12  14
ENDBRANCH   1  12
BRANCH   1  17
ATOM     17  C   UNL     1      -1.653  12.032  22.813  0.00  0.00    +0.000 C 
ATOM     18  O   UNL     1      -2.735  11.797  23.345  0.00  0.00    +0.000 OA
BRANCH  17  19
ATOM     19  O   UNL     1      -0.504  11.392  23.158  0.00  0.00    +0.000 OA
BRANCH  19  20
ATOM     20  C   UNL     1      -0.605   9.956  23.129  0.00  0.00    +0.000 C 
ATOM     21  C   UNL     1       0.623   9.335  22.482  0.00  0.00    +0.000 C 
ENDBRANCH  19  20
ENDBRANCH  17  19
ENDBRANCH   1  17
BRANCH   4  22
ATOM     22  C   UNL     1      -3.892  15.926  21.132  0.00  0.00    +0.000 C 
ATOM     23  O   UNL     1      -4.304  15.999  19.981  0.00  0.00    +0.000 OA
BRANCH  22  24
ATOM     24  O   UNL     1      -3.836  16.995  21.983  0.00  0.00    +0.000 OA
ATOM     25  C   UNL     1      -4.926  17.908  21.834  0.00  0.00    +0.000 C 
ENDBRANCH  22  24
ENDBRANCH   4  22
BRANCH   5  26
ATOM     26  C   UNL     1      -1.656  14.881  23.647  0.00  0.00    +0.000 C 
ATOM     27  O   UNL     1      -0.548  14.979  24.153  0.00  0.00    +0.000 OA
BRANCH  26  28
ATOM     28  O   UNL     1      -2.814  15.050  24.341  0.00  0.00    +0.000 OA
BRANCH  28  29
ATOM     29  C   UNL     1      -2.848  16.139  25.282  0.00  0.00    +0.000 C 
ATOM     30  C   UNL     1      -4.186  16.854  25.231  0.00  0.00    +0.000 C 
ENDBRANCH  28  29
ENDBRANCH  26  28
ENDBRANCH   5  26
BRANCH   5  31
ATOM     31  C   UNL     1      -1.142  15.582  21.292  0.00  0.00    +0.000 C 
ATOM     32  O   UNL     1      -0.516  16.535  21.743  0.00  0.00    +0.000 OA
BRANCH  31  33
ATOM     33  O   UNL     1      -1.259  15.329  19.965  0.00  0.00    +0.000 OA
BRANCH  33  34
ATOM     34  C   UNL     1      -0.259  15.942  19.129  0.00  0.00    +0.000 C 
ATOM     35  C   UNL     1      -0.845  17.131  18.388  0.00  0.00    +0.000 C 
ENDBRANCH  33  34
ENDBRANCH  31  33
ENDBRANCH   5  31
TORSDOF 15
ENDMDL
MODEL 8
REMARK VINA RESULT:      -4.4      7.678     11.004
REMARK  Name = 
REMARK  20 active torsions:
REMARK  status: ('A' for Active; 'I' for Inactive)
REMARK    1  A    between atoms: C_1  and  C_2
REMARK    2  A    between atoms: C_2  and  O_3
REMARK    3  A    between atoms: O_3  and  C_4
REMARK    4  A    between atoms: C_4  and  C_6
REMARK    5  A    between atoms: C_6  and  C_7
REMARK    6  A    between atoms: C_7  and  O_9
REMARK    7  A    between atoms: O_9  and  C_10
REMARK    8  A    between atoms: C_10  and  C_11
REMARK    9  A    between atoms: N_13  and  C_14
REMARK   10  A    between atoms: C_20  and  C_21
REMARK   11  A    between atoms: C_21  and  O_23
REMARK   12  A    between atoms: O_23  and  C_24
REMARK   13  A    between atoms: C_25  and  C_26
REMARK   14  A    between atoms: C_25  and  C_31
REMARK   15  A    between atoms: C_26  and  O_28
REMARK   16  A    between atoms: O_28  and  C_29
REMARK   17  A    between atoms: C_29  and  C_30
REMARK   18  A    between atoms: C_31  and  O_33
REMARK   19  A    between atoms: O_33  and  C_34
REMARK   20  A    between atoms: C_34  and  C_35
REMARK                            x       y       z     vdW  Elec       q    Type
REMARK                         _______ _______ _______ _____ _____    ______ ____
ROOT
ATOM      1  C   UNL     1       7.478  16.220  19.298  0.00  0.00    +0.000 C 
ATOM      2  C   UNL     1       7.597  14.730  18.949  0.00  0.00    +0.000 C 
ATOM      3  N   UNL     1       8.708  14.280  19.786  0.00  0.00    +0.000 N 
ATOM      4  C   UNL     1       8.796  15.087  21.031  0.00  0.00    +0.000 C 
ATOM      5  C   UNL     1       7.792  16.258  20.826  0.00  0.00    +0.000 C 
ENDROOT
BRANCH   3   6
ATOM      6  C   UNL     1       9.668  13.385  19.362  0.00  0.00    +0.000 A 
ATOM      7  C   UNL     1      10.918  13.274  19.990  0.00  0.00    +0.000 A 
ATOM      8  C   UNL     1      11.911  12.401  19.527  0.00  0.00    +0.000 A 
ATOM      9  C   UNL     1      11.666  11.589  18.430  0.00  0.00    +0.000 A 
ATOM     10  C   UNL     1      10.426  11.643  17.809  0.00  0.00    +0.000 A 
ATOM     11  C   UNL     1       9.443  12.528  18.273  0.00  0.00    +0.000 A 
ENDBRANCH   3   6
BRANCH   1  12
ATOM     12  C   UNL     1       6.082  16.712  18.960  0.00  0.00    +0.000 C 
ATOM     13  O   UNL     1       5.594  17.772  19.331  0.00  0.00    +0.000 OA
BRANCH  12  14
ATOM     14  O   UNL     1       5.403  15.753  18.276  0.00  0.00    +0.000 OA
BRANCH  14  16
ATOM     15  C   UNL     1       3.308  16.239  17.184  0.00  0.00    +0.000 C 
ATOM     16  C   UNL     1       3.980  15.719  18.445  0.00  0.00    +0.000 C 
ENDBRANCH  14  16
ENDBRANCH  12  14
ENDBRANCH   1  12
BRANCH   1  17
ATOM     17  C   UNL     1       8.417  16.921  18.326  0.00  0.00    +0.000 C 
ATOM     18  O   UNL     1       8.454  18.143  18.212  0.00  0.00    +0.000 OA
BRANCH  17  19
ATOM     19  O   UNL     1       9.125  16.082  17.525  0.00  0.00    +0.000 OA
BRANCH  19  20
ATOM     20  C   UNL     1      10.374  16.629  17.064  0.00  0.00    +0.000 C 
ATOM     21  C   UNL     1      11.500  16.315  18.036  0.00  0.00    +0.000 C 
ENDBRANCH  19  20
ENDBRANCH  17  19
ENDBRANCH   1  17
BRANCH   4  22
ATOM     22  C   UNL     1       8.520  14.208  22.280  0.00  0.00    +0.000 C 
ATOM     23  O   UNL     1       8.718  14.515  23.448  0.00  0.00    +0.000 OA
BRANCH  22  24
ATOM     24  O   UNL     1       7.962  13.019  21.896  0.00  0.00    +0.000 OA
ATOM     25  C   UNL     1       8.295  11.924  22.753  0.00  0.00    +0.000 C 
ENDBRANCH  22  24
ENDBRANCH   4  22
BRANCH   5  26
ATOM     26  C   UNL     1       8.442  17.568  21.224  0.00  0.00    +0.000 C 
ATOM     27  O   UNL     1       7.842  18.631  21.295  0.00  0.00    +0.000 OA
BRANCH  26  28
ATOM     28  O   UNL     1       9.760  17.431  21.532  0.00  0.00    +0.000 OA
BRANCH  28  29
ATOM     29  C   UNL     1      10.646  18.457  21.048  0.00  0.00    +0.000 C 
ATOM     30  C   UNL     1      12.094  18.088  21.313  0.00  0.00    +0.000 C 
ENDBRANCH  28  29
ENDBRANCH  26  28
ENDBRANCH   5  26
BRANCH   5  31
ATOM     31  C   UNL     1       6.516  16.004  21.601  0.00  0.00    +0.000 C 
ATOM     32  O   UNL     1       5.753  15.083  21.334  0.00  0.00    +0.000 OA
BRANCH  31  33
ATOM     33  O   UNL     1       6.280  16.905  22.587  0.00  0.00    +0.000 OA
BRANCH  33  34
ATOM     34  C   UNL     1       4.894  17.234  22.804  0.00  0.00    +0.000 C 
ATOM     35  C   UNL     1       4.507  16.966  24.248  0.00  0.00    +0.000 C 
ENDBRANCH  33  34
ENDBRANCH  31  33
ENDBRANCH   5  31
TORSDOF 15
ENDMDL
MODEL 9
REMARK VINA RESULT:      -4.4      1.709      2.602
REMARK  Name = 
REMARK  20 active torsions:
REMARK  status: ('A' for Active; 'I' for Inactive)
REMARK    1  A    between atoms: C_1  and  C_2
REMARK    2  A    between atoms: C_2  and  O_3
REMARK    3  A    between atoms: O_3  and  C_4
REMARK    4  A    between atoms: C_4  and  C_6
REMARK    5  A    between atoms: C_6  and  C_7
REMARK    6  A    between atoms: C_7  and  O_9
REMARK    7  A    between atoms: O_9  and  C_10
REMARK    8  A    between atoms: C_10  and  C_11
REMARK    9  A    between atoms: N_13  and  C_14
REMARK   10  A    between atoms: C_20  and  C_21
REMARK   11  A    between atoms: C_21  and  O_23
REMARK   12  A    between atoms: O_23  and  C_24
REMARK   13  A    between atoms: C_25  and  C_26
REMARK   14  A    between atoms: C_25  and  C_31
REMARK   15  A    between atoms: C_26  and  O_28
REMARK   16  A    between atoms: O_28  and  C_29
REMARK   17  A    between atoms: C_29  and  C_30
REMARK   18  A    between atoms: C_31  and  O_33
REMARK   19  A    between atoms: O_33  and  C_34
REMARK   20  A    between atoms: C_34  and  C_35
REMARK                            x       y       z     vdW  Elec       q    Type
REMARK                         _______ _______ _______ _____ _____    ______ ____
ROOT
ATOM      1  C   UNL     1      -0.404  12.143  20.203  0.00  0.00    +0.000 C 
ATOM      2  C   UNL     1      -1.428  12.871  19.321  0.00  0.00    +0.000 C 
ATOM      3  N   UNL     1      -2.708  12.494  19.918  0.00  0.00    +0.000 N 
ATOM      4  C   UNL     1      -2.559  12.231  21.373  0.00  0.00    +0.000 C 
ATOM      5  C   UNL     1      -1.024  12.240  21.631  0.00  0.00    +0.000 C 
ENDROOT
BRANCH   3   6
ATOM      6  C   UNL     1      -3.837  12.205  19.181  0.00  0.00    +0.000 A 
ATOM      7  C   UNL     1      -3.772  11.581  17.925  0.00  0.00    +0.000 A 
ATOM      8  C   UNL     1      -4.915  11.333  17.154  0.00  0.00    +0.000 A 
ATOM      9  C   UNL     1      -6.167  11.684  17.636  0.00  0.00    +0.000 A 
ATOM     10  C   UNL     1      -6.273  12.266  18.892  0.00  0.00    +0.000 A 
ATOM     11  C   UNL     1      -5.122  12.518  19.651  0.00  0.00    +0.000 A 
ENDBRANCH   3   6
BRANCH   1  12
ATOM     12  C   UNL     1       0.946  12.829  20.088  0.00  0.00    +0.000 C 
ATOM     13  O   UNL     1       1.863  12.730  20.893  0.00  0.00    +0.000 OA
BRANCH  12  14
ATOM     14  O   UNL     1       0.953  13.665  19.016  0.00  0.00    +0.000 OA
BRANCH  14  16
ATOM     15  C   UNL     1       2.680  15.195  18.310  0.00  0.00    +0.000 C 
ATOM     16  C   UNL     1       2.176  13.760  18.274  0.00  0.00    +0.000 C 
ENDBRANCH  14  16
ENDBRANCH  12  14
ENDBRANCH   1  12
BRANCH   1  17
ATOM     17  C   UNL     1      -0.237  10.777  19.553  0.00  0.00    +0.000 C 
ATOM     18  O   UNL     1      -1.121   9.924  19.574  0.00  0.00    +0.000 OA
BRANCH  17  19
ATOM     19  O   UNL     1       1.004  10.544  19.048  0.00  0.00    +0.000 OA
BRANCH  19  20
ATOM     20  C   UNL     1       1.023   9.601  17.960  0.00  0.00    +0.000 C 
ATOM     21  C   UNL     1       2.283   8.751  17.996  0.00  0.00    +0.000 C 
ENDBRANCH  19  20
ENDBRANCH  17  19
ENDBRANCH   1  17
BRANCH   4  22
ATOM     22  C   UNL     1      -3.362  13.266  22.207  0.00  0.00    +0.000 C 
ATOM     23  O   UNL     1      -3.655  14.405  21.870  0.00  0.00    +0.000 OA
BRANCH  22  24
ATOM     24  O   UNL     1      -3.753  12.704  23.391  0.00  0.00    +0.000 OA
ATOM     25  C   UNL     1      -5.079  13.061  23.787  0.00  0.00    +0.000 C 
ENDBRANCH  22  24
ENDBRANCH   4  22
BRANCH   5  26
ATOM     26  C   UNL     1      -0.639  11.046  22.482  0.00  0.00    +0.000 C 
ATOM     27  O   UNL     1      -1.413  10.467  23.231  0.00  0.00    +0.000 OA
BRANCH  26  28
ATOM     28  O   UNL     1       0.652  10.659  22.296  0.00  0.00    +0.000 OA
BRANCH  28  29
ATOM     29  C   UNL     1       1.010   9.354  22.783  0.00  0.00    +0.000 C 
ATOM     30  C   UNL     1       1.287   8.405  21.631  0.00  0.00    +0.000 C 
ENDBRANCH  28  29
ENDBRANCH  26  28
ENDBRANCH   5  26
BRANCH   5  31
ATOM     31  C   UNL     1      -0.601  13.547  22.269  0.00  0.00    +0.000 C 
ATOM     32  O   UNL     1      -0.229  13.624  23.434  0.00  0.00    +0.000 OA
BRANCH  31  33
ATOM     33  O   UNL     1      -0.704  14.621  21.447  0.00  0.00    +0.000 OA
BRANCH  33  34
ATOM     34  C   UNL     1      -0.141  15.845  21.957  0.00  0.00    +0.000 C 
ATOM     35  C   UNL     1       0.265  16.758  20.814  0.00  0.00    +0.000 C 
ENDBRANCH  33  34
ENDBRANCH  31  33
ENDBRANCH   5  31
TORSDOF 15
ENDMDL
