MODEL 1
REMARK VINA RESULT:      -6.7      0.000      0.000
REMARK  Name = 
REMARK  12 active torsions:
REMARK  status: ('A' for Active; 'I' for Inactive)
REMARK    1  A    between atoms: C_1  and  O_2
REMARK    2  A    between atoms: O_2  and  C_3
REMARK    3  A    between atoms: C_6  and  C_7
REMARK    4  A    between atoms: C_7  and  C_8
REMARK    5  A    between atoms: C_7  and  N_9
REMARK    6  A    between atoms: N_9  and  C_10
REMARK    7  A    between atoms: N_9  and  C_11
REMARK    8  A    between atoms: C_11  and  C_12
REMARK    9  A    between atoms: C_12  and  N_13
REMARK   10  A    between atoms: C_17  and  C_18
REMARK   11  A    between atoms: C_19  and  O_20
REMARK   12  A    between atoms: O_20  and  C_21
REMARK                            x       y       z     vdW  Elec       q    Type
REMARK                         _______ _______ _______ _____ _____    ______ ____
ROOT
ATOM      1  C   UNL     1       4.081   3.963  18.936  0.00  0.00    +0.000 C 
ATOM      2  C   UNL     1       4.372   2.527  19.410  0.00  0.00    +0.000 C 
ENDROOT
BRANCH   1   6
ATOM      3  C   UNL     1       6.824   4.922  15.683  0.00  0.00    +0.000 A 
ATOM      4  C   UNL     1       5.579   4.370  15.425  0.00  0.00    +0.000 A 
ATOM      5  C   UNL     1       4.731   4.036  16.475  0.00  0.00    +0.000 A 
ATOM      6  C   UNL     1       5.062   4.330  17.812  0.00  0.00    +0.000 A 
ATOM      7  C   UNL     1       6.342   4.874  18.073  0.00  0.00    +0.000 A 
ATOM      8  C   UNL     1       7.215   5.150  17.004  0.00  0.00    +0.000 A 
BRANCH   3  10
ATOM      9  C   UNL     1       7.107   4.614  13.345  0.00  0.00    +0.000 C 
ATOM     10  O   UNL     1       7.561   5.184  14.561  0.00  0.00    +0.000 OA
ENDBRANCH   3  10
BRANCH   7  11
ATOM     11  O   UNL     1       6.675   5.079  19.390  0.00  0.00    +0.000 OA
ATOM     12  C   UNL     1       7.918   5.721  19.668  0.00  0.00    +0.000 C 
ENDBRANCH   7  11
ENDBRANCH   1   6
BRANCH   1  13
ATOM     13  N   UNL     1       2.638   4.259  18.653  0.00  0.00    +0.000 NA
ATOM     14  C   UNL     1       1.744   3.100  18.754  0.00  0.00    +0.000 C 
BRANCH  13  15
ATOM     15  C   UNL     1       2.084   5.345  19.495  0.00  0.00    +0.000 C 
BRANCH  15  16
ATOM     16  C   UNL     1       2.951   6.609  19.563  0.00  0.00    +0.000 C 
BRANCH  16  17
ATOM     17  N   UNL     1       2.229   7.791  19.138  0.00  0.00    +0.000 N 
ATOM     18  C   UNL     1       2.248   8.345  17.896  0.00  0.00    +0.000 A 
ATOM     19  N   UNL     1       1.505   9.426  17.883  0.00  0.00    +0.000 NA
ATOM     20  N   UNL     1       0.995   9.592  19.154  0.00  0.00    +0.000 NA
ATOM     21  C   UNL     1       1.439   8.606  19.906  0.00  0.00    +0.000 A 
ATOM     22  C   UNL     1       1.144   8.392  21.342  0.00  0.00    +0.000 C 
ENDBRANCH  16  17
ENDBRANCH  15  16
ENDBRANCH  13  15
ENDBRANCH   1  13
TORSDOF 7
ENDMDL
MODEL 2
REMARK VINA RESULT:      -6.7      0.958      1.474
REMARK  Name = 
REMARK  12 active torsions:
REMARK  status: ('A' for Active; 'I' for Inactive)
REMARK    1  A    between atoms: C_1  and  O_2
REMARK    2  A    between atoms: O_2  and  C_3
REMARK    3  A    between atoms: C_6  and  C_7
REMARK    4  A    between atoms: C_7  and  C_8
REMARK    5  A    between atoms: C_7  and  N_9
REMARK    6  A    between atoms: N_9  and  C_10
REMARK    7  A    between atoms: N_9  and  C_11
REMARK    8  A    between atoms: C_11  and  C_12
REMARK    9  A    between atoms: C_12  and  N_13
REMARK   10  A    between atoms: C_17  and  C_18
REMARK   11  A    between atoms: C_19  and  O_20
REMARK   12  A    between atoms: O_20  and  C_21
REMARK                            x       y       z     vdW  Elec       q    Type
REMARK                         _______ _______ _______ _____ _____    ______ ____
ROOT
ATOM      1  C   UNL     1       4.156   3.599  19.008  0.00  0.00    +0.000 C 
ATOM      2  C   UNL     1       3.760   2.134  18.746  0.00  0.00    +0.000 C 
ENDROOT
BRANCH   1   6
ATOM      3  C   UNL     1       6.688   4.901  15.703  0.00  0.00    +0.000 A 
ATOM      4  C   UNL     1       5.448   4.328  15.468  0.00  0.00    +0.000 A 
ATOM      5  C   UNL     1       4.670   3.884  16.530  0.00  0.00    +0.000 A 
ATOM      6  C   UNL     1       5.062   4.086  17.867  0.00  0.00    +0.000 A 
ATOM      7  C   UNL     1       6.337   4.652  18.104  0.00  0.00    +0.000 A 
ATOM      8  C   UNL     1       7.143   5.039  17.016  0.00  0.00    +0.000 A 
BRANCH   3  10
ATOM      9  C   UNL     1       7.032   4.582  13.375  0.00  0.00    +0.000 C 
ATOM     10  O   UNL     1       7.355   5.274  14.569  0.00  0.00    +0.000 OA
ENDBRANCH   3  10
BRANCH   7  11
ATOM     11  O   UNL     1       6.735   4.766  19.414  0.00  0.00    +0.000 OA
ATOM     12  C   UNL     1       7.785   5.684  19.712  0.00  0.00    +0.000 C 
ENDBRANCH   7  11
ENDBRANCH   1   6
BRANCH   1  13
ATOM     13  N   UNL     1       3.018   4.511  19.360  0.00  0.00    +0.000 NA
ATOM     14  C   UNL     1       2.226   4.084  20.518  0.00  0.00    +0.000 C 
BRANCH  13  15
ATOM     15  C   UNL     1       3.436   5.916  19.578  0.00  0.00    +0.000 C 
BRANCH  15  16
ATOM     16  C   UNL     1       2.677   6.949  18.734  0.00  0.00    +0.000 C 
BRANCH  16  17
ATOM     17  N   UNL     1       1.925   7.878  19.553  0.00  0.00    +0.000 N 
ATOM     18  C   UNL     1       1.509   7.672  20.831  0.00  0.00    +0.000 A 
ATOM     19  N   UNL     1       0.825   8.712  21.246  0.00  0.00    +0.000 NA
ATOM     20  N   UNL     1       0.783   9.619  20.207  0.00  0.00    +0.000 NA
ATOM     21  C   UNL     1       1.443   9.108  19.188  0.00  0.00    +0.000 A 
ATOM     22  C   UNL     1       1.647   9.740  17.865  0.00  0.00    +0.000 C 
ENDBRANCH  16  17
ENDBRANCH  15  16
ENDBRANCH  13  15
ENDBRANCH   1  13
TORSDOF 7
ENDMDL
MODEL 3
REMARK VINA RESULT:      -6.3      3.490      6.011
REMARK  Name = 
REMARK  12 active torsions:
REMARK  status: ('A' for Active; 'I' for Inactive)
REMARK    1  A    between atoms: C_1  and  O_2
REMARK    2  A    between atoms: O_2  and  C_3
REMARK    3  A    between atoms: C_6  and  C_7
REMARK    4  A    between atoms: C_7  and  C_8
REMARK    5  A    between atoms: C_7  and  N_9
REMARK    6  A    between atoms: N_9  and  C_10
REMARK    7  A    between atoms: N_9  and  C_11
REMARK    8  A    between atoms: C_11  and  C_12
REMARK    9  A    between atoms: C_12  and  N_13
REMARK   10  A    between atoms: C_17  and  C_18
REMARK   11  A    between atoms: C_19  and  O_20
REMARK   12  A    between atoms: O_20  and  C_21
REMARK                            x       y       z     vdW  Elec       q    Type
REMARK                         _______ _______ _______ _____ _____    ______ ____
ROOT
ATOM      1  C   UNL     1       2.200   3.526  18.216  0.00  0.00    +0.000 C 
ATOM      2  C   UNL     1       0.957   2.653  18.469  0.00  0.00    +0.000 C 
ENDROOT
BRANCH   1   6
ATOM      3  C   UNL     1       1.757   7.415  20.142  0.00  0.00    +0.000 A 
ATOM      4  C   UNL     1       2.213   7.314  18.836  0.00  0.00    +0.000 A 
ATOM      5  C   UNL     1       2.384   6.065  18.250  0.00  0.00    +0.000 A 
ATOM      6  C   UNL     1       2.015   4.880  18.916  0.00  0.00    +0.000 A 
ATOM      7  C   UNL     1       1.570   4.986  20.255  0.00  0.00    +0.000 A 
ATOM      8  C   UNL     1       1.461   6.253  20.858  0.00  0.00    +0.000 A 
BRANCH   3  10
ATOM      9  C   UNL     1       0.948   9.619  19.782  0.00  0.00    +0.000 C 
ATOM     10  O   UNL     1       1.654   8.699  20.599  0.00  0.00    +0.000 OA
ENDBRANCH   3  10
BRANCH   7  11
ATOM     11  O   UNL     1       1.291   3.812  20.913  0.00  0.00    +0.000 OA
ATOM     12  C   UNL     1       2.251   3.334  21.854  0.00  0.00    +0.000 C 
ENDBRANCH   7  11
ENDBRANCH   1   6
BRANCH   1  13
ATOM     13  N   UNL     1       3.514   2.846  18.467  0.00  0.00    +0.000 NA
ATOM     14  C   UNL     1       3.451   1.381  18.494  0.00  0.00    +0.000 C 
BRANCH  13  15
ATOM     15  C   UNL     1       4.575   3.246  17.513  0.00  0.00    +0.000 C 
BRANCH  15  16
ATOM     16  C   UNL     1       5.543   4.314  18.042  0.00  0.00    +0.000 C 
BRANCH  16  17
ATOM     17  N   UNL     1       6.316   4.925  16.980  0.00  0.00    +0.000 N 
ATOM     18  C   UNL     1       6.285   4.588  15.663  0.00  0.00    +0.000 A 
ATOM     19  N   UNL     1       7.140   5.327  14.997  0.00  0.00    +0.000 NA
ATOM     20  N   UNL     1       7.757   6.163  15.905  0.00  0.00    +0.000 NA
ATOM     21  C   UNL     1       7.259   5.913  17.098  0.00  0.00    +0.000 A 
ATOM     22  C   UNL     1       7.636   6.576  18.367  0.00  0.00    +0.000 C 
ENDBRANCH  16  17
ENDBRANCH  15  16
ENDBRANCH  13  15
ENDBRANCH   1  13
TORSDOF 7
ENDMDL
MODEL 4
REMARK VINA RESULT:      -6.2      0.675      1.419
REMARK  Name = 
REMARK  12 active torsions:
REMARK  status: ('A' for Active; 'I' for Inactive)
REMARK    1  A    between atoms: C_1  and  O_2
REMARK    2  A    between atoms: O_2  and  C_3
REMARK    3  A    between atoms: C_6  and  C_7
REMARK    4  A    between atoms: C_7  and  C_8
REMARK    5  A    between atoms: C_7  and  N_9
REMARK    6  A    between atoms: N_9  and  C_10
REMARK    7  A    between atoms: N_9  and  C_11
REMARK    8  A    between atoms: C_11  and  C_12
REMARK    9  A    between atoms: C_12  and  N_13
REMARK   10  A    between atoms: C_17  and  C_18
REMARK   11  A    between atoms: C_19  and  O_20
REMARK   12  A    between atoms: O_20  and  C_21
REMARK                            x       y       z     vdW  Elec       q    Type
REMARK                         _______ _______ _______ _____ _____    ______ ____
ROOT
ATOM      1  C   UNL     1       3.855   3.745  19.045  0.00  0.00    +0.000 C 
ATOM      2  C   UNL     1       3.862   2.235  19.347  0.00  0.00    +0.000 C 
ENDROOT
BRANCH   1   6
ATOM      3  C   UNL     1       6.857   4.520  15.976  0.00  0.00    +0.000 A 
ATOM      4  C   UNL     1       5.662   3.892  15.661  0.00  0.00    +0.000 A 
ATOM      5  C   UNL     1       4.732   3.619  16.657  0.00  0.00    +0.000 A 
ATOM      6  C   UNL     1       4.924   4.050  17.984  0.00  0.00    +0.000 A 
ATOM      7  C   UNL     1       6.154   4.671  18.306  0.00  0.00    +0.000 A 
ATOM      8  C   UNL     1       7.114   4.885  17.299  0.00  0.00    +0.000 A 
BRANCH   3  10
ATOM      9  C   UNL     1       7.083   5.097  13.683  0.00  0.00    +0.000 C 
ATOM     10  O   UNL     1       7.687   4.709  14.906  0.00  0.00    +0.000 OA
ENDBRANCH   3  10
BRANCH   7  11
ATOM     11  O   UNL     1       6.354   5.011  19.623  0.00  0.00    +0.000 OA
ATOM     12  C   UNL     1       7.517   5.773  19.942  0.00  0.00    +0.000 C 
ENDBRANCH   7  11
ENDBRANCH   1   6
BRANCH   1  13
ATOM     13  N   UNL     1       2.501   4.334  18.782  0.00  0.00    +0.000 NA
ATOM     14  C   UNL     1       1.448   3.350  18.505  0.00  0.00    +0.000 C 
BRANCH  13  15
ATOM     15  C   UNL     1       2.027   5.226  19.866  0.00  0.00    +0.000 C 
BRANCH  15  16
ATOM     16  C   UNL     1       2.860   6.501  20.056  0.00  0.00    +0.000 C 
BRANCH  16  17
ATOM     17  N   UNL     1       2.405   7.583  19.208  0.00  0.00    +0.000 N 
ATOM     18  C   UNL     1       1.442   8.495  19.510  0.00  0.00    +0.000 A 
ATOM     19  N   UNL     1       1.266   9.306  18.494  0.00  0.00    +0.000 NA
ATOM     20  N   UNL     1       2.130   8.907  17.494  0.00  0.00    +0.000 NA
ATOM     21  C   UNL     1       2.809   7.866  17.929  0.00  0.00    +0.000 A 
ATOM     22  C   UNL     1       3.844   7.115  17.182  0.00  0.00    +0.000 C 
ENDBRANCH  16  17
ENDBRANCH  15  16
ENDBRANCH  13  15
ENDBRANCH   1  13
TORSDOF 7
ENDMDL
MODEL 5
REMARK VINA RESULT:      -6.1      3.428      6.207
REMARK  Name = 
REMARK  12 active torsions:
REMARK  status: ('A' for Active; 'I' for Inactive)
REMARK    1  A    between atoms: C_1  and  O_2
REMARK    2  A    between atoms: O_2  and  C_3
REMARK    3  A    between atoms: C_6  and  C_7
REMARK    4  A    between atoms: C_7  and  C_8
REMARK    5  A    between atoms: C_7  and  N_9
REMARK    6  A    between atoms: N_9  and  C_10
REMARK    7  A    between atoms: N_9  and  C_11
REMARK    8  A    between atoms: C_11  and  C_12
REMARK    9  A    between atoms: C_12  and  N_13
REMARK   10  A    between atoms: C_17  and  C_18
REMARK   11  A    between atoms: C_19  and  O_20
REMARK   12  A    between atoms: O_20  and  C_21
REMARK                            x       y       z     vdW  Elec       q    Type
REMARK                         _______ _______ _______ _____ _____    ______ ____
ROOT
ATOM      1  C   UNL     1       3.885   3.853  19.217  0.00  0.00    +0.000 C 
ATOM      2  C   UNL     1       5.392   4.112  19.394  0.00  0.00    +0.000 C 
ENDROOT
BRANCH   1   6
ATOM      3  C   UNL     1       1.793   7.624  19.876  0.00  0.00    +0.000 A 
ATOM      4  C   UNL     1       2.691   7.481  18.830  0.00  0.00    +0.000 A 
ATOM      5  C   UNL     1       3.377   6.284  18.656  0.00  0.00    +0.000 A 
ATOM      6  C   UNL     1       3.117   5.161  19.464  0.00  0.00    +0.000 A 
ATOM      7  C   UNL     1       2.216   5.316  20.544  0.00  0.00    +0.000 A 
ATOM      8  C   UNL     1       1.575   6.553  20.746  0.00  0.00    +0.000 A 
BRANCH   3  10
ATOM      9  C   UNL     1       1.268   9.663  18.778  0.00  0.00    +0.000 C 
ATOM     10  O   UNL     1       1.204   8.856  19.942  0.00  0.00    +0.000 OA
ENDBRANCH   3  10
BRANCH   7  11
ATOM     11  O   UNL     1       2.038   4.231  21.368  0.00  0.00    +0.000 OA
ATOM     12  C   UNL     1       1.119   3.224  20.950  0.00  0.00    +0.000 C 
ENDBRANCH   7  11
ENDBRANCH   1   6
BRANCH   1  13
ATOM     13  N   UNL     1       3.510   3.113  17.967  0.00  0.00    +0.000 NA
ATOM     14  C   UNL     1       2.262   3.563  17.340  0.00  0.00    +0.000 C 
BRANCH  13  15
ATOM     15  C   UNL     1       4.575   3.121  16.937  0.00  0.00    +0.000 C 
BRANCH  15  16
ATOM     16  C   UNL     1       4.486   4.279  15.933  0.00  0.00    +0.000 C 
BRANCH  16  17
ATOM     17  N   UNL     1       5.787   4.837  15.625  0.00  0.00    +0.000 N 
ATOM     18  C   UNL     1       6.484   5.724  16.384  0.00  0.00    +0.000 A 
ATOM     19  N   UNL     1       7.606   6.037  15.780  0.00  0.00    +0.000 NA
ATOM     20  N   UNL     1       7.640   5.344  14.588  0.00  0.00    +0.000 NA
ATOM     21  C   UNL     1       6.539   4.626  14.499  0.00  0.00    +0.000 A 
ATOM     22  C   UNL     1       6.158   3.732  13.381  0.00  0.00    +0.000 C 
ENDBRANCH  16  17
ENDBRANCH  15  16
ENDBRANCH  13  15
ENDBRANCH   1  13
TORSDOF 7
ENDMDL
MODEL 6
REMARK VINA RESULT:      -6.1      2.371      3.721
REMARK  Name = 
REMARK  12 active torsions:
REMARK  status: ('A' for Active; 'I' for Inactive)
REMARK    1  A    between atoms: C_1  and  O_2
REMARK    2  A    between atoms: O_2  and  C_3
REMARK    3  A    between atoms: C_6  and  C_7
REMARK    4  A    between atoms: C_7  and  C_8
REMARK    5  A    between atoms: C_7  and  N_9
REMARK    6  A    between atoms: N_9  and  C_10
REMARK    7  A    between atoms: N_9  and  C_11
REMARK    8  A    between atoms: C_11  and  C_12
REMARK    9  A    between atoms: C_12  and  N_13
REMARK   10  A    between atoms: C_17  and  C_18
REMARK   11  A    between atoms: C_19  and  O_20
REMARK   12  A    between atoms: O_20  and  C_21
REMARK                            x       y       z     vdW  Elec       q    Type
REMARK                         _______ _______ _______ _____ _____    ______ ____
ROOT
ATOM      1  C   UNL     1       5.115   4.510  17.846  0.00  0.00    +0.000 C 
ATOM      2  C   UNL     1       4.206   3.267  17.871  0.00  0.00    +0.000 C 
ENDROOT
BRANCH   1   6
ATOM      3  C   UNL     1       6.950   4.727  13.894  0.00  0.00    +0.000 A 
ATOM      4  C   UNL     1       5.760   4.043  14.091  0.00  0.00    +0.000 A 
ATOM      5  C   UNL     1       5.208   3.952  15.363  0.00  0.00    +0.000 A 
ATOM      6  C   UNL     1       5.776   4.621  16.464  0.00  0.00    +0.000 A 
ATOM      7  C   UNL     1       7.002   5.300  16.264  0.00  0.00    +0.000 A 
ATOM      8  C   UNL     1       7.582   5.332  14.982  0.00  0.00    +0.000 A 
BRANCH   3  10
ATOM      9  C   UNL     1       6.946   3.657  11.774  0.00  0.00    +0.000 C 
ATOM     10  O   UNL     1       7.389   4.721  12.599  0.00  0.00    +0.000 OA
ENDBRANCH   3  10
BRANCH   7  11
ATOM     11  O   UNL     1       7.581   5.879  17.368  0.00  0.00    +0.000 OA
ATOM     12  C   UNL     1       7.557   7.302  17.461  0.00  0.00    +0.000 C 
ENDBRANCH   7  11
ENDBRANCH   1   6
BRANCH   1  13
ATOM     13  N   UNL     1       4.484   5.769  18.362  0.00  0.00    +0.000 NA
ATOM     14  C   UNL     1       3.482   6.362  17.468  0.00  0.00    +0.000 C 
BRANCH  13  15
ATOM     15  C   UNL     1       3.875   5.616  19.703  0.00  0.00    +0.000 C 
BRANCH  15  16
ATOM     16  C   UNL     1       2.360   5.367  19.695  0.00  0.00    +0.000 C 
BRANCH  16  17
ATOM     17  N   UNL     1       1.993   4.204  20.477  0.00  0.00    +0.000 N 
ATOM     18  C   UNL     1       2.371   3.940  21.756  0.00  0.00    +0.000 A 
ATOM     19  N   UNL     1       1.881   2.782  22.131  0.00  0.00    +0.000 NA
ATOM     20  N   UNL     1       1.172   2.269  21.065  0.00  0.00    +0.000 NA
ATOM     21  C   UNL     1       1.247   3.129  20.070  0.00  0.00    +0.000 A 
ATOM     22  C   UNL     1       0.634   2.981  18.730  0.00  0.00    +0.000 C 
ENDBRANCH  16  17
ENDBRANCH  15  16
ENDBRANCH  13  15
ENDBRANCH   1  13
TORSDOF 7
ENDMDL
MODEL 7
REMARK VINA RESULT:      -6.1      2.090      3.325
REMARK  Name = 
REMARK  12 active torsions:
REMARK  status: ('A' for Active; 'I' for Inactive)
REMARK    1  A    between atoms: C_1  and  O_2
REMARK    2  A    between atoms: O_2  and  C_3
REMARK    3  A    between atoms: C_6  and  C_7
REMARK    4  A    between atoms: C_7  and  C_8
REMARK    5  A    between atoms: C_7  and  N_9
REMARK    6  A    between atoms: N_9  and  C_10
REMARK    7  A    between atoms: N_9  and  C_11
REMARK    8  A    between atoms: C_11  and  C_12
REMARK    9  A    between atoms: C_12  and  N_13
REMARK   10  A    between atoms: C_17  and  C_18
REMARK   11  A    between atoms: C_19  and  O_20
REMARK   12  A    between atoms: O_20  and  C_21
REMARK                            x       y       z     vdW  Elec       q    Type
REMARK                         _______ _______ _______ _____ _____    ______ ____
ROOT
ATOM      1  C   UNL     1       2.934   6.220  18.928  0.00  0.00    +0.000 C 
ATOM      2  C   UNL     1       1.765   5.331  18.466  0.00  0.00    +0.000 C 
ENDROOT
BRANCH   1   6
ATOM      3  C   UNL     1       6.395   5.348  16.421  0.00  0.00    +0.000 A 
ATOM      4  C   UNL     1       5.474   6.316  16.051  0.00  0.00    +0.000 A 
ATOM      5  C   UNL     1       4.356   6.555  16.843  0.00  0.00    +0.000 A 
ATOM      6  C   UNL     1       4.173   5.904  18.077  0.00  0.00    +0.000 A 
ATOM      7  C   UNL     1       5.104   4.902  18.441  0.00  0.00    +0.000 A 
ATOM      8  C   UNL     1       6.198   4.626  17.599  0.00  0.00    +0.000 A 
BRANCH   3  10
ATOM      9  C   UNL     1       7.104   4.865  14.206  0.00  0.00    +0.000 C 
ATOM     10  O   UNL     1       7.434   5.203  15.543  0.00  0.00    +0.000 OA
ENDBRANCH   3  10
BRANCH   7  11
ATOM     11  O   UNL     1       4.863   4.223  19.611  0.00  0.00    +0.000 OA
ATOM     12  C   UNL     1       4.484   2.851  19.515  0.00  0.00    +0.000 C 
ENDBRANCH   7  11
ENDBRANCH   1   6
BRANCH   1  13
ATOM     13  N   UNL     1       2.606   7.677  19.070  0.00  0.00    +0.000 NA
ATOM     14  C   UNL     1       2.008   8.290  17.878  0.00  0.00    +0.000 C 
BRANCH  13  15
ATOM     15  C   UNL     1       1.733   7.974  20.230  0.00  0.00    +0.000 C 
BRANCH  15  16
ATOM     16  C   UNL     1       1.057   9.351  20.188  0.00  0.00    +0.000 C 
BRANCH  16  17
ATOM     17  N   UNL     1       0.572   9.761  21.490  0.00  0.00    +0.000 N 
ATOM     18  C   UNL     1       0.901   9.204  22.686  0.00  0.00    +0.000 A 
ATOM     19  N   UNL     1       0.246   9.808  23.650  0.00  0.00    +0.000 NA
ATOM     20  N   UNL     1      -0.542  10.779  23.068  0.00  0.00    +0.000 NA
ATOM     21  C   UNL     1      -0.345  10.743  21.766  0.00  0.00    +0.000 A 
ATOM     22  C   UNL     1      -0.990  11.609  20.753  0.00  0.00    +0.000 C 
ENDBRANCH  16  17
ENDBRANCH  15  16
ENDBRANCH  13  15
ENDBRANCH   1  13
TORSDOF 7
ENDMDL
MODEL 8
REMARK VINA RESULT:      -6.0      3.438      6.049
REMARK  Name = 
REMARK  12 active torsions:
REMARK  status: ('A' for Active; 'I' for Inactive)
REMARK    1  A    between atoms: C_1  and  O_2
REMARK    2  A    between atoms: O_2  and  C_3
REMARK    3  A    between atoms: C_6  and  C_7
REMARK    4  A    between atoms: C_7  and  C_8
REMARK    5  A    between atoms: C_7  and  N_9
REMARK    6  A    between atoms: N_9  and  C_10
REMARK    7  A    between atoms: N_9  and  C_11
REMARK    8  A    between atoms: C_11  and  C_12
REMARK    9  A    between atoms: C_12  and  N_13
REMARK   10  A    between atoms: C_17  and  C_18
REMARK   11  A    between atoms: C_19  and  O_20
REMARK   12  A    between atoms: O_20  and  C_21
REMARK                            x       y       z     vdW  Elec       q    Type
REMARK                         _______ _______ _______ _____ _____    ______ ____
ROOT
ATOM      1  C   UNL     1       2.593   4.180  18.366  0.00  0.00    +0.000 C 
ATOM      2  C   UNL     1       1.314   3.450  17.914  0.00  0.00    +0.000 C 
ENDROOT
BRANCH   1   6
ATOM      3  C   UNL     1       1.573   7.819  20.544  0.00  0.00    +0.000 A 
ATOM      4  C   UNL     1       2.249   7.878  19.335  0.00  0.00    +0.000 A 
ATOM      5  C   UNL     1       2.600   6.707  18.672  0.00  0.00    +0.000 A 
ATOM      6  C   UNL     1       2.202   5.443  19.147  0.00  0.00    +0.000 A 
ATOM      7  C   UNL     1       1.530   5.385  20.391  0.00  0.00    +0.000 A 
ATOM      8  C   UNL     1       1.237   6.576  21.083  0.00  0.00    +0.000 A 
BRANCH   3  10
ATOM      9  C   UNL     1       0.056   9.202  21.737  0.00  0.00    +0.000 C 
ATOM     10  O   UNL     1       1.309   9.042  21.095  0.00  0.00    +0.000 OA
ENDBRANCH   3  10
BRANCH   7  11
ATOM     11  O   UNL     1       1.222   4.137  20.876  0.00  0.00    +0.000 OA
ATOM     12  C   UNL     1       2.078   3.582  21.873  0.00  0.00    +0.000 C 
ENDBRANCH   7  11
ENDBRANCH   1   6
BRANCH   1  13
ATOM     13  N   UNL     1       3.622   3.308  19.024  0.00  0.00    +0.000 NA
ATOM     14  C   UNL     1       3.707   1.947  18.483  0.00  0.00    +0.000 C 
BRANCH  13  15
ATOM     15  C   UNL     1       4.982   3.896  19.016  0.00  0.00    +0.000 C 
BRANCH  15  16
ATOM     16  C   UNL     1       5.512   4.267  17.624  0.00  0.00    +0.000 C 
BRANCH  16  17
ATOM     17  N   UNL     1       6.324   5.467  17.651  0.00  0.00    +0.000 N 
ATOM     18  C   UNL     1       7.388   5.703  18.463  0.00  0.00    +0.000 A 
ATOM     19  N   UNL     1       7.860   6.906  18.236  0.00  0.00    +0.000 NA
ATOM     20  N   UNL     1       7.075   7.478  17.257  0.00  0.00    +0.000 NA
ATOM     21  C   UNL     1       6.149   6.608  16.912  0.00  0.00    +0.000 A 
ATOM     22  C   UNL     1       5.089   6.805  15.896  0.00  0.00    +0.000 C 
ENDBRANCH  16  17
ENDBRANCH  15  16
ENDBRANCH  13  15
ENDBRANCH   1  13
TORSDOF 7
ENDMDL
MODEL 9
REMARK VINA RESULT:      -6.0      1.368      1.546
REMARK  Name = 
REMARK  12 active torsions:
REMARK  status: ('A' for Active; 'I' for Inactive)
REMARK    1  A    between atoms: C_1  and  O_2
REMARK    2  A    between atoms: O_2  and  C_3
REMARK    3  A    between atoms: C_6  and  C_7
REMARK    4  A    between atoms: C_7  and  C_8
REMARK    5  A    between atoms: C_7  and  N_9
REMARK    6  A    between atoms: N_9  and  C_10
REMARK    7  A    between atoms: N_9  and  C_11
REMARK    8  A    between atoms: C_11  and  C_12
REMARK    9  A    between atoms: C_12  and  N_13
REMARK   10  A    between atoms: C_17  and  C_18
REMARK   11  A    between atoms: C_19  and  O_20
REMARK   12  A    between atoms: O_20  and  C_21
REMARK                            x       y       z     vdW  Elec       q    Type
REMARK                         _______ _______ _______ _____ _____    ______ ____
ROOT
ATOM      1  C   UNL     1       4.629   5.183  18.274  0.00  0.00    +0.000 C 
ATOM      2  C   UNL     1       4.942   3.978  19.181  0.00  0.00    +0.000 C 
ENDROOT
BRANCH   1   6
ATOM      3  C   UNL     1       6.608   4.562  14.436  0.00  0.00    +0.000 A 
ATOM      4  C   UNL     1       5.326   4.084  14.663  0.00  0.00    +0.000 A 
ATOM      5  C   UNL     1       4.725   4.258  15.904  0.00  0.00    +0.000 A 
ATOM      6  C   UNL     1       5.346   4.998  16.928  0.00  0.00    +0.000 A 
ATOM      7  C   UNL     1       6.662   5.466  16.700  0.00  0.00    +0.000 A 
ATOM      8  C   UNL     1       7.284   5.229  15.460  0.00  0.00    +0.000 A 
BRANCH   3  10
ATOM      9  C   UNL     1       6.298   3.468  12.351  0.00  0.00    +0.000 C 
ATOM     10  O   UNL     1       7.085   4.306  13.181  0.00  0.00    +0.000 OA
ENDBRANCH   3  10
BRANCH   7  11
ATOM     11  O   UNL     1       7.280   6.117  17.741  0.00  0.00    +0.000 OA
ATOM     12  C   UNL     1       7.592   7.498  17.570  0.00  0.00    +0.000 C 
ENDBRANCH   7  11
ENDBRANCH   1   6
BRANCH   1  13
ATOM     13  N   UNL     1       3.178   5.552  18.186  0.00  0.00    +0.000 NA
ATOM     14  C   UNL     1       2.309   4.849  19.136  0.00  0.00    +0.000 C 
BRANCH  13  15
ATOM     15  C   UNL     1       2.931   7.006  18.320  0.00  0.00    +0.000 C 
BRANCH  15  16
ATOM     16  C   UNL     1       2.235   7.420  19.624  0.00  0.00    +0.000 C 
BRANCH  16  17
ATOM     17  N   UNL     1       1.512   8.668  19.485  0.00  0.00    +0.000 N 
ATOM     18  C   UNL     1       1.360   9.390  18.342  0.00  0.00    +0.000 A 
ATOM     19  N   UNL     1       0.678  10.481  18.596  0.00  0.00    +0.000 NA
ATOM     20  N   UNL     1       0.385  10.480  19.944  0.00  0.00    +0.000 NA
ATOM     21  C   UNL     1       0.894   9.387  20.475  0.00  0.00    +0.000 A 
ATOM     22  C   UNL     1       0.821   8.982  21.897  0.00  0.00    +0.000 C 
ENDBRANCH  16  17
ENDBRANCH  15  16
ENDBRANCH  13  15
ENDBRANCH   1  13
TORSDOF 7
ENDMDL
