MODEL 1
REMARK VINA RESULT:      -5.5      0.000      0.000
REMARK  Name = 
REMARK  7 active torsions:
REMARK  status: ('A' for Active; 'I' for Inactive)
REMARK    1  A    between atoms: C_2  and  C_4
REMARK    2  A    between atoms: C_4  and  S_5
REMARK    3  A    between atoms: S_5  and  C_6
REMARK    4  A    between atoms: C_6  and  C_7
REMARK    5  A    between atoms: C_6  and  C_10
REMARK    6  A    between atoms: C_10  and  O_11
REMARK    7  A    between atoms: C_10  and  C_12
REMARK                            x       y       z     vdW  Elec       q    Type
REMARK                         _______ _______ _______ _____ _____    ______ ____
ROOT
ATOM      1  C   UNL     1       6.159   5.397  16.834  0.00  0.00    +0.000 C 
ENDROOT
BRANCH   1   2
ATOM      2  C   UNL     1       6.406   5.151  15.325  0.00  0.00    +0.000 C 
ATOM      3  O   UNL     1       5.458   4.549  14.692  0.00  0.00    +0.000 OA
ATOM      4  O   UNL     1       7.505   5.437  14.794  0.00  0.00    +0.000 OA
ENDBRANCH   1   2
BRANCH   1   5
ATOM      5  S   UNL     1       4.359   5.053  17.153  0.00  0.00    +0.000 S 
BRANCH   5   6
ATOM      6  C   UNL     1       4.483   3.485  18.097  0.00  0.00    +0.000 C 
BRANCH   6   8
ATOM      7  O   UNL     1       2.481   3.376  16.912  0.00  0.00    +0.000 OA
ATOM      8  C   UNL     1       3.179   2.775  17.819  0.00  0.00    +0.000 C 
ATOM      9  O   UNL     1       2.910   1.726  18.464  0.00  0.00    +0.000 OA
ENDBRANCH   6   8
ENDBRANCH   5   6
ENDBRANCH   1   5
BRANCH   1  10
ATOM     10  C   UNL     1       7.039   4.732  17.874  0.00  0.00    +0.000 C 
BRANCH  10  11
ATOM     11  C   UNL     1       7.581   5.754  18.892  0.00  0.00    +0.000 C 
ATOM     12  O   UNL     1       7.459   5.484  20.126  0.00  0.00    +0.000 OA
ATOM     13  O   UNL     1       7.873   6.881  18.408  0.00  0.00    +0.000 OA
ENDBRANCH  10  11
BRANCH  10  14
ATOM     14  O   UNL     1       8.166   4.046  17.287  0.00  0.00    +0.000 OA
ATOM     15  H   UNL     1       8.685   3.756  18.074  0.00  0.00    +0.000 HD
ENDBRANCH  10  14
ENDBRANCH   1  10
TORSDOF 7
ENDMDL
MODEL 2
REMARK VINA RESULT:      -5.5      1.234      1.620
REMARK  Name = 
REMARK  7 active torsions:
REMARK  status: ('A' for Active; 'I' for Inactive)
REMARK    1  A    between atoms: C_2  and  C_4
REMARK    2  A    between atoms: C_4  and  S_5
REMARK    3  A    between atoms: S_5  and  C_6
REMARK    4  A    between atoms: C_6  and  C_7
REMARK    5  A    between atoms: C_6  and  C_10
REMARK    6  A    between atoms: C_10  and  O_11
REMARK    7  A    between atoms: C_10  and  C_12
REMARK                            x       y       z     vdW  Elec       q    Type
REMARK                         _______ _______ _______ _____ _____    ______ ____
ROOT
ATOM      1  C   UNL     1       6.321   5.522  16.832  0.00  0.00    +0.000 C 
ENDROOT
BRANCH   1   2
ATOM      2  C   UNL     1       6.559   5.142  15.349  0.00  0.00    +0.000 C 
ATOM      3  O   UNL     1       5.588   4.528  14.765  0.00  0.00    +0.000 OA
ATOM      4  O   UNL     1       7.669   5.338  14.801  0.00  0.00    +0.000 OA
ENDBRANCH   1   2
BRANCH   1   5
ATOM      5  S   UNL     1       4.488   5.430  17.129  0.00  0.00    +0.000 S 
BRANCH   5   6
ATOM      6  C   UNL     1       4.387   3.879  18.104  0.00  0.00    +0.000 C 
BRANCH   6   8
ATOM      7  O   UNL     1       4.036   5.552  19.686  0.00  0.00    +0.000 OA
ATOM      8  C   UNL     1       3.803   4.306  19.430  0.00  0.00    +0.000 C 
ATOM      9  O   UNL     1       3.182   3.455  20.123  0.00  0.00    +0.000 OA
ENDBRANCH   6   8
ENDBRANCH   5   6
ENDBRANCH   1   5
BRANCH   1  10
ATOM     10  C   UNL     1       7.094   4.826  17.935  0.00  0.00    +0.000 C 
BRANCH  10  11
ATOM     11  C   UNL     1       7.580   5.825  19.002  0.00  0.00    +0.000 C 
ATOM     12  O   UNL     1       8.143   6.891  18.604  0.00  0.00    +0.000 OA
ATOM     13  O   UNL     1       7.597   5.376  20.180  0.00  0.00    +0.000 OA
ENDBRANCH  10  11
BRANCH  10  14
ATOM     14  O   UNL     1       8.245   4.109  17.437  0.00  0.00    +0.000 OA
ATOM     15  H   UNL     1       7.861   3.528  16.739  0.00  0.00    +0.000 HD
ENDBRANCH  10  14
ENDBRANCH   1  10
TORSDOF 7
ENDMDL
MODEL 3
REMARK VINA RESULT:      -5.4      1.110      1.358
REMARK  Name = 
REMARK  7 active torsions:
REMARK  status: ('A' for Active; 'I' for Inactive)
REMARK    1  A    between atoms: C_2  and  C_4
REMARK    2  A    between atoms: C_4  and  S_5
REMARK    3  A    between atoms: S_5  and  C_6
REMARK    4  A    between atoms: C_6  and  C_7
REMARK    5  A    between atoms: C_6  and  C_10
REMARK    6  A    between atoms: C_10  and  O_11
REMARK    7  A    between atoms: C_10  and  C_12
REMARK                            x       y       z     vdW  Elec       q    Type
REMARK                         _______ _______ _______ _____ _____    ______ ____
ROOT
ATOM      1  C   UNL     1       6.001   5.080  16.432  0.00  0.00    +0.000 C 
ENDROOT
BRANCH   1   2
ATOM      2  C   UNL     1       6.454   4.801  14.977  0.00  0.00    +0.000 C 
ATOM      3  O   UNL     1       5.677   4.042  14.283  0.00  0.00    +0.000 OA
ATOM      4  O   UNL     1       7.558   5.215  14.552  0.00  0.00    +0.000 OA
ENDBRANCH   1   2
BRANCH   1   5
ATOM      5  S   UNL     1       4.573   3.942  16.783  0.00  0.00    +0.000 S 
BRANCH   5   6
ATOM      6  C   UNL     1       4.429   4.140  18.601  0.00  0.00    +0.000 C 
BRANCH   6   8
ATOM      7  O   UNL     1       3.379   2.068  18.430  0.00  0.00    +0.000 OA
ATOM      8  C   UNL     1       4.248   2.734  19.119  0.00  0.00    +0.000 C 
ATOM      9  O   UNL     1       4.920   2.364  20.120  0.00  0.00    +0.000 OA
ENDBRANCH   6   8
ENDBRANCH   5   6
ENDBRANCH   1   5
BRANCH   1  10
ATOM     10  C   UNL     1       7.008   5.066  17.564  0.00  0.00    +0.000 C 
BRANCH  10  11
ATOM     11  C   UNL     1       7.561   6.476  17.846  0.00  0.00    +0.000 C 
ATOM     12  O   UNL     1       8.191   6.661  18.931  0.00  0.00    +0.000 OA
ATOM     13  O   UNL     1       7.121   7.380  17.084  0.00  0.00    +0.000 OA
ENDBRANCH  10  11
BRANCH  10  14
ATOM     14  O   UNL     1       8.127   4.192  17.299  0.00  0.00    +0.000 OA
ATOM     15  H   UNL     1       8.085   3.544  18.041  0.00  0.00    +0.000 HD
ENDBRANCH  10  14
ENDBRANCH   1  10
TORSDOF 7
ENDMDL
MODEL 4
REMARK VINA RESULT:      -5.4      2.447      5.651
REMARK  Name = 
REMARK  7 active torsions:
REMARK  status: ('A' for Active; 'I' for Inactive)
REMARK    1  A    between atoms: C_2  and  C_4
REMARK    2  A    between atoms: C_4  and  S_5
REMARK    3  A    between atoms: S_5  and  C_6
REMARK    4  A    between atoms: C_6  and  C_7
REMARK    5  A    between atoms: C_6  and  C_10
REMARK    6  A    between atoms: C_10  and  O_11
REMARK    7  A    between atoms: C_10  and  C_12
REMARK                            x       y       z     vdW  Elec       q    Type
REMARK                         _______ _______ _______ _____ _____    ______ ____
ROOT
ATOM      1  C   UNL     1       2.705   3.649  19.278  0.00  0.00    +0.000 C 
ENDROOT
BRANCH   1   2
ATOM      2  C   UNL     1       2.079   3.379  17.887  0.00  0.00    +0.000 C 
ATOM      3  O   UNL     1       1.260   4.277  17.457  0.00  0.00    +0.000 OA
ATOM      4  O   UNL     1       2.290   2.303  17.279  0.00  0.00    +0.000 OA
ENDBRANCH   1   2
BRANCH   1   5
ATOM      5  S   UNL     1       3.847   5.104  19.086  0.00  0.00    +0.000 S 
BRANCH   5   6
ATOM      6  C   UNL     1       5.131   4.377  17.996  0.00  0.00    +0.000 C 
BRANCH   6   8
ATOM      7  O   UNL     1       7.460   4.378  17.954  0.00  0.00    +0.000 OA
ATOM      8  C   UNL     1       6.438   4.748  18.655  0.00  0.00    +0.000 C 
ATOM      9  O   UNL     1       6.410   5.344  19.766  0.00  0.00    +0.000 OA
ENDBRANCH   6   8
ENDBRANCH   5   6
ENDBRANCH   1   5
BRANCH   1  10
ATOM     10  C   UNL     1       1.822   3.799  20.500  0.00  0.00    +0.000 C 
BRANCH  10  11
ATOM     11  C   UNL     1       2.251   2.841  21.628  0.00  0.00    +0.000 C 
ATOM     12  O   UNL     1       3.404   2.316  21.555  0.00  0.00    +0.000 OA
ATOM     13  O   UNL     1       1.319   2.472  22.394  0.00  0.00    +0.000 OA
ENDBRANCH  10  11
BRANCH  10  14
ATOM     14  O   UNL     1       0.429   3.552  20.211  0.00  0.00    +0.000 OA
ATOM     15  H   UNL     1       0.234   4.193  19.487  0.00  0.00    +0.000 HD
ENDBRANCH  10  14
ENDBRANCH   1  10
TORSDOF 7
ENDMDL
MODEL 5
REMARK VINA RESULT:      -5.4      1.052      1.228
REMARK  Name = 
REMARK  7 active torsions:
REMARK  status: ('A' for Active; 'I' for Inactive)
REMARK    1  A    between atoms: C_2  and  C_4
REMARK    2  A    between atoms: C_4  and  S_5
REMARK    3  A    between atoms: S_5  and  C_6
REMARK    4  A    between atoms: C_6  and  C_7
REMARK    5  A    between atoms: C_6  and  C_10
REMARK    6  A    between atoms: C_10  and  O_11
REMARK    7  A    between atoms: C_10  and  C_12
REMARK                            x       y       z     vdW  Elec       q    Type
REMARK                         _______ _______ _______ _____ _____    ______ ____
ROOT
ATOM      1  C   UNL     1       6.039   5.019  16.770  0.00  0.00    +0.000 C 
ENDROOT
BRANCH   1   2
ATOM      2  C   UNL     1       6.469   5.113  15.284  0.00  0.00    +0.000 C 
ATOM      3  O   UNL     1       5.647   4.608  14.429  0.00  0.00    +0.000 OA
ATOM      4  O   UNL     1       7.594   5.564  14.964  0.00  0.00    +0.000 OA
ENDBRANCH   1   2
BRANCH   1   5
ATOM      5  S   UNL     1       4.481   4.004  16.820  0.00  0.00    +0.000 S 
BRANCH   5   6
ATOM      6  C   UNL     1       3.755   4.589  18.400  0.00  0.00    +0.000 C 
BRANCH   6   8
ATOM      7  O   UNL     1       1.624   4.610  19.338  0.00  0.00    +0.000 OA
ATOM      8  C   UNL     1       2.291   4.236  18.295  0.00  0.00    +0.000 C 
ATOM      9  O   UNL     1       1.883   3.641  17.261  0.00  0.00    +0.000 OA
ENDBRANCH   6   8
ENDBRANCH   5   6
ENDBRANCH   1   5
BRANCH   1  10
ATOM     10  C   UNL     1       7.027   4.565  17.826  0.00  0.00    +0.000 C 
BRANCH  10  11
ATOM     11  C   UNL     1       7.414   5.718  18.771  0.00  0.00    +0.000 C 
ATOM     12  O   UNL     1       7.296   5.528  20.020  0.00  0.00    +0.000 OA
ATOM     13  O   UNL     1       7.576   6.834  18.206  0.00  0.00    +0.000 OA
ENDBRANCH  10  11
BRANCH  10  14
ATOM     14  O   UNL     1       8.241   4.029  17.255  0.00  0.00    +0.000 OA
ATOM     15  H   UNL     1       8.916   4.220  17.948  0.00  0.00    +0.000 HD
ENDBRANCH  10  14
ENDBRANCH   1  10
TORSDOF 7
ENDMDL
MODEL 6
REMARK VINA RESULT:      -5.4      1.280      1.574
REMARK  Name = 
REMARK  7 active torsions:
REMARK  status: ('A' for Active; 'I' for Inactive)
REMARK    1  A    between atoms: C_2  and  C_4
REMARK    2  A    between atoms: C_4  and  S_5
REMARK    3  A    between atoms: S_5  and  C_6
REMARK    4  A    between atoms: C_6  and  C_7
REMARK    5  A    between atoms: C_6  and  C_10
REMARK    6  A    between atoms: C_10  and  O_11
REMARK    7  A    between atoms: C_10  and  C_12
REMARK                            x       y       z     vdW  Elec       q    Type
REMARK                         _______ _______ _______ _____ _____    ______ ____
ROOT
ATOM      1  C   UNL     1       5.761   5.174  17.218  0.00  0.00    +0.000 C 
ENDROOT
BRANCH   1   2
ATOM      2  C   UNL     1       5.962   5.778  15.806  0.00  0.00    +0.000 C 
ATOM      3  O   UNL     1       5.225   6.796  15.521  0.00  0.00    +0.000 OA
ATOM      4  O   UNL     1       6.725   5.235  14.972  0.00  0.00    +0.000 OA
ENDBRANCH   1   2
BRANCH   1   5
ATOM      5  S   UNL     1       4.452   3.862  17.066  0.00  0.00    +0.000 S 
BRANCH   5   6
ATOM      6  C   UNL     1       2.988   4.780  17.681  0.00  0.00    +0.000 C 
BRANCH   6   8
ATOM      7  O   UNL     1       2.127   2.640  17.365  0.00  0.00    +0.000 OA
ATOM      8  C   UNL     1       2.014   3.702  18.093  0.00  0.00    +0.000 C 
ATOM      9  O   UNL     1       1.226   3.930  19.051  0.00  0.00    +0.000 OA
ENDBRANCH   6   8
ENDBRANCH   5   6
ENDBRANCH   1   5
BRANCH   1  10
ATOM     10  C   UNL     1       6.950   4.676  18.015  0.00  0.00    +0.000 C 
BRANCH  10  11
ATOM     11  C   UNL     1       7.485   5.762  18.970  0.00  0.00    +0.000 C 
ATOM     12  O   UNL     1       8.028   6.787  18.458  0.00  0.00    +0.000 OA
ATOM     13  O   UNL     1       7.556   5.414  20.180  0.00  0.00    +0.000 OA
ENDBRANCH  10  11
BRANCH  10  14
ATOM     14  O   UNL     1       8.042   4.247  17.172  0.00  0.00    +0.000 OA
ATOM     15  H   UNL     1       8.808   4.762  17.519  0.00  0.00    +0.000 HD
ENDBRANCH  10  14
ENDBRANCH   1  10
TORSDOF 7
ENDMDL
MODEL 7
REMARK VINA RESULT:      -5.3      1.217      1.585
REMARK  Name = 
REMARK  7 active torsions:
REMARK  status: ('A' for Active; 'I' for Inactive)
REMARK    1  A    between atoms: C_2  and  C_4
REMARK    2  A    between atoms: C_4  and  S_5
REMARK    3  A    between atoms: S_5  and  C_6
REMARK    4  A    between atoms: C_6  and  C_7
REMARK    5  A    between atoms: C_6  and  C_10
REMARK    6  A    between atoms: C_10  and  O_11
REMARK    7  A    between atoms: C_10  and  C_12
REMARK                            x       y       z     vdW  Elec       q    Type
REMARK                         _______ _______ _______ _____ _____    ______ ____
ROOT
ATOM      1  C   UNL     1       6.067   5.047  16.318  0.00  0.00    +0.000 C 
ENDROOT
BRANCH   1   2
ATOM      2  C   UNL     1       6.558   4.780  14.873  0.00  0.00    +0.000 C 
ATOM      3  O   UNL     1       5.838   3.968  14.178  0.00  0.00    +0.000 OA
ATOM      4  O   UNL     1       7.643   5.254  14.460  0.00  0.00    +0.000 OA
ENDBRANCH   1   2
BRANCH   1   5
ATOM      5  S   UNL     1       4.595   3.947  16.604  0.00  0.00    +0.000 S 
BRANCH   5   6
ATOM      6  C   UNL     1       3.537   5.061  17.605  0.00  0.00    +0.000 C 
BRANCH   6   8
ATOM      7  O   UNL     1       2.098   3.325  17.026  0.00  0.00    +0.000 OA
ATOM      8  C   UNL     1       2.312   4.236  17.918  0.00  0.00    +0.000 C 
ATOM      9  O   UNL     1       1.651   4.500  18.958  0.00  0.00    +0.000 OA
ENDBRANCH   6   8
ENDBRANCH   5   6
ENDBRANCH   1   5
BRANCH   1  10
ATOM     10  C   UNL     1       7.037   4.983  17.481  0.00  0.00    +0.000 C 
BRANCH  10  11
ATOM     11  C   UNL     1       7.576   6.379  17.846  0.00  0.00    +0.000 C 
ATOM     12  O   UNL     1       7.716   7.224  16.910  0.00  0.00    +0.000 OA
ATOM     13  O   UNL     1       8.064   6.474  19.005  0.00  0.00    +0.000 OA
ENDBRANCH  10  11
BRANCH  10  14
ATOM     14  O   UNL     1       8.167   4.124  17.213  0.00  0.00    +0.000 OA
ATOM     15  H   UNL     1       8.781   4.323  17.959  0.00  0.00    +0.000 HD
ENDBRANCH  10  14
ENDBRANCH   1  10
TORSDOF 7
ENDMDL
MODEL 8
REMARK VINA RESULT:      -5.3      1.106      1.504
REMARK  Name = 
REMARK  7 active torsions:
REMARK  status: ('A' for Active; 'I' for Inactive)
REMARK    1  A    between atoms: C_2  and  C_4
REMARK    2  A    between atoms: C_4  and  S_5
REMARK    3  A    between atoms: S_5  and  C_6
REMARK    4  A    between atoms: C_6  and  C_7
REMARK    5  A    between atoms: C_6  and  C_10
REMARK    6  A    between atoms: C_10  and  O_11
REMARK    7  A    between atoms: C_10  and  C_12
REMARK                            x       y       z     vdW  Elec       q    Type
REMARK                         _______ _______ _______ _____ _____    ______ ____
ROOT
ATOM      1  C   UNL     1       6.108   5.015  16.268  0.00  0.00    +0.000 C 
ENDROOT
BRANCH   1   2
ATOM      2  C   UNL     1       6.666   4.612  14.881  0.00  0.00    +0.000 C 
ATOM      3  O   UNL     1       7.673   5.297  14.460  0.00  0.00    +0.000 OA
ATOM      4  O   UNL     1       6.096   3.739  14.184  0.00  0.00    +0.000 OA
ENDBRANCH   1   2
BRANCH   1   5
ATOM      5  S   UNL     1       4.596   3.975  16.569  0.00  0.00    +0.000 S 
BRANCH   5   6
ATOM      6  C   UNL     1       4.707   3.746  18.386  0.00  0.00    +0.000 C 
BRANCH   6   8
ATOM      7  O   UNL     1       3.632   1.699  18.105  0.00  0.00    +0.000 OA
ATOM      8  C   UNL     1       3.551   2.834  18.721  0.00  0.00    +0.000 C 
ATOM      9  O   UNL     1       2.666   3.243  19.519  0.00  0.00    +0.000 OA
ENDBRANCH   6   8
ENDBRANCH   5   6
ENDBRANCH   1   5
BRANCH   1  10
ATOM     10  C   UNL     1       7.015   5.034  17.483  0.00  0.00    +0.000 C 
BRANCH  10  11
ATOM     11  C   UNL     1       7.525   6.456  17.786  0.00  0.00    +0.000 C 
ATOM     12  O   UNL     1       8.137   6.646  18.880  0.00  0.00    +0.000 OA
ATOM     13  O   UNL     1       7.067   7.355  17.030  0.00  0.00    +0.000 OA
ENDBRANCH  10  11
BRANCH  10  14
ATOM     14  O   UNL     1       8.164   4.171  17.329  0.00  0.00    +0.000 OA
ATOM     15  H   UNL     1       8.198   3.690  18.189  0.00  0.00    +0.000 HD
ENDBRANCH  10  14
ENDBRANCH   1  10
TORSDOF 7
ENDMDL
MODEL 9
REMARK VINA RESULT:      -5.3      1.538      3.536
REMARK  Name = 
REMARK  7 active torsions:
REMARK  status: ('A' for Active; 'I' for Inactive)
REMARK    1  A    between atoms: C_2  and  C_4
REMARK    2  A    between atoms: C_4  and  S_5
REMARK    3  A    between atoms: S_5  and  C_6
REMARK    4  A    between atoms: C_6  and  C_7
REMARK    5  A    between atoms: C_6  and  C_10
REMARK    6  A    between atoms: C_10  and  O_11
REMARK    7  A    between atoms: C_10  and  C_12
REMARK                            x       y       z     vdW  Elec       q    Type
REMARK                         _______ _______ _______ _____ _____    ______ ____
ROOT
ATOM      1  C   UNL     1       6.045   4.655  16.841  0.00  0.00    +0.000 C 
ENDROOT
BRANCH   1   2
ATOM      2  C   UNL     1       7.317   5.214  17.529  0.00  0.00    +0.000 C 
ATOM      3  O   UNL     1       7.876   4.435  18.391  0.00  0.00    +0.000 OA
ATOM      4  O   UNL     1       7.702   6.388  17.320  0.00  0.00    +0.000 OA
ENDBRANCH   1   2
BRANCH   1   5
ATOM      5  S   UNL     1       4.644   4.859  18.046  0.00  0.00    +0.000 S 
BRANCH   5   6
ATOM      6  C   UNL     1       4.062   3.124  18.175  0.00  0.00    +0.000 C 
BRANCH   6   8
ATOM      7  O   UNL     1       2.986   3.333  20.230  0.00  0.00    +0.000 OA
ATOM      8  C   UNL     1       4.038   2.844  19.658  0.00  0.00    +0.000 C 
ATOM      9  O   UNL     1       4.994   2.201  20.170  0.00  0.00    +0.000 OA
ENDBRANCH   6   8
ENDBRANCH   5   6
ENDBRANCH   1   5
BRANCH   1  10
ATOM     10  C   UNL     1       5.654   5.127  15.455  0.00  0.00    +0.000 C 
BRANCH  10  11
ATOM     11  C   UNL     1       6.674   4.671  14.394  0.00  0.00    +0.000 C 
ATOM     12  O   UNL     1       7.649   5.441  14.139  0.00  0.00    +0.000 OA
ATOM     13  O   UNL     1       6.309   3.686  13.697  0.00  0.00    +0.000 OA
ENDBRANCH  10  11
BRANCH  10  14
ATOM     14  O   UNL     1       5.535   6.564  15.372  0.00  0.00    +0.000 OA
ATOM     15  H   UNL     1       6.368   6.882  15.793  0.00  0.00    +0.000 HD
ENDBRANCH  10  14
ENDBRANCH   1  10
TORSDOF 7
ENDMDL
