MODEL 1
REMARK VINA RESULT:      -8.5      0.000      0.000
REMARK  Name = 
REMARK  2 active torsions:
REMARK  status: ('A' for Active; 'I' for Inactive)
REMARK    1  A    between atoms: C_2  and  C_5
REMARK    2  A    between atoms: C_8  and  N_9
REMARK                            x       y       z     vdW  Elec       q    Type
REMARK                         _______ _______ _______ _____ _____    ______ ____
ROOT
ATOM      1  N   UNL     1       6.460   4.461  18.235  0.00  0.00    +0.000 N 
ATOM      2  C   UNL     1       5.272   4.033  18.841  0.00  0.00    +0.000 A 
ATOM      3  N   UNL     1       5.251   2.741  19.222  0.00  0.00    +0.000 NA
ATOM      4  C   UNL     1       4.193   2.271  19.929  0.00  0.00    +0.000 A 
ATOM      5  C   UNL     1       3.149   3.127  20.262  0.00  0.00    +0.000 A 
ATOM      6  C   UNL     1       1.958   3.053  21.024  0.00  0.00    +0.000 A 
ATOM      7  C   UNL     1       1.398   4.313  21.033  0.00  0.00    +0.000 A 
ATOM      8  N   UNL     1       2.158   5.147  20.226  0.00  0.00    +0.000 N 
ATOM      9  C   UNL     1       1.882   6.527  19.993  0.00  0.00    +0.000 A 
ATOM     10  C   UNL     1       2.329   7.141  18.825  0.00  0.00    +0.000 A 
ATOM     11  C   UNL     1       2.102   8.504  18.650  0.00  0.00    +0.000 A 
ATOM     12  C   UNL     1       1.455   9.219  19.648  0.00  0.00    +0.000 A 
ATOM     13  C   UNL     1       1.022   8.530  20.768  0.00  0.00    +0.000 A 
ATOM     14  N   UNL     1       1.187   7.199  20.950  0.00  0.00    +0.000 NA
ATOM     15  C   UNL     1       3.246   4.420  19.771  0.00  0.00    +0.000 A 
ATOM     16  N   UNL     1       4.276   4.896  19.056  0.00  0.00    +0.000 NA
ATOM     17  H   UNL     1       7.118   3.694  18.284  0.00  0.00    +0.000 HD
ENDROOT
BRANCH   1  21
ATOM     18  C   UNL     1       8.142   8.365  18.147  0.00  0.00    +0.000 A 
ATOM     19  C   UNL     1       8.528   7.426  19.112  0.00  0.00    +0.000 A 
ATOM     20  C   UNL     1       7.983   6.133  19.110  0.00  0.00    +0.000 A 
ATOM     21  C   UNL     1       7.022   5.749  18.164  0.00  0.00    +0.000 A 
ATOM     22  C   UNL     1       6.700   6.678  17.169  0.00  0.00    +0.000 A 
ATOM     23  C   UNL     1       7.237   7.970  17.162  0.00  0.00    +0.000 A 
BRANCH  18  25
ATOM     24  F   UNL     1       9.763   9.962  17.374  0.00  0.00    +0.000 F 
ATOM     25  C   UNL     1       8.660   9.780  18.151  0.00  0.00    +0.000 C 
ATOM     26  F   UNL     1       9.010  10.200  19.400  0.00  0.00    +0.000 F 
ATOM     27  F   UNL     1       7.736  10.676  17.705  0.00  0.00    +0.000 F 
ENDBRANCH  18  25
ENDBRANCH   1  21
TORSDOF 2
ENDMDL
MODEL 2
REMARK VINA RESULT:      -8.4      4.211      6.775
REMARK  Name = 
REMARK  2 active torsions:
REMARK  status: ('A' for Active; 'I' for Inactive)
REMARK    1  A    between atoms: C_2  and  C_5
REMARK    2  A    between atoms: C_8  and  N_9
REMARK                            x       y       z     vdW  Elec       q    Type
REMARK                         _______ _______ _______ _____ _____    ______ ____
ROOT
ATOM      1  N   UNL     1       2.248   8.647  17.967  0.00  0.00    +0.000 N 
ATOM      2  C   UNL     1       3.015   7.536  17.595  0.00  0.00    +0.000 A 
ATOM      3  N   UNL     1       3.935   7.763  16.637  0.00  0.00    +0.000 NA
ATOM      4  C   UNL     1       4.808   6.780  16.303  0.00  0.00    +0.000 A 
ATOM      5  C   UNL     1       4.752   5.555  16.958  0.00  0.00    +0.000 A 
ATOM      6  C   UNL     1       5.501   4.353  16.963  0.00  0.00    +0.000 A 
ATOM      7  C   UNL     1       4.961   3.538  17.935  0.00  0.00    +0.000 A 
ATOM      8  N   UNL     1       3.845   4.160  18.473  0.00  0.00    +0.000 N 
ATOM      9  C   UNL     1       3.027   3.613  19.506  0.00  0.00    +0.000 A 
ATOM     10  C   UNL     1       1.695   4.006  19.624  0.00  0.00    +0.000 A 
ATOM     11  C   UNL     1       0.935   3.506  20.678  0.00  0.00    +0.000 A 
ATOM     12  C   UNL     1       1.526   2.647  21.594  0.00  0.00    +0.000 A 
ATOM     13  C   UNL     1       2.848   2.288  21.393  0.00  0.00    +0.000 A 
ATOM     14  N   UNL     1       3.601   2.720  20.356  0.00  0.00    +0.000 NA
ATOM     15  C   UNL     1       3.732   5.410  17.886  0.00  0.00    +0.000 A 
ATOM     16  N   UNL     1       2.850   6.365  18.215  0.00  0.00    +0.000 NA
ATOM     17  H   UNL     1       2.616   9.448  17.471  0.00  0.00    +0.000 HD
ENDROOT
BRANCH   1  21
ATOM     18  C   UNL     1       0.295   9.608  21.619  0.00  0.00    +0.000 A 
ATOM     19  C   UNL     1       0.104  10.378  20.465  0.00  0.00    +0.000 A 
ATOM     20  C   UNL     1       0.735  10.031  19.261  0.00  0.00    +0.000 A 
ATOM     21  C   UNL     1       1.591   8.924  19.180  0.00  0.00    +0.000 A 
ATOM     22  C   UNL     1       1.716   8.129  20.324  0.00  0.00    +0.000 A 
ATOM     23  C   UNL     1       1.092   8.467  21.530  0.00  0.00    +0.000 A 
BRANCH  18  25
ATOM     24  F   UNL     1      -0.508  11.320  23.102  0.00  0.00    +0.000 F 
ATOM     25  C   UNL     1      -0.317   9.981  22.944  0.00  0.00    +0.000 C 
ATOM     26  F   UNL     1       0.452   9.588  24.000  0.00  0.00    +0.000 F 
ATOM     27  F   UNL     1      -1.535   9.403  23.139  0.00  0.00    +0.000 F 
ENDBRANCH  18  25
ENDBRANCH   1  21
TORSDOF 2
ENDMDL
MODEL 3
REMARK VINA RESULT:      -8.2      4.241      6.693
REMARK  Name = 
REMARK  2 active torsions:
REMARK  status: ('A' for Active; 'I' for Inactive)
REMARK    1  A    between atoms: C_2  and  C_5
REMARK    2  A    between atoms: C_8  and  N_9
REMARK                            x       y       z     vdW  Elec       q    Type
REMARK                         _______ _______ _______ _____ _____    ______ ____
ROOT
ATOM      1  N   UNL     1       2.359   8.670  17.894  0.00  0.00    +0.000 N 
ATOM      2  C   UNL     1       3.083   7.534  17.509  0.00  0.00    +0.000 A 
ATOM      3  N   UNL     1       3.991   7.730  16.532  0.00  0.00    +0.000 NA
ATOM      4  C   UNL     1       4.825   6.719  16.183  0.00  0.00    +0.000 A 
ATOM      5  C   UNL     1       4.743   5.497  16.842  0.00  0.00    +0.000 A 
ATOM      6  C   UNL     1       5.453   4.272  16.833  0.00  0.00    +0.000 A 
ATOM      7  C   UNL     1       4.906   3.476  17.817  0.00  0.00    +0.000 A 
ATOM      8  N   UNL     1       3.821   4.134  18.376  0.00  0.00    +0.000 N 
ATOM      9  C   UNL     1       3.007   3.615  19.426  0.00  0.00    +0.000 A 
ATOM     10  C   UNL     1       1.691   4.050  19.570  0.00  0.00    +0.000 A 
ATOM     11  C   UNL     1       0.937   3.576  20.640  0.00  0.00    +0.000 A 
ATOM     12  C   UNL     1       1.518   2.700  21.546  0.00  0.00    +0.000 A 
ATOM     13  C   UNL     1       2.823   2.298  21.319  0.00  0.00    +0.000 A 
ATOM     14  N   UNL     1       3.569   2.705  20.266  0.00  0.00    +0.000 NA
ATOM     15  C   UNL     1       3.737   5.386  17.789  0.00  0.00    +0.000 A 
ATOM     16  N   UNL     1       2.892   6.369  18.134  0.00  0.00    +0.000 NA
ATOM     17  H   UNL     1       2.743   9.458  17.389  0.00  0.00    +0.000 HD
ENDROOT
BRANCH   1  21
ATOM     18  C   UNL     1       0.431   9.452  21.601  0.00  0.00    +0.000 A 
ATOM     19  C   UNL     1       1.194   8.294  21.406  0.00  0.00    +0.000 A 
ATOM     20  C   UNL     1       1.846   8.065  20.185  0.00  0.00    +0.000 A 
ATOM     21  C   UNL     1       1.736   8.969  19.119  0.00  0.00    +0.000 A 
ATOM     22  C   UNL     1       1.026  10.151  19.356  0.00  0.00    +0.000 A 
ATOM     23  C   UNL     1       0.372  10.389  20.570  0.00  0.00    +0.000 A 
BRANCH  18  25
ATOM     24  F   UNL     1       0.432   9.613  23.999  0.00  0.00    +0.000 F 
ATOM     25  C   UNL     1      -0.332   9.706  22.876  0.00  0.00    +0.000 C 
ATOM     26  F   UNL     1      -1.358   8.826  23.050  0.00  0.00    +0.000 F 
ATOM     27  F   UNL     1      -0.897  10.945  22.909  0.00  0.00    +0.000 F 
ENDBRANCH  18  25
ENDBRANCH   1  21
TORSDOF 2
ENDMDL
MODEL 4
REMARK VINA RESULT:      -8.1      0.728      1.063
REMARK  Name = 
REMARK  2 active torsions:
REMARK  status: ('A' for Active; 'I' for Inactive)
REMARK    1  A    between atoms: C_2  and  C_5
REMARK    2  A    between atoms: C_8  and  N_9
REMARK                            x       y       z     vdW  Elec       q    Type
REMARK                         _______ _______ _______ _____ _____    ______ ____
ROOT
ATOM      1  N   UNL     1       6.660   5.112  18.299  0.00  0.00    +0.000 N 
ATOM      2  C   UNL     1       5.432   4.689  18.823  0.00  0.00    +0.000 A 
ATOM      3  N   UNL     1       5.401   3.417  19.268  0.00  0.00    +0.000 NA
ATOM      4  C   UNL     1       4.294   2.960  19.907  0.00  0.00    +0.000 A 
ATOM      5  C   UNL     1       3.211   3.809  20.106  0.00  0.00    +0.000 A 
ATOM      6  C   UNL     1       1.961   3.748  20.768  0.00  0.00    +0.000 A 
ATOM      7  C   UNL     1       1.382   4.995  20.665  0.00  0.00    +0.000 A 
ATOM      8  N   UNL     1       2.193   5.803  19.883  0.00  0.00    +0.000 N 
ATOM      9  C   UNL     1       1.914   7.164  19.557  0.00  0.00    +0.000 A 
ATOM     10  C   UNL     1       2.449   7.728  18.401  0.00  0.00    +0.000 A 
ATOM     11  C   UNL     1       2.213   9.075  18.137  0.00  0.00    +0.000 A 
ATOM     12  C   UNL     1       1.472   9.825  19.039  0.00  0.00    +0.000 A 
ATOM     13  C   UNL     1       0.957   9.183  20.152  0.00  0.00    +0.000 A 
ATOM     14  N   UNL     1       1.129   7.868  20.416  0.00  0.00    +0.000 NA
ATOM     15  C   UNL     1       3.328   5.078  19.559  0.00  0.00    +0.000 A 
ATOM     16  N   UNL     1       4.407   5.540  18.909  0.00  0.00    +0.000 NA
ATOM     17  H   UNL     1       7.324   4.362  18.442  0.00  0.00    +0.000 HD
ENDROOT
BRANCH   1  21
ATOM     18  C   UNL     1       8.307   9.029  18.155  0.00  0.00    +0.000 A 
ATOM     19  C   UNL     1       8.838   8.045  18.998  0.00  0.00    +0.000 A 
ATOM     20  C   UNL     1       8.300   6.749  19.013  0.00  0.00    +0.000 A 
ATOM     21  C   UNL     1       7.204   6.406  18.208  0.00  0.00    +0.000 A 
ATOM     22  C   UNL     1       6.731   7.382  17.325  0.00  0.00    +0.000 A 
ATOM     23  C   UNL     1       7.260   8.677  17.303  0.00  0.00    +0.000 A 
BRANCH  18  25
ATOM     24  F   UNL     1       8.978  10.973  19.398  0.00  0.00    +0.000 F 
ATOM     25  C   UNL     1       8.819  10.446  18.153  0.00  0.00    +0.000 C 
ATOM     26  F   UNL     1       7.983  11.298  17.492  0.00  0.00    +0.000 F 
ATOM     27  F   UNL     1      10.028  10.564  17.538  0.00  0.00    +0.000 F 
ENDBRANCH  18  25
ENDBRANCH   1  21
TORSDOF 2
ENDMDL
MODEL 5
REMARK VINA RESULT:      -7.9      3.023      5.792
REMARK  Name = 
REMARK  2 active torsions:
REMARK  status: ('A' for Active; 'I' for Inactive)
REMARK    1  A    between atoms: C_2  and  C_5
REMARK    2  A    between atoms: C_8  and  N_9
REMARK                            x       y       z     vdW  Elec       q    Type
REMARK                         _______ _______ _______ _____ _____    ______ ____
ROOT
ATOM      1  N   UNL     1       1.581   6.172  21.221  0.00  0.00    +0.000 N 
ATOM      2  C   UNL     1       2.059   4.968  20.687  0.00  0.00    +0.000 A 
ATOM      3  N   UNL     1       1.532   3.849  21.222  0.00  0.00    +0.000 NA
ATOM      4  C   UNL     1       1.839   2.643  20.683  0.00  0.00    +0.000 A 
ATOM      5  C   UNL     1       2.684   2.573  19.581  0.00  0.00    +0.000 A 
ATOM      6  C   UNL     1       3.165   1.564  18.712  0.00  0.00    +0.000 A 
ATOM      7  C   UNL     1       3.917   2.186  17.738  0.00  0.00    +0.000 A 
ATOM      8  N   UNL     1       3.992   3.541  18.026  0.00  0.00    +0.000 N 
ATOM      9  C   UNL     1       4.690   4.503  17.237  0.00  0.00    +0.000 A 
ATOM     10  C   UNL     1       5.159   5.677  17.822  0.00  0.00    +0.000 A 
ATOM     11  C   UNL     1       5.782   6.629  17.019  0.00  0.00    +0.000 A 
ATOM     12  C   UNL     1       5.901   6.394  15.656  0.00  0.00    +0.000 A 
ATOM     13  C   UNL     1       5.430   5.192  15.157  0.00  0.00    +0.000 A 
ATOM     14  N   UNL     1       4.861   4.228  15.916  0.00  0.00    +0.000 NA
ATOM     15  C   UNL     1       3.214   3.779  19.148  0.00  0.00    +0.000 A 
ATOM     16  N   UNL     1       2.935   4.978  19.679  0.00  0.00    +0.000 NA
ATOM     17  H   UNL     1       0.844   5.942  21.874  0.00  0.00    +0.000 HD
ENDROOT
BRANCH   1  21
ATOM     18  C   UNL     1       1.239  10.045  19.501  0.00  0.00    +0.000 A 
ATOM     19  C   UNL     1       0.817   9.789  20.812  0.00  0.00    +0.000 A 
ATOM     20  C   UNL     1       0.962   8.511  21.373  0.00  0.00    +0.000 A 
ATOM     21  C   UNL     1       1.508   7.450  20.637  0.00  0.00    +0.000 A 
ATOM     22  C   UNL     1       1.985   7.742  19.355  0.00  0.00    +0.000 A 
ATOM     23  C   UNL     1       1.845   9.013  18.786  0.00  0.00    +0.000 A 
BRANCH  18  25
ATOM     24  F   UNL     1      -0.142  11.513  18.193  0.00  0.00    +0.000 F 
ATOM     25  C   UNL     1       1.047  11.387  18.844  0.00  0.00    +0.000 C 
ATOM     26  F   UNL     1       2.010  11.652  17.915  0.00  0.00    +0.000 F 
ATOM     27  F   UNL     1       1.098  12.418  19.733  0.00  0.00    +0.000 F 
ENDBRANCH  18  25
ENDBRANCH   1  21
TORSDOF 2
ENDMDL
MODEL 6
REMARK VINA RESULT:      -7.8      0.176      1.194
REMARK  Name = 
REMARK  2 active torsions:
REMARK  status: ('A' for Active; 'I' for Inactive)
REMARK    1  A    between atoms: C_2  and  C_5
REMARK    2  A    between atoms: C_8  and  N_9
REMARK                            x       y       z     vdW  Elec       q    Type
REMARK                         _______ _______ _______ _____ _____    ______ ____
ROOT
ATOM      1  N   UNL     1       6.479   4.532  18.267  0.00  0.00    +0.000 N 
ATOM      2  C   UNL     1       5.293   4.051  18.836  0.00  0.00    +0.000 A 
ATOM      3  N   UNL     1       5.292   2.740  19.148  0.00  0.00    +0.000 NA
ATOM      4  C   UNL     1       4.236   2.214  19.818  0.00  0.00    +0.000 A 
ATOM      5  C   UNL     1       3.173   3.032  20.184  0.00  0.00    +0.000 A 
ATOM      6  C   UNL     1       1.976   2.896  20.928  0.00  0.00    +0.000 A 
ATOM      7  C   UNL     1       1.393   4.144  20.997  0.00  0.00    +0.000 A 
ATOM      8  N   UNL     1       2.145   5.033  20.244  0.00  0.00    +0.000 N 
ATOM      9  C   UNL     1       1.845   6.418  20.081  0.00  0.00    +0.000 A 
ATOM     10  C   UNL     1       2.293   7.101  18.952  0.00  0.00    +0.000 A 
ATOM     11  C   UNL     1       2.042   8.467  18.846  0.00  0.00    +0.000 A 
ATOM     12  C   UNL     1       1.372   9.116  19.874  0.00  0.00    +0.000 A 
ATOM     13  C   UNL     1       0.940   8.361  20.951  0.00  0.00    +0.000 A 
ATOM     14  N   UNL     1       1.129   7.026  21.064  0.00  0.00    +0.000 NA
ATOM     15  C   UNL     1       3.251   4.351  19.763  0.00  0.00    +0.000 A 
ATOM     16  N   UNL     1       4.279   4.883  19.085  0.00  0.00    +0.000 NA
ATOM     17  H   UNL     1       7.150   3.776  18.283  0.00  0.00    +0.000 HD
ENDROOT
BRANCH   1  21
ATOM     18  C   UNL     1       8.113   8.455  18.147  0.00  0.00    +0.000 A 
ATOM     19  C   UNL     1       7.075   8.070  17.288  0.00  0.00    +0.000 A 
ATOM     20  C   UNL     1       6.529   6.780  17.360  0.00  0.00    +0.000 A 
ATOM     21  C   UNL     1       7.017   5.832  18.270  0.00  0.00    +0.000 A 
ATOM     22  C   UNL     1       8.006   6.255  19.163  0.00  0.00    +0.000 A 
ATOM     23  C   UNL     1       8.558   7.540  19.100  0.00  0.00    +0.000 A 
BRANCH  18  25
ATOM     24  F   UNL     1       9.288  10.243  19.241  0.00  0.00    +0.000 F 
ATOM     25  C   UNL     1       8.764   9.811  18.061  0.00  0.00    +0.000 C 
ATOM     26  F   UNL     1       7.892  10.781  17.663  0.00  0.00    +0.000 F 
ATOM     27  F   UNL     1       9.788   9.844  17.163  0.00  0.00    +0.000 F 
ENDBRANCH  18  25
ENDBRANCH   1  21
TORSDOF 2
ENDMDL
MODEL 7
REMARK VINA RESULT:      -7.0      5.936      9.734
REMARK  Name = 
REMARK  2 active torsions:
REMARK  status: ('A' for Active; 'I' for Inactive)
REMARK    1  A    between atoms: C_2  and  C_5
REMARK    2  A    between atoms: C_8  and  N_9
REMARK                            x       y       z     vdW  Elec       q    Type
REMARK                         _______ _______ _______ _____ _____    ______ ____
ROOT
ATOM      1  N   UNL     1      -2.871  12.295  19.405  0.00  0.00    +0.000 N 
ATOM      2  C   UNL     1      -2.083  11.813  20.458  0.00  0.00    +0.000 A 
ATOM      3  N   UNL     1      -2.502  12.149  21.694  0.00  0.00    +0.000 NA
ATOM      4  C   UNL     1      -1.876  11.624  22.777  0.00  0.00    +0.000 A 
ATOM      5  C   UNL     1      -0.817  10.739  22.601  0.00  0.00    +0.000 A 
ATOM      6  C   UNL     1       0.010   9.944  23.431  0.00  0.00    +0.000 A 
ATOM      7  C   UNL     1       0.828   9.203  22.604  0.00  0.00    +0.000 A 
ATOM      8  N   UNL     1       0.595   9.579  21.289  0.00  0.00    +0.000 N 
ATOM      9  C   UNL     1       1.261   9.026  20.155  0.00  0.00    +0.000 A 
ATOM     10  C   UNL     1       1.376   9.770  18.982  0.00  0.00    +0.000 A 
ATOM     11  C   UNL     1       1.974   9.185  17.869  0.00  0.00    +0.000 A 
ATOM     12  C   UNL     1       2.421   7.873  17.948  0.00  0.00    +0.000 A 
ATOM     13  C   UNL     1       2.290   7.211  19.156  0.00  0.00    +0.000 A 
ATOM     14  N   UNL     1       1.754   7.764  20.269  0.00  0.00    +0.000 NA
ATOM     15  C   UNL     1      -0.433  10.508  21.289  0.00  0.00    +0.000 A 
ATOM     16  N   UNL     1      -1.029  11.032  20.209  0.00  0.00    +0.000 NA
ATOM     17  H   UNL     1      -3.677  12.750  19.814  0.00  0.00    +0.000 HD
ENDROOT
BRANCH   1  21
ATOM     18  C   UNL     1      -3.500  10.685  15.521  0.00  0.00    +0.000 A 
ATOM     19  C   UNL     1      -4.569  11.143  16.302  0.00  0.00    +0.000 A 
ATOM     20  C   UNL     1      -4.340  11.697  17.571  0.00  0.00    +0.000 A 
ATOM     21  C   UNL     1      -3.047  11.786  18.105  0.00  0.00    +0.000 A 
ATOM     22  C   UNL     1      -1.988  11.386  17.283  0.00  0.00    +0.000 A 
ATOM     23  C   UNL     1      -2.205  10.832  16.017  0.00  0.00    +0.000 A 
BRANCH  18  25
ATOM     24  F   UNL     1      -4.433   8.880  14.238  0.00  0.00    +0.000 F 
ATOM     25  C   UNL     1      -3.709  10.031  14.179  0.00  0.00    +0.000 C 
ATOM     26  F   UNL     1      -2.532   9.702  13.575  0.00  0.00    +0.000 F 
ATOM     27  F   UNL     1      -4.363  10.840  13.299  0.00  0.00    +0.000 F 
ENDBRANCH  18  25
ENDBRANCH   1  21
TORSDOF 2
ENDMDL
MODEL 8
REMARK VINA RESULT:      -6.8      7.196     10.538
REMARK  Name = 
REMARK  2 active torsions:
REMARK  status: ('A' for Active; 'I' for Inactive)
REMARK    1  A    between atoms: C_2  and  C_5
REMARK    2  A    between atoms: C_8  and  N_9
REMARK                            x       y       z     vdW  Elec       q    Type
REMARK                         _______ _______ _______ _____ _____    ______ ____
ROOT
ATOM      1  N   UNL     1      -3.826  11.607  17.125  0.00  0.00    +0.000 N 
ATOM      2  C   UNL     1      -4.893  11.950  17.965  0.00  0.00    +0.000 A 
ATOM      3  N   UNL     1      -6.120  11.830  17.419  0.00  0.00    +0.000 NA
ATOM      4  C   UNL     1      -7.217  12.018  18.194  0.00  0.00    +0.000 A 
ATOM      5  C   UNL     1      -7.066  12.322  19.543  0.00  0.00    +0.000 A 
ATOM      6  C   UNL     1      -7.917  12.504  20.660  0.00  0.00    +0.000 A 
ATOM      7  C   UNL     1      -7.110  12.699  21.761  0.00  0.00    +0.000 A 
ATOM      8  N   UNL     1      -5.787  12.731  21.348  0.00  0.00    +0.000 N 
ATOM      9  C   UNL     1      -4.668  12.916  22.214  0.00  0.00    +0.000 A 
ATOM     10  C   UNL     1      -3.481  13.449  21.716  0.00  0.00    +0.000 A 
ATOM     11  C   UNL     1      -2.383  13.561  22.567  0.00  0.00    +0.000 A 
ATOM     12  C   UNL     1      -2.493  13.121  23.878  0.00  0.00    +0.000 A 
ATOM     13  C   UNL     1      -3.714  12.626  24.301  0.00  0.00    +0.000 A 
ATOM     14  N   UNL     1      -4.811  12.544  23.514  0.00  0.00    +0.000 NA
ATOM     15  C   UNL     1      -5.761  12.477  19.986  0.00  0.00    +0.000 A 
ATOM     16  N   UNL     1      -4.666  12.312  19.230  0.00  0.00    +0.000 NA
ATOM     17  H   UNL     1      -4.220  11.246  16.267  0.00  0.00    +0.000 HD
ENDROOT
BRANCH   1  21
ATOM     18  C   UNL     1       0.026  10.100  18.107  0.00  0.00    +0.000 A 
ATOM     19  C   UNL     1      -0.758   9.503  17.112  0.00  0.00    +0.000 A 
ATOM     20  C   UNL     1      -2.016  10.030  16.781  0.00  0.00    +0.000 A 
ATOM     21  C   UNL     1      -2.536  11.148  17.449  0.00  0.00    +0.000 A 
ATOM     22  C   UNL     1      -1.710  11.769  18.392  0.00  0.00    +0.000 A 
ATOM     23  C   UNL     1      -0.454  11.252  18.729  0.00  0.00    +0.000 A 
BRANCH  18  25
ATOM     24  F   UNL     1       1.532   9.497  19.880  0.00  0.00    +0.000 F 
ATOM     25  C   UNL     1       1.355   9.530  18.531  0.00  0.00    +0.000 C 
ATOM     26  F   UNL     1       2.407  10.242  18.034  0.00  0.00    +0.000 F 
ATOM     27  F   UNL     1       1.538   8.251  18.098  0.00  0.00    +0.000 F 
ENDBRANCH  18  25
ENDBRANCH   1  21
TORSDOF 2
ENDMDL
MODEL 9
REMARK VINA RESULT:      -6.7      7.520     10.708
REMARK  Name = 
REMARK  2 active torsions:
REMARK  status: ('A' for Active; 'I' for Inactive)
REMARK    1  A    between atoms: C_2  and  C_5
REMARK    2  A    between atoms: C_8  and  N_9
REMARK                            x       y       z     vdW  Elec       q    Type
REMARK                         _______ _______ _______ _____ _____    ______ ____
ROOT
ATOM      1  N   UNL     1      -4.433  11.255  17.949  0.00  0.00    +0.000 N 
ATOM      2  C   UNL     1      -5.340  11.644  18.943  0.00  0.00    +0.000 A 
ATOM      3  N   UNL     1      -6.619  11.275  18.735  0.00  0.00    +0.000 NA
ATOM      4  C   UNL     1      -7.544  11.496  19.702  0.00  0.00    +0.000 A 
ATOM      5  C   UNL     1      -7.162  12.091  20.900  0.00  0.00    +0.000 A 
ATOM      6  C   UNL     1      -7.776  12.406  22.136  0.00  0.00    +0.000 A 
ATOM      7  C   UNL     1      -6.796  12.917  22.961  0.00  0.00    +0.000 A 
ATOM      8  N   UNL     1      -5.612  13.011  22.246  0.00  0.00    +0.000 N 
ATOM      9  C   UNL     1      -4.379  13.498  22.774  0.00  0.00    +0.000 A 
ATOM     10  C   UNL     1      -3.422  14.045  21.922  0.00  0.00    +0.000 A 
ATOM     11  C   UNL     1      -2.202  14.456  22.453  0.00  0.00    +0.000 A 
ATOM     12  C   UNL     1      -1.962  14.292  23.810  0.00  0.00    +0.000 A 
ATOM     13  C   UNL     1      -2.973  13.761  24.592  0.00  0.00    +0.000 A 
ATOM     14  N   UNL     1      -4.185  13.393  24.116  0.00  0.00    +0.000 NA
ATOM     15  C   UNL     1      -5.835  12.482  20.985  0.00  0.00    +0.000 A 
ATOM     16  N   UNL     1      -4.912  12.287  20.032  0.00  0.00    +0.000 NA
ATOM     17  H   UNL     1      -4.938  10.680  17.287  0.00  0.00    +0.000 HD
ENDROOT
BRANCH   1  21
ATOM     18  C   UNL     1      -0.272  10.428  18.224  0.00  0.00    +0.000 A 
ATOM     19  C   UNL     1      -1.124   9.631  17.450  0.00  0.00    +0.000 A 
ATOM     20  C   UNL     1      -2.490   9.934  17.348  0.00  0.00    +0.000 A 
ATOM     21  C   UNL     1      -3.048  11.023  18.034  0.00  0.00    +0.000 A 
ATOM     22  C   UNL     1      -2.170  11.845  18.747  0.00  0.00    +0.000 A 
ATOM     23  C   UNL     1      -0.806  11.551  18.855  0.00  0.00    +0.000 A 
BRANCH  18  25
ATOM     24  F   UNL     1       1.670   9.217  17.490  0.00  0.00    +0.000 F 
ATOM     25  C   UNL     1       1.188  10.102  18.406  0.00  0.00    +0.000 C 
ATOM     26  F   UNL     1       1.448   9.552  19.627  0.00  0.00    +0.000 F 
ATOM     27  F   UNL     1       1.985  11.203  18.318  0.00  0.00    +0.000 F 
ENDBRANCH  18  25
ENDBRANCH   1  21
TORSDOF 2
ENDMDL
