MODEL 1
REMARK VINA RESULT:      -9.5      0.000      0.000
REMARK  Name = 
REMARK  6 active torsions:
REMARK  status: ('A' for Active; 'I' for Inactive)
REMARK    1  A    between atoms: C_1  and  C_2
REMARK    2  A    between atoms: N_4  and  C_5
REMARK    3  A    between atoms: C_5  and  C_6
REMARK    4  A    between atoms: C_9  and  C_10
REMARK    5  A    between atoms: C_14  and  C_15
REMARK    6  A    between atoms: C_29  and  C_30
REMARK                            x       y       z     vdW  Elec       q    Type
REMARK                         _______ _______ _______ _____ _____    ______ ____
ROOT
ATOM      1  C   UNL     1       0.783   9.195  21.044  0.00  0.00    +0.000 A 
ATOM      2  C   UNL     1       0.086   8.977  22.239  0.00  0.00    +0.000 A 
ATOM      3  C   UNL     1      -0.553  10.033  22.911  0.00  0.00    +0.000 A 
ATOM      4  C   UNL     1      -0.531  11.336  22.391  0.00  0.00    +0.000 A 
ATOM      5  C   UNL     1       0.143  11.583  21.200  0.00  0.00    +0.000 A 
ATOM      6  C   UNL     1       0.807  10.512  20.572  0.00  0.00    +0.000 A 
ENDROOT
BRANCH   5   7
ATOM      7  C   UNL     1       0.230  12.874  20.506  0.00  0.00    +0.000 A 
ATOM      8  N   UNL     1       1.327  13.262  19.882  0.00  0.00    +0.000 NA
ATOM      9  C   UNL     1       1.083  14.499  19.384  0.00  0.00    +0.000 A 
ATOM     10  C   UNL     1       1.946  15.332  18.668  0.00  0.00    +0.000 A 
ATOM     11  C   UNL     1       1.465  16.578  18.289  0.00  0.00    +0.000 A 
ATOM     12  F   UNL     1       2.272  17.408  17.614  0.00  0.00    +0.000 F 
ATOM     13  C   UNL     1       0.168  16.986  18.599  0.00  0.00    +0.000 A 
ATOM     14  C   UNL     1      -0.712  16.149  19.304  0.00  0.00    +0.000 A 
ATOM     15  C   UNL     1      -0.213  14.902  19.684  0.00  0.00    +0.000 A 
ATOM     16  N   UNL     1      -0.749  13.832  20.375  0.00  0.00    +0.000 N 
ATOM     17  H   UNL     1      -1.689  13.772  20.735  0.00  0.00    +0.000 HD
ENDBRANCH   5   7
BRANCH   1  21
ATOM     18  C   UNL     1       2.775   6.049  18.836  0.00  0.00    +0.000 A 
ATOM     19  C   UNL     1       2.229   5.797  20.095  0.00  0.00    +0.000 A 
ATOM     20  C   UNL     1       1.589   6.819  20.803  0.00  0.00    +0.000 A 
ATOM     21  C   UNL     1       1.462   8.124  20.279  0.00  0.00    +0.000 A 
ATOM     22  C   UNL     1       1.986   8.349  18.999  0.00  0.00    +0.000 A 
ATOM     23  C   UNL     1       2.636   7.332  18.290  0.00  0.00    +0.000 A 
BRANCH  18  24
ATOM     24  C   UNL     1       3.550   4.984  18.092  0.00  0.00    +0.000 C 
BRANCH  24  28
ATOM     25  C   UNL     1       7.631   6.791  17.925  0.00  0.00    +0.000 C 
ATOM     26  C   UNL     1       7.353   5.287  17.909  0.00  0.00    +0.000 C 
ATOM     27  C   UNL     1       5.963   4.927  18.474  0.00  0.00    +0.000 C 
ATOM     28  N   UNL     1       4.872   5.407  17.598  0.00  0.00    +0.000 NA
ATOM     29  C   UNL     1       5.087   4.843  16.245  0.00  0.00    +0.000 C 
ATOM     30  C   UNL     1       6.495   5.142  15.684  0.00  0.00    +0.000 C 
ATOM     31  C   UNL     1       6.713   4.388  14.374  0.00  0.00    +0.000 C 
ATOM     32  O   UNL     1       7.527   4.731  16.593  0.00  0.00    +0.000 OA
ENDBRANCH  24  28
ENDBRANCH  18  24
ENDBRANCH   1  21
TORSDOF 4
ENDMDL
MODEL 2
REMARK VINA RESULT:      -9.4      0.572      1.142
REMARK  Name = 
REMARK  6 active torsions:
REMARK  status: ('A' for Active; 'I' for Inactive)
REMARK    1  A    between atoms: C_1  and  C_2
REMARK    2  A    between atoms: N_4  and  C_5
REMARK    3  A    between atoms: C_5  and  C_6
REMARK    4  A    between atoms: C_9  and  C_10
REMARK    5  A    between atoms: C_14  and  C_15
REMARK    6  A    between atoms: C_29  and  C_30
REMARK                            x       y       z     vdW  Elec       q    Type
REMARK                         _______ _______ _______ _____ _____    ______ ____
ROOT
ATOM      1  C   UNL     1       0.794   9.069  21.025  0.00  0.00    +0.000 A 
ATOM      2  C   UNL     1      -0.039   8.848  22.129  0.00  0.00    +0.000 A 
ATOM      3  C   UNL     1      -0.677   9.916  22.783  0.00  0.00    +0.000 A 
ATOM      4  C   UNL     1      -0.518  11.235  22.333  0.00  0.00    +0.000 A 
ATOM      5  C   UNL     1       0.294  11.486  21.231  0.00  0.00    +0.000 A 
ATOM      6  C   UNL     1       0.951  10.399  20.623  0.00  0.00    +0.000 A 
ENDROOT
BRANCH   5   7
ATOM      7  C   UNL     1       0.536  12.797  20.614  0.00  0.00    +0.000 A 
ATOM      8  N   UNL     1      -0.443  13.526  20.112  0.00  0.00    +0.000 NA
ATOM      9  C   UNL     1       0.122  14.646  19.599  0.00  0.00    +0.000 A 
ATOM     10  C   UNL     1      -0.502  15.708  18.939  0.00  0.00    +0.000 A 
ATOM     11  C   UNL     1       0.306  16.738  18.477  0.00  0.00    +0.000 A 
ATOM     12  F   UNL     1      -0.258  17.765  17.826  0.00  0.00    +0.000 F 
ATOM     13  C   UNL     1       1.688  16.724  18.667  0.00  0.00    +0.000 A 
ATOM     14  C   UNL     1       2.321  15.669  19.342  0.00  0.00    +0.000 A 
ATOM     15  C   UNL     1       1.497  14.638  19.797  0.00  0.00    +0.000 A 
ATOM     16  N   UNL     1       1.734  13.458  20.478  0.00  0.00    +0.000 N 
ATOM     17  H   UNL     1       2.632  13.133  20.802  0.00  0.00    +0.000 HD
ENDBRANCH   5   7
BRANCH   1  21
ATOM     18  C   UNL     1       2.809   5.892  18.882  0.00  0.00    +0.000 A 
ATOM     19  C   UNL     1       2.235   5.653  20.131  0.00  0.00    +0.000 A 
ATOM     20  C   UNL     1       1.589   6.685  20.818  0.00  0.00    +0.000 A 
ATOM     21  C   UNL     1       1.481   7.987  20.282  0.00  0.00    +0.000 A 
ATOM     22  C   UNL     1       2.032   8.199  19.011  0.00  0.00    +0.000 A 
ATOM     23  C   UNL     1       2.689   7.171  18.324  0.00  0.00    +0.000 A 
BRANCH  18  24
ATOM     24  C   UNL     1       3.591   4.816  18.162  0.00  0.00    +0.000 C 
BRANCH  24  28
ATOM     25  C   UNL     1       7.581   6.761  17.668  0.00  0.00    +0.000 C 
ATOM     26  C   UNL     1       7.362   5.249  17.738  0.00  0.00    +0.000 C 
ATOM     27  C   UNL     1       6.023   4.866  18.401  0.00  0.00    +0.000 C 
ATOM     28  N   UNL     1       4.865   5.263  17.570  0.00  0.00    +0.000 NA
ATOM     29  C   UNL     1       5.022   4.643  16.234  0.00  0.00    +0.000 C 
ATOM     30  C   UNL     1       6.383   4.965  15.577  0.00  0.00    +0.000 C 
ATOM     31  C   UNL     1       6.553   4.158  14.293  0.00  0.00    +0.000 C 
ATOM     32  O   UNL     1       7.481   4.637  16.441  0.00  0.00    +0.000 OA
ENDBRANCH  24  28
ENDBRANCH  18  24
ENDBRANCH   1  21
TORSDOF 4
ENDMDL
MODEL 3
REMARK VINA RESULT:      -9.4      3.769      4.703
REMARK  Name = 
REMARK  6 active torsions:
REMARK  status: ('A' for Active; 'I' for Inactive)
REMARK    1  A    between atoms: C_1  and  C_2
REMARK    2  A    between atoms: N_4  and  C_5
REMARK    3  A    between atoms: C_5  and  C_6
REMARK    4  A    between atoms: C_9  and  C_10
REMARK    5  A    between atoms: C_14  and  C_15
REMARK    6  A    between atoms: C_29  and  C_30
REMARK                            x       y       z     vdW  Elec       q    Type
REMARK                         _______ _______ _______ _____ _____    ______ ____
ROOT
ATOM      1  C   UNL     1       0.763  11.068  18.875  0.00  0.00    +0.000 A 
ATOM      2  C   UNL     1       1.481  12.266  18.766  0.00  0.00    +0.000 A 
ATOM      3  C   UNL     1       0.828  13.510  18.802  0.00  0.00    +0.000 A 
ATOM      4  C   UNL     1      -0.562  13.589  18.973  0.00  0.00    +0.000 A 
ATOM      5  C   UNL     1      -1.302  12.418  19.097  0.00  0.00    +0.000 A 
ATOM      6  C   UNL     1      -0.624  11.187  19.015  0.00  0.00    +0.000 A 
ENDROOT
BRANCH   5   7
ATOM      7  C   UNL     1      -2.751  12.328  19.317  0.00  0.00    +0.000 A 
ATOM      8  N   UNL     1      -3.304  12.636  20.475  0.00  0.00    +0.000 NA
ATOM      9  C   UNL     1      -4.636  12.414  20.349  0.00  0.00    +0.000 A 
ATOM     10  C   UNL     1      -5.636  12.570  21.312  0.00  0.00    +0.000 A 
ATOM     11  C   UNL     1      -6.935  12.248  20.943  0.00  0.00    +0.000 A 
ATOM     12  F   UNL     1      -7.917  12.372  21.847  0.00  0.00    +0.000 F 
ATOM     13  C   UNL     1      -7.239  11.792  19.661  0.00  0.00    +0.000 A 
ATOM     14  C   UNL     1      -6.242  11.648  18.682  0.00  0.00    +0.000 A 
ATOM     15  C   UNL     1      -4.940  11.971  19.068  0.00  0.00    +0.000 A 
ATOM     16  N   UNL     1      -3.722  11.955  18.416  0.00  0.00    +0.000 N 
ATOM     17  H   UNL     1      -3.570  11.697  17.453  0.00  0.00    +0.000 HD
ENDBRANCH   5   7
BRANCH   1  21
ATOM     18  C   UNL     1       2.603   7.149  18.868  0.00  0.00    +0.000 A 
ATOM     19  C   UNL     1       1.931   7.616  19.998  0.00  0.00    +0.000 A 
ATOM     20  C   UNL     1       1.342   8.884  19.994  0.00  0.00    +0.000 A 
ATOM     21  C   UNL     1       1.391   9.727  18.862  0.00  0.00    +0.000 A 
ATOM     22  C   UNL     1       2.039   9.227  17.725  0.00  0.00    +0.000 A 
ATOM     23  C   UNL     1       2.640   7.962  17.728  0.00  0.00    +0.000 A 
BRANCH  18  24
ATOM     24  C   UNL     1       3.326   5.821  18.881  0.00  0.00    +0.000 C 
BRANCH  24  28
ATOM     25  C   UNL     1       7.674   6.607  18.231  0.00  0.00    +0.000 C 
ATOM     26  C   UNL     1       7.082   5.228  18.529  0.00  0.00    +0.000 C 
ATOM     27  C   UNL     1       5.693   5.302  19.196  0.00  0.00    +0.000 C 
ATOM     28  N   UNL     1       4.668   5.836  18.273  0.00  0.00    +0.000 NA
ATOM     29  C   UNL     1       4.658   4.989  17.057  0.00  0.00    +0.000 C 
ATOM     30  C   UNL     1       6.053   4.853  16.406  0.00  0.00    +0.000 C 
ATOM     31  C   UNL     1       6.009   3.833  15.271  0.00  0.00    +0.000 C 
ATOM     32  O   UNL     1       7.038   4.405  17.349  0.00  0.00    +0.000 OA
ENDBRANCH  24  28
ENDBRANCH  18  24
ENDBRANCH   1  21
TORSDOF 4
ENDMDL
MODEL 4
REMARK VINA RESULT:      -9.1      3.248      4.584
REMARK  Name = 
REMARK  6 active torsions:
REMARK  status: ('A' for Active; 'I' for Inactive)
REMARK    1  A    between atoms: C_1  and  C_2
REMARK    2  A    between atoms: N_4  and  C_5
REMARK    3  A    between atoms: C_5  and  C_6
REMARK    4  A    between atoms: C_9  and  C_10
REMARK    5  A    between atoms: C_14  and  C_15
REMARK    6  A    between atoms: C_29  and  C_30
REMARK                            x       y       z     vdW  Elec       q    Type
REMARK                         _______ _______ _______ _____ _____    ______ ____
ROOT
ATOM      1  C   UNL     1       0.760  11.122  19.223  0.00  0.00    +0.000 A 
ATOM      2  C   UNL     1       1.273  12.262  18.588  0.00  0.00    +0.000 A 
ATOM      3  C   UNL     1       0.669  13.520  18.756  0.00  0.00    +0.000 A 
ATOM      4  C   UNL     1      -0.452  13.676  19.584  0.00  0.00    +0.000 A 
ATOM      5  C   UNL     1      -0.978  12.567  20.237  0.00  0.00    +0.000 A 
ATOM      6  C   UNL     1      -0.376  11.314  20.016  0.00  0.00    +0.000 A 
ENDROOT
BRANCH   5   7
ATOM      7  C   UNL     1      -2.119  12.566  21.162  0.00  0.00    +0.000 A 
ATOM      8  N   UNL     1      -3.357  12.767  20.748  0.00  0.00    +0.000 NA
ATOM      9  C   UNL     1      -4.151  12.736  21.847  0.00  0.00    +0.000 A 
ATOM     10  C   UNL     1      -5.533  12.922  21.923  0.00  0.00    +0.000 A 
ATOM     11  C   UNL     1      -6.117  12.870  23.182  0.00  0.00    +0.000 A 
ATOM     12  F   UNL     1      -7.439  13.060  23.292  0.00  0.00    +0.000 F 
ATOM     13  C   UNL     1      -5.360  12.634  24.329  0.00  0.00    +0.000 A 
ATOM     14  C   UNL     1      -3.973  12.430  24.260  0.00  0.00    +0.000 A 
ATOM     15  C   UNL     1      -3.399  12.489  22.989  0.00  0.00    +0.000 A 
ATOM     16  N   UNL     1      -2.105  12.353  22.521  0.00  0.00    +0.000 N 
ATOM     17  H   UNL     1      -1.292  12.149  23.081  0.00  0.00    +0.000 HD
ENDBRANCH   5   7
BRANCH   1  21
ATOM     18  C   UNL     1       2.513   7.177  18.902  0.00  0.00    +0.000 A 
ATOM     19  C   UNL     1       1.875   7.577  20.076  0.00  0.00    +0.000 A 
ATOM     20  C   UNL     1       1.313   8.854  20.173  0.00  0.00    +0.000 A 
ATOM     21  C   UNL     1       1.358   9.773  19.102  0.00  0.00    +0.000 A 
ATOM     22  C   UNL     1       1.972   9.341  17.919  0.00  0.00    +0.000 A 
ATOM     23  C   UNL     1       2.544   8.067  17.820  0.00  0.00    +0.000 A 
BRANCH  18  24
ATOM     24  C   UNL     1       3.206   5.836  18.806  0.00  0.00    +0.000 C 
BRANCH  24  28
ATOM     25  C   UNL     1       7.553   6.672  18.220  0.00  0.00    +0.000 C 
ATOM     26  C   UNL     1       6.972   5.284  18.489  0.00  0.00    +0.000 C 
ATOM     27  C   UNL     1       5.574   5.335  19.140  0.00  0.00    +0.000 C 
ATOM     28  N   UNL     1       4.555   5.873  18.213  0.00  0.00    +0.000 NA
ATOM     29  C   UNL     1       4.567   5.046  16.984  0.00  0.00    +0.000 C 
ATOM     30  C   UNL     1       5.970   4.934  16.348  0.00  0.00    +0.000 C 
ATOM     31  C   UNL     1       5.950   3.932  15.197  0.00  0.00    +0.000 C 
ATOM     32  O   UNL     1       6.948   4.480  17.296  0.00  0.00    +0.000 OA
ENDBRANCH  24  28
ENDBRANCH  18  24
ENDBRANCH   1  21
TORSDOF 4
ENDMDL
MODEL 5
REMARK VINA RESULT:      -9.1      5.560     11.513
REMARK  Name = 
REMARK  6 active torsions:
REMARK  status: ('A' for Active; 'I' for Inactive)
REMARK    1  A    between atoms: C_1  and  C_2
REMARK    2  A    between atoms: N_4  and  C_5
REMARK    3  A    between atoms: C_5  and  C_6
REMARK    4  A    between atoms: C_9  and  C_10
REMARK    5  A    between atoms: C_14  and  C_15
REMARK    6  A    between atoms: C_29  and  C_30
REMARK                            x       y       z     vdW  Elec       q    Type
REMARK                         _______ _______ _______ _____ _____    ______ ____
ROOT
ATOM      1  C   UNL     1       0.609  10.133  19.967  0.00  0.00    +0.000 A 
ATOM      2  C   UNL     1       1.000  10.723  18.758  0.00  0.00    +0.000 A 
ATOM      3  C   UNL     1       1.839  10.045  17.856  0.00  0.00    +0.000 A 
ATOM      4  C   UNL     1       2.290   8.746  18.130  0.00  0.00    +0.000 A 
ATOM      5  C   UNL     1       1.910   8.127  19.316  0.00  0.00    +0.000 A 
ATOM      6  C   UNL     1       1.103   8.848  20.217  0.00  0.00    +0.000 A 
ENDROOT
BRANCH   5   7
ATOM      7  C   UNL     1       2.263   6.765  19.735  0.00  0.00    +0.000 A 
ATOM      8  N   UNL     1       3.186   6.057  19.110  0.00  0.00    +0.000 NA
ATOM      9  C   UNL     1       3.240   4.849  19.723  0.00  0.00    +0.000 A 
ATOM     10  C   UNL     1       4.044   3.751  19.406  0.00  0.00    +0.000 A 
ATOM     11  C   UNL     1       3.892   2.604  20.174  0.00  0.00    +0.000 A 
ATOM     12  F   UNL     1       4.638   1.528  19.887  0.00  0.00    +0.000 F 
ATOM     13  C   UNL     1       2.979   2.545  21.226  0.00  0.00    +0.000 A 
ATOM     14  C   UNL     1       2.178   3.648  21.561  0.00  0.00    +0.000 A 
ATOM     15  C   UNL     1       2.338   4.793  20.778  0.00  0.00    +0.000 A 
ATOM     16  N   UNL     1       1.747   6.043  20.786  0.00  0.00    +0.000 N 
ATOM     17  H   UNL     1       1.048   6.362  21.439  0.00  0.00    +0.000 HD
ENDBRANCH   5   7
BRANCH   1  21
ATOM     18  C   UNL     1      -2.002  12.068  22.827  0.00  0.00    +0.000 A 
ATOM     19  C   UNL     1      -1.897  12.550  21.521  0.00  0.00    +0.000 A 
ATOM     20  C   UNL     1      -1.049  11.921  20.604  0.00  0.00    +0.000 A 
ATOM     21  C   UNL     1      -0.285  10.785  20.951  0.00  0.00    +0.000 A 
ATOM     22  C   UNL     1      -0.430  10.295  22.255  0.00  0.00    +0.000 A 
ATOM     23  C   UNL     1      -1.270  10.927  23.180  0.00  0.00    +0.000 A 
BRANCH  18  24
ATOM     24  C   UNL     1      -2.841  12.786  23.860  0.00  0.00    +0.000 C 
BRANCH  24  28
ATOM     25  C   UNL     1      -7.046  12.566  22.374  0.00  0.00    +0.000 C 
ATOM     26  C   UNL     1      -6.653  13.007  23.784  0.00  0.00    +0.000 C 
ATOM     27  C   UNL     1      -5.247  12.522  24.195  0.00  0.00    +0.000 C 
ATOM     28  N   UNL     1      -4.185  13.182  23.405  0.00  0.00    +0.000 NA
ATOM     29  C   UNL     1      -4.338  14.647  23.564  0.00  0.00    +0.000 C 
ATOM     30  C   UNL     1      -5.757  15.147  23.214  0.00  0.00    +0.000 C 
ATOM     31  C   UNL     1      -5.898  16.626  23.566  0.00  0.00    +0.000 C 
ATOM     32  O   UNL     1      -6.766  14.433  23.943  0.00  0.00    +0.000 OA
ENDBRANCH  24  28
ENDBRANCH  18  24
ENDBRANCH   1  21
TORSDOF 4
ENDMDL
MODEL 6
REMARK VINA RESULT:      -9.1      0.800      1.560
REMARK  Name = 
REMARK  6 active torsions:
REMARK  status: ('A' for Active; 'I' for Inactive)
REMARK    1  A    between atoms: C_1  and  C_2
REMARK    2  A    between atoms: N_4  and  C_5
REMARK    3  A    between atoms: C_5  and  C_6
REMARK    4  A    between atoms: C_9  and  C_10
REMARK    5  A    between atoms: C_14  and  C_15
REMARK    6  A    between atoms: C_29  and  C_30
REMARK                            x       y       z     vdW  Elec       q    Type
REMARK                         _______ _______ _______ _____ _____    ______ ____
ROOT
ATOM      1  C   UNL     1       0.675   9.791  20.829  0.00  0.00    +0.000 A 
ATOM      2  C   UNL     1      -0.137   9.630  21.960  0.00  0.00    +0.000 A 
ATOM      3  C   UNL     1      -0.759  10.732  22.570  0.00  0.00    +0.000 A 
ATOM      4  C   UNL     1      -0.605  12.026  22.050  0.00  0.00    +0.000 A 
ATOM      5  C   UNL     1       0.185  12.217  20.921  0.00  0.00    +0.000 A 
ATOM      6  C   UNL     1       0.827  11.099  20.357  0.00  0.00    +0.000 A 
ENDROOT
BRANCH   5   7
ATOM      7  C   UNL     1       0.418  13.494  20.234  0.00  0.00    +0.000 A 
ATOM      8  N   UNL     1      -0.573  14.296  19.891  0.00  0.00    +0.000 NA
ATOM      9  C   UNL     1      -0.019  15.358  19.254  0.00  0.00    +0.000 A 
ATOM     10  C   UNL     1      -0.663  16.459  18.685  0.00  0.00    +0.000 A 
ATOM     11  C   UNL     1       0.131  17.410  18.057  0.00  0.00    +0.000 A 
ATOM     12  F   UNL     1      -0.456  18.471  17.487  0.00  0.00    +0.000 F 
ATOM     13  C   UNL     1       1.518  17.281  18.001  0.00  0.00    +0.000 A 
ATOM     14  C   UNL     1       2.175  16.186  18.584  0.00  0.00    +0.000 A 
ATOM     15  C   UNL     1       1.364  15.235  19.207  0.00  0.00    +0.000 A 
ATOM     16  N   UNL     1       1.622  14.050  19.869  0.00  0.00    +0.000 N 
ATOM     17  H   UNL     1       2.534  13.654  20.039  0.00  0.00    +0.000 HD
ENDBRANCH   5   7
BRANCH   1  21
ATOM     18  C   UNL     1       2.620   6.527  18.754  0.00  0.00    +0.000 A 
ATOM     19  C   UNL     1       2.413   7.751  18.117  0.00  0.00    +0.000 A 
ATOM     20  C   UNL     1       1.781   8.799  18.793  0.00  0.00    +0.000 A 
ATOM     21  C   UNL     1       1.344   8.670  20.129  0.00  0.00    +0.000 A 
ATOM     22  C   UNL     1       1.592   7.446  20.764  0.00  0.00    +0.000 A 
ATOM     23  C   UNL     1       2.215   6.390  20.089  0.00  0.00    +0.000 A 
BRANCH  18  24
ATOM     24  C   UNL     1       3.218   5.351  18.015  0.00  0.00    +0.000 C 
BRANCH  24  28
ATOM     25  C   UNL     1       7.519   6.547  17.920  0.00  0.00    +0.000 C 
ATOM     26  C   UNL     1       7.029   5.101  18.003  0.00  0.00    +0.000 C 
ATOM     27  C   UNL     1       5.581   4.987  18.523  0.00  0.00    +0.000 C 
ATOM     28  N   UNL     1       4.606   5.542  17.558  0.00  0.00    +0.000 NA
ATOM     29  C   UNL     1       4.790   4.845  16.264  0.00  0.00    +0.000 C 
ATOM     30  C   UNL     1       6.248   4.896  15.754  0.00  0.00    +0.000 C 
ATOM     31  C   UNL     1       6.407   4.015  14.518  0.00  0.00    +0.000 C 
ATOM     32  O   UNL     1       7.173   4.420  16.743  0.00  0.00    +0.000 OA
ENDBRANCH  24  28
ENDBRANCH  18  24
ENDBRANCH   1  21
TORSDOF 4
ENDMDL
MODEL 7
REMARK VINA RESULT:      -9.0      4.617     10.361
REMARK  Name = 
REMARK  6 active torsions:
REMARK  status: ('A' for Active; 'I' for Inactive)
REMARK    1  A    between atoms: C_1  and  C_2
REMARK    2  A    between atoms: N_4  and  C_5
REMARK    3  A    between atoms: C_5  and  C_6
REMARK    4  A    between atoms: C_9  and  C_10
REMARK    5  A    between atoms: C_14  and  C_15
REMARK    6  A    between atoms: C_29  and  C_30
REMARK                            x       y       z     vdW  Elec       q    Type
REMARK                         _______ _______ _______ _____ _____    ______ ____
ROOT
ATOM      1  C   UNL     1       2.999   6.432  18.801  0.00  0.00    +0.000 A 
ATOM      2  C   UNL     1       3.052   5.481  19.829  0.00  0.00    +0.000 A 
ATOM      3  C   UNL     1       3.800   4.300  19.688  0.00  0.00    +0.000 A 
ATOM      4  C   UNL     1       4.537   4.049  18.522  0.00  0.00    +0.000 A 
ATOM      5  C   UNL     1       4.515   4.979  17.487  0.00  0.00    +0.000 A 
ATOM      6  C   UNL     1       3.724   6.132  17.643  0.00  0.00    +0.000 A 
ENDROOT
BRANCH   5   7
ATOM      7  C   UNL     1       5.256   4.885  16.223  0.00  0.00    +0.000 A 
ATOM      8  N   UNL     1       4.959   3.988  15.301  0.00  0.00    +0.000 NA
ATOM      9  C   UNL     1       5.846   4.152  14.289  0.00  0.00    +0.000 A 
ATOM     10  C   UNL     1       5.952   3.422  13.102  0.00  0.00    +0.000 A 
ATOM     11  C   UNL     1       6.973   3.770  12.228  0.00  0.00    +0.000 A 
ATOM     12  F   UNL     1       7.112   3.080  11.087  0.00  0.00    +0.000 F 
ATOM     13  C   UNL     1       7.856   4.810  12.511  0.00  0.00    +0.000 A 
ATOM     14  C   UNL     1       7.747   5.559  13.694  0.00  0.00    +0.000 A 
ATOM     15  C   UNL     1       6.719   5.196  14.567  0.00  0.00    +0.000 A 
ATOM     16  N   UNL     1       6.302   5.671  15.796  0.00  0.00    +0.000 N 
ATOM     17  H   UNL     1       6.705   6.446  16.299  0.00  0.00    +0.000 HD
ENDBRANCH   5   7
BRANCH   1  21
ATOM     18  C   UNL     1       0.774  10.134  19.091  0.00  0.00    +0.000 A 
ATOM     19  C   UNL     1       0.828   9.252  20.171  0.00  0.00    +0.000 A 
ATOM     20  C   UNL     1       1.547   8.057  20.068  0.00  0.00    +0.000 A 
ATOM     21  C   UNL     1       2.245   7.703  18.893  0.00  0.00    +0.000 A 
ATOM     22  C   UNL     1       2.208   8.618  17.832  0.00  0.00    +0.000 A 
ATOM     23  C   UNL     1       1.482   9.811  17.926  0.00  0.00    +0.000 A 
BRANCH  18  24
ATOM     24  C   UNL     1      -0.070  11.388  19.147  0.00  0.00    +0.000 C 
BRANCH  24  28
ATOM     25  C   UNL     1      -2.815  10.664  15.700  0.00  0.00    +0.000 C 
ATOM     26  C   UNL     1      -2.917   9.949  17.048  0.00  0.00    +0.000 C 
ATOM     27  C   UNL     1      -1.601   9.992  17.852  0.00  0.00    +0.000 C 
ATOM     28  N   UNL     1      -1.278  11.363  18.303  0.00  0.00    +0.000 NA
ATOM     29  C   UNL     1      -2.427  11.872  19.088  0.00  0.00    +0.000 C 
ATOM     30  C   UNL     1      -3.766  11.783  18.322  0.00  0.00    +0.000 C 
ATOM     31  C   UNL     1      -4.926  12.153  19.242  0.00  0.00    +0.000 C 
ATOM     32  O   UNL     1      -4.011  10.455  17.834  0.00  0.00    +0.000 OA
ENDBRANCH  24  28
ENDBRANCH  18  24
ENDBRANCH   1  21
TORSDOF 4
ENDMDL
MODEL 8
REMARK VINA RESULT:      -9.0      5.515     11.494
REMARK  Name = 
REMARK  6 active torsions:
REMARK  status: ('A' for Active; 'I' for Inactive)
REMARK    1  A    between atoms: C_1  and  C_2
REMARK    2  A    between atoms: N_4  and  C_5
REMARK    3  A    between atoms: C_5  and  C_6
REMARK    4  A    between atoms: C_9  and  C_10
REMARK    5  A    between atoms: C_14  and  C_15
REMARK    6  A    between atoms: C_29  and  C_30
REMARK                            x       y       z     vdW  Elec       q    Type
REMARK                         _______ _______ _______ _____ _____    ______ ____
ROOT
ATOM      1  C   UNL     1       0.560  10.158  19.963  0.00  0.00    +0.000 A 
ATOM      2  C   UNL     1       0.996  10.779  18.785  0.00  0.00    +0.000 A 
ATOM      3  C   UNL     1       1.881  10.129  17.907  0.00  0.00    +0.000 A 
ATOM      4  C   UNL     1       2.336   8.830  18.173  0.00  0.00    +0.000 A 
ATOM      5  C   UNL     1       1.912   8.182  19.329  0.00  0.00    +0.000 A 
ATOM      6  C   UNL     1       1.058   8.875  20.208  0.00  0.00    +0.000 A 
ENDROOT
BRANCH   5   7
ATOM      7  C   UNL     1       2.264   6.815  19.734  0.00  0.00    +0.000 A 
ATOM      8  N   UNL     1       3.206   6.123  19.121  0.00  0.00    +0.000 NA
ATOM      9  C   UNL     1       3.253   4.905  19.716  0.00  0.00    +0.000 A 
ATOM     10  C   UNL     1       4.071   3.817  19.401  0.00  0.00    +0.000 A 
ATOM     11  C   UNL     1       3.908   2.658  20.147  0.00  0.00    +0.000 A 
ATOM     12  F   UNL     1       4.666   1.590  19.862  0.00  0.00    +0.000 F 
ATOM     13  C   UNL     1       2.971   2.577  21.177  0.00  0.00    +0.000 A 
ATOM     14  C   UNL     1       2.156   3.671  21.511  0.00  0.00    +0.000 A 
ATOM     15  C   UNL     1       2.327   4.828  20.749  0.00  0.00    +0.000 A 
ATOM     16  N   UNL     1       1.729   6.074  20.762  0.00  0.00    +0.000 N 
ATOM     17  H   UNL     1       1.013   6.379  21.403  0.00  0.00    +0.000 HD
ENDBRANCH   5   7
BRANCH   1  21
ATOM     18  C   UNL     1      -2.199  11.947  22.779  0.00  0.00    +0.000 A 
ATOM     19  C   UNL     1      -1.306  10.957  23.191  0.00  0.00    +0.000 A 
ATOM     20  C   UNL     1      -0.420  10.382  22.275  0.00  0.00    +0.000 A 
ATOM     21  C   UNL     1      -0.384  10.780  20.920  0.00  0.00    +0.000 A 
ATOM     22  C   UNL     1      -1.263  11.799  20.533  0.00  0.00    +0.000 A 
ATOM     23  C   UNL     1      -2.159  12.371  21.444  0.00  0.00    +0.000 A 
BRANCH  18  24
ATOM     24  C   UNL     1      -3.227  12.518  23.730  0.00  0.00    +0.000 C 
BRANCH  24  28
ATOM     25  C   UNL     1      -5.871  15.014  21.136  0.00  0.00    +0.000 C 
ATOM     26  C   UNL     1      -6.242  14.540  22.541  0.00  0.00    +0.000 C 
ATOM     27  C   UNL     1      -5.418  13.319  23.001  0.00  0.00    +0.000 C 
ATOM     28  N   UNL     1      -3.994  13.662  23.205  0.00  0.00    +0.000 NA
ATOM     29  C   UNL     1      -3.924  14.779  24.176  0.00  0.00    +0.000 C 
ATOM     30  C   UNL     1      -4.790  15.990  23.765  0.00  0.00    +0.000 C 
ATOM     31  C   UNL     1      -4.815  17.026  24.885  0.00  0.00    +0.000 C 
ATOM     32  O   UNL     1      -6.148  15.607  23.502  0.00  0.00    +0.000 OA
ENDBRANCH  24  28
ENDBRANCH  18  24
ENDBRANCH   1  21
TORSDOF 4
ENDMDL
MODEL 9
REMARK VINA RESULT:      -9.0      0.672      1.092
REMARK  Name = 
REMARK  6 active torsions:
REMARK  status: ('A' for Active; 'I' for Inactive)
REMARK    1  A    between atoms: C_1  and  C_2
REMARK    2  A    between atoms: N_4  and  C_5
REMARK    3  A    between atoms: C_5  and  C_6
REMARK    4  A    between atoms: C_9  and  C_10
REMARK    5  A    between atoms: C_14  and  C_15
REMARK    6  A    between atoms: C_29  and  C_30
REMARK                            x       y       z     vdW  Elec       q    Type
REMARK                         _______ _______ _______ _____ _____    ______ ____
ROOT
ATOM      1  C   UNL     1       0.741   9.095  21.181  0.00  0.00    +0.000 A 
ATOM      2  C   UNL     1      -0.086   8.758  22.261  0.00  0.00    +0.000 A 
ATOM      3  C   UNL     1      -0.752   9.750  23.002  0.00  0.00    +0.000 A 
ATOM      4  C   UNL     1      -0.627  11.106  22.666  0.00  0.00    +0.000 A 
ATOM      5  C   UNL     1       0.178  11.472  21.593  0.00  0.00    +0.000 A 
ATOM      6  C   UNL     1       0.864  10.458  20.896  0.00  0.00    +0.000 A 
ENDROOT
BRANCH   5   7
ATOM      7  C   UNL     1       0.385  12.836  21.091  0.00  0.00    +0.000 A 
ATOM      8  N   UNL     1       0.909  13.074  19.903  0.00  0.00    +0.000 NA
ATOM      9  C   UNL     1       0.990  14.420  19.769  0.00  0.00    +0.000 A 
ATOM     10  C   UNL     1       1.500  15.156  18.696  0.00  0.00    +0.000 A 
ATOM     11  C   UNL     1       1.498  16.539  18.811  0.00  0.00    +0.000 A 
ATOM     12  F   UNL     1       1.994  17.275  17.805  0.00  0.00    +0.000 F 
ATOM     13  C   UNL     1       1.003  17.178  19.947  0.00  0.00    +0.000 A 
ATOM     14  C   UNL     1       0.474  16.447  21.023  0.00  0.00    +0.000 A 
ATOM     15  C   UNL     1       0.487  15.057  20.896  0.00  0.00    +0.000 A 
ATOM     16  N   UNL     1       0.076  14.022  21.715  0.00  0.00    +0.000 N 
ATOM     17  H   UNL     1      -0.359  14.121  22.620  0.00  0.00    +0.000 HD
ENDBRANCH   5   7
BRANCH   1  21
ATOM     18  C   UNL     1       2.823   6.200  18.725  0.00  0.00    +0.000 A 
ATOM     19  C   UNL     1       2.649   7.512  18.284  0.00  0.00    +0.000 A 
ATOM     20  C   UNL     1       1.974   8.441  19.081  0.00  0.00    +0.000 A 
ATOM     21  C   UNL     1       1.456   8.099  20.350  0.00  0.00    +0.000 A 
ATOM     22  C   UNL     1       1.671   6.787  20.792  0.00  0.00    +0.000 A 
ATOM     23  C   UNL     1       2.339   5.851  19.993  0.00  0.00    +0.000 A 
BRANCH  18  24
ATOM     24  C   UNL     1       3.470   5.157  17.842  0.00  0.00    +0.000 C 
BRANCH  24  28
ATOM     25  C   UNL     1       7.675   6.660  17.829  0.00  0.00    +0.000 C 
ATOM     26  C   UNL     1       7.289   5.180  17.815  0.00  0.00    +0.000 C 
ATOM     27  C   UNL     1       5.855   4.929  18.325  0.00  0.00    +0.000 C 
ATOM     28  N   UNL     1       4.839   5.477  17.400  0.00  0.00    +0.000 NA
ATOM     29  C   UNL     1       5.066   4.882  16.062  0.00  0.00    +0.000 C 
ATOM     30  C   UNL     1       6.514   5.070  15.557  0.00  0.00    +0.000 C 
ATOM     31  C   UNL     1       6.730   4.287  14.265  0.00  0.00    +0.000 C 
ATOM     32  O   UNL     1       7.475   4.597  16.513  0.00  0.00    +0.000 OA
ENDBRANCH  24  28
ENDBRANCH  18  24
ENDBRANCH   1  21
TORSDOF 4
ENDMDL
