MODEL 1
REMARK VINA RESULT:      -6.6      0.000      0.000
REMARK  Name = 
REMARK  10 active torsions:
REMARK  status: ('A' for Active; 'I' for Inactive)
REMARK    1  A    between atoms: C_1  and  C_2
REMARK    2  A    between atoms: C_2  and  C_3
REMARK    3  A    between atoms: C_3  and  C_4
REMARK    4  A    between atoms: C_4  and  C_5
REMARK    5  A    between atoms: C_5  and  S_6
REMARK    6  A    between atoms: C_5  and  C_17
REMARK    7  A    between atoms: S_6  and  C_7
REMARK    8  A    between atoms: C_7  and  C_8
REMARK    9  A    between atoms: N_10  and  C_11
REMARK   10  A    between atoms: C_17  and  O_19
REMARK                            x       y       z     vdW  Elec       q    Type
REMARK                         _______ _______ _______ _____ _____    ______ ____
ROOT
ATOM      1  C   UNL     1       4.799   5.348  16.240  0.00  0.00    +0.000 C 
ENDROOT
BRANCH   1   2
ATOM      2  C   UNL     1       3.838   5.290  17.422  0.00  0.00    +0.000 C 
ATOM      3  O   UNL     1       3.281   6.314  17.812  0.00  0.00    +0.000 OA
ATOM      4  N   UNL     1       3.722   4.030  17.993  0.00  0.00    +0.000 N 
ATOM      5  H   UNL     1       4.320   3.303  17.625  0.00  0.00    +0.000 HD
BRANCH   4   6
ATOM      6  C   UNL     1       2.865   3.658  19.054  0.00  0.00    +0.000 A 
ATOM      7  C   UNL     1       3.279   3.577  20.386  0.00  0.00    +0.000 A 
ATOM      8  C   UNL     1       2.383   3.204  21.393  0.00  0.00    +0.000 A 
ATOM      9  C   UNL     1       1.063   2.902  21.076  0.00  0.00    +0.000 A 
ATOM     10  C   UNL     1       0.635   2.987  19.755  0.00  0.00    +0.000 A 
ATOM     11  C   UNL     1       1.528   3.374  18.749  0.00  0.00    +0.000 A 
ENDBRANCH   4   6
ENDBRANCH   1   2
BRANCH   1  12
ATOM     12  S   UNL     1       5.960   6.746  16.448  0.00  0.00    +0.000 S 
BRANCH  12  13
ATOM     13  C   UNL     1       6.885   6.195  17.951  0.00  0.00    +0.000 C 
BRANCH  13  14
ATOM     14  C   UNL     1       7.251   4.719  17.828  0.00  0.00    +0.000 C 
ATOM     15  O   UNL     1       8.088   4.268  17.059  0.00  0.00    +0.000 OA
BRANCH  14  16
ATOM     16  O   UNL     1       6.575   3.923  18.697  0.00  0.00    +0.000 OA
ATOM     17  H   UNL     1       5.658   3.748  18.398  0.00  0.00    +0.000 HD
ENDBRANCH  14  16
ENDBRANCH  13  14
BRANCH  13  18
ATOM     18  C   UNL     1       8.104   7.061  18.309  0.00  0.00    +0.000 C 
BRANCH  18  19
ATOM     19  C   UNL     1       7.965   8.524  17.876  0.00  0.00    +0.000 C 
BRANCH  19  21
ATOM     20  C   UNL     1       9.006  10.798  18.063  0.00  0.00    +0.000 C 
ATOM     21  C   UNL     1       8.778   9.466  18.762  0.00  0.00    +0.000 C 
ENDBRANCH  19  21
ENDBRANCH  18  19
ENDBRANCH  13  18
ENDBRANCH  12  13
ENDBRANCH   1  12
TORSDOF 9
ENDMDL
MODEL 2
REMARK VINA RESULT:      -6.6      2.215      3.640
REMARK  Name = 
REMARK  10 active torsions:
REMARK  status: ('A' for Active; 'I' for Inactive)
REMARK    1  A    between atoms: C_1  and  C_2
REMARK    2  A    between atoms: C_2  and  C_3
REMARK    3  A    between atoms: C_3  and  C_4
REMARK    4  A    between atoms: C_4  and  C_5
REMARK    5  A    between atoms: C_5  and  S_6
REMARK    6  A    between atoms: C_5  and  C_17
REMARK    7  A    between atoms: S_6  and  C_7
REMARK    8  A    between atoms: C_7  and  C_8
REMARK    9  A    between atoms: N_10  and  C_11
REMARK   10  A    between atoms: C_17  and  O_19
REMARK                            x       y       z     vdW  Elec       q    Type
REMARK                         _______ _______ _______ _____ _____    ______ ____
ROOT
ATOM      1  C   UNL     1       4.443   6.482  16.691  0.00  0.00    +0.000 C 
ENDROOT
BRANCH   1   2
ATOM      2  C   UNL     1       3.538   6.118  17.863  0.00  0.00    +0.000 C 
ATOM      3  O   UNL     1       2.965   7.004  18.494  0.00  0.00    +0.000 OA
ATOM      4  N   UNL     1       3.488   4.758  18.136  0.00  0.00    +0.000 N 
ATOM      5  H   UNL     1       4.094   4.159  17.592  0.00  0.00    +0.000 HD
BRANCH   4   6
ATOM      6  C   UNL     1       2.692   4.120  19.115  0.00  0.00    +0.000 A 
ATOM      7  C   UNL     1       1.343   3.808  18.925  0.00  0.00    +0.000 A 
ATOM      8  C   UNL     1       0.607   3.174  19.931  0.00  0.00    +0.000 A 
ATOM      9  C   UNL     1       1.213   2.852  21.141  0.00  0.00    +0.000 A 
ATOM     10  C   UNL     1       2.557   3.150  21.340  0.00  0.00    +0.000 A 
ATOM     11  C   UNL     1       3.297   3.771  20.328  0.00  0.00    +0.000 A 
ENDBRANCH   4   6
ENDBRANCH   1   2
BRANCH   1  12
ATOM     12  S   UNL     1       6.151   6.761  17.286  0.00  0.00    +0.000 S 
BRANCH  12  13
ATOM     13  C   UNL     1       6.975   5.222  16.675  0.00  0.00    +0.000 C 
BRANCH  13  14
ATOM     14  C   UNL     1       7.461   4.385  17.854  0.00  0.00    +0.000 C 
ATOM     15  O   UNL     1       8.633   4.143  18.104  0.00  0.00    +0.000 OA
BRANCH  14  16
ATOM     16  O   UNL     1       6.453   3.944  18.652  0.00  0.00    +0.000 OA
ATOM     17  H   UNL     1       6.790   3.479  19.447  0.00  0.00    +0.000 HD
ENDBRANCH  14  16
ENDBRANCH  13  14
BRANCH  13  18
ATOM     18  C   UNL     1       6.136   4.392  15.689  0.00  0.00    +0.000 C 
BRANCH  18  19
ATOM     19  C   UNL     1       6.692   4.392  14.262  0.00  0.00    +0.000 C 
BRANCH  19  21
ATOM     20  C   UNL     1       6.369   3.467  11.953  0.00  0.00    +0.000 C 
ATOM     21  C   UNL     1       5.678   3.860  13.250  0.00  0.00    +0.000 C 
ENDBRANCH  19  21
ENDBRANCH  18  19
ENDBRANCH  13  18
ENDBRANCH  12  13
ENDBRANCH   1  12
TORSDOF 9
ENDMDL
MODEL 3
REMARK VINA RESULT:      -6.4      2.884      6.916
REMARK  Name = 
REMARK  10 active torsions:
REMARK  status: ('A' for Active; 'I' for Inactive)
REMARK    1  A    between atoms: C_1  and  C_2
REMARK    2  A    between atoms: C_2  and  C_3
REMARK    3  A    between atoms: C_3  and  C_4
REMARK    4  A    between atoms: C_4  and  C_5
REMARK    5  A    between atoms: C_5  and  S_6
REMARK    6  A    between atoms: C_5  and  C_17
REMARK    7  A    between atoms: S_6  and  C_7
REMARK    8  A    between atoms: C_7  and  C_8
REMARK    9  A    between atoms: N_10  and  C_11
REMARK   10  A    between atoms: C_17  and  O_19
REMARK                            x       y       z     vdW  Elec       q    Type
REMARK                         _______ _______ _______ _____ _____    ______ ____
ROOT
ATOM      1  C   UNL     1       6.093   5.927  18.123  0.00  0.00    +0.000 C 
ENDROOT
BRANCH   1   2
ATOM      2  C   UNL     1       6.706   5.226  16.915  0.00  0.00    +0.000 C 
ATOM      3  O   UNL     1       7.725   4.551  17.049  0.00  0.00    +0.000 OA
ATOM      4  N   UNL     1       6.041   5.474  15.723  0.00  0.00    +0.000 N 
ATOM      5  H   UNL     1       5.274   6.132  15.753  0.00  0.00    +0.000 HD
BRANCH   4   6
ATOM      6  C   UNL     1       6.336   4.915  14.458  0.00  0.00    +0.000 A 
ATOM      7  C   UNL     1       5.556   3.927  13.852  0.00  0.00    +0.000 A 
ATOM      8  C   UNL     1       5.899   3.414  12.596  0.00  0.00    +0.000 A 
ATOM      9  C   UNL     1       7.031   3.882  11.937  0.00  0.00    +0.000 A 
ATOM     10  C   UNL     1       7.812   4.872  12.526  0.00  0.00    +0.000 A 
ATOM     11  C   UNL     1       7.461   5.395  13.775  0.00  0.00    +0.000 A 
ENDBRANCH   4   6
ENDBRANCH   1   2
BRANCH   1  12
ATOM     12  S   UNL     1       5.360   4.692  19.256  0.00  0.00    +0.000 S 
BRANCH  12  13
ATOM     13  C   UNL     1       3.865   4.194  18.289  0.00  0.00    +0.000 C 
BRANCH  13  14
ATOM     14  C   UNL     1       3.684   2.681  18.346  0.00  0.00    +0.000 C 
ATOM     15  O   UNL     1       2.861   2.050  17.699  0.00  0.00    +0.000 OA
BRANCH  14  16
ATOM     16  O   UNL     1       4.564   2.064  19.178  0.00  0.00    +0.000 OA
ATOM     17  H   UNL     1       5.409   1.853  18.729  0.00  0.00    +0.000 HD
ENDBRANCH  14  16
ENDBRANCH  13  14
BRANCH  13  18
ATOM     18  C   UNL     1       2.576   4.942  18.669  0.00  0.00    +0.000 C 
BRANCH  18  19
ATOM     19  C   UNL     1       2.241   4.865  20.162  0.00  0.00    +0.000 C 
BRANCH  19  21
ATOM     20  C   UNL     1       1.413   2.860  21.420  0.00  0.00    +0.000 C 
ATOM     21  C   UNL     1       1.042   3.959  20.436  0.00  0.00    +0.000 C 
ENDBRANCH  19  21
ENDBRANCH  18  19
ENDBRANCH  13  18
ENDBRANCH  12  13
ENDBRANCH   1  12
TORSDOF 9
ENDMDL
MODEL 4
REMARK VINA RESULT:      -6.3      1.301      1.686
REMARK  Name = 
REMARK  10 active torsions:
REMARK  status: ('A' for Active; 'I' for Inactive)
REMARK    1  A    between atoms: C_1  and  C_2
REMARK    2  A    between atoms: C_2  and  C_3
REMARK    3  A    between atoms: C_3  and  C_4
REMARK    4  A    between atoms: C_4  and  C_5
REMARK    5  A    between atoms: C_5  and  S_6
REMARK    6  A    between atoms: C_5  and  C_17
REMARK    7  A    between atoms: S_6  and  C_7
REMARK    8  A    between atoms: C_7  and  C_8
REMARK    9  A    between atoms: N_10  and  C_11
REMARK   10  A    between atoms: C_17  and  O_19
REMARK                            x       y       z     vdW  Elec       q    Type
REMARK                         _______ _______ _______ _____ _____    ______ ____
ROOT
ATOM      1  C   UNL     1       5.051   6.552  16.603  0.00  0.00    +0.000 C 
ENDROOT
BRANCH   1   2
ATOM      2  C   UNL     1       4.383   5.345  17.252  0.00  0.00    +0.000 C 
ATOM      3  O   UNL     1       4.835   4.217  17.061  0.00  0.00    +0.000 OA
ATOM      4  N   UNL     1       3.251   5.657  17.991  0.00  0.00    +0.000 N 
ATOM      5  H   UNL     1       2.943   6.619  17.975  0.00  0.00    +0.000 HD
BRANCH   4   6
ATOM      6  C   UNL     1       2.465   4.762  18.753  0.00  0.00    +0.000 A 
ATOM      7  C   UNL     1       1.654   3.776  18.186  0.00  0.00    +0.000 A 
ATOM      8  C   UNL     1       0.899   2.918  18.993  0.00  0.00    +0.000 A 
ATOM      9  C   UNL     1       0.946   3.042  20.378  0.00  0.00    +0.000 A 
ATOM     10  C   UNL     1       1.756   4.014  20.956  0.00  0.00    +0.000 A 
ATOM     11  C   UNL     1       2.522   4.863  20.149  0.00  0.00    +0.000 A 
ENDBRANCH   4   6
ENDBRANCH   1   2
BRANCH   1  12
ATOM     12  S   UNL     1       6.862   6.301  16.533  0.00  0.00    +0.000 S 
BRANCH  12  13
ATOM     13  C   UNL     1       7.320   6.669  18.286  0.00  0.00    +0.000 C 
BRANCH  13  14
ATOM     14  C   UNL     1       7.764   5.391  18.991  0.00  0.00    +0.000 C 
ATOM     15  O   UNL     1       8.037   4.340  18.427  0.00  0.00    +0.000 OA
BRANCH  14  16
ATOM     16  O   UNL     1       7.871   5.528  20.338  0.00  0.00    +0.000 OA
ATOM     17  H   UNL     1       7.573   6.411  20.643  0.00  0.00    +0.000 HD
ENDBRANCH  14  16
ENDBRANCH  13  14
BRANCH  13  18
ATOM     18  C   UNL     1       8.343   7.805  18.459  0.00  0.00    +0.000 C 
BRANCH  18  19
ATOM     19  C   UNL     1       8.052   9.028  17.585  0.00  0.00    +0.000 C 
BRANCH  19  21
ATOM     20  C   UNL     1       9.815  10.660  18.304  0.00  0.00    +0.000 C 
ATOM     21  C   UNL     1       8.328  10.339  18.320  0.00  0.00    +0.000 C 
ENDBRANCH  19  21
ENDBRANCH  18  19
ENDBRANCH  13  18
ENDBRANCH  12  13
ENDBRANCH   1  12
TORSDOF 9
ENDMDL
MODEL 5
REMARK VINA RESULT:      -6.3      2.618      4.303
REMARK  Name = 
REMARK  10 active torsions:
REMARK  status: ('A' for Active; 'I' for Inactive)
REMARK    1  A    between atoms: C_1  and  C_2
REMARK    2  A    between atoms: C_2  and  C_3
REMARK    3  A    between atoms: C_3  and  C_4
REMARK    4  A    between atoms: C_4  and  C_5
REMARK    5  A    between atoms: C_5  and  S_6
REMARK    6  A    between atoms: C_5  and  C_17
REMARK    7  A    between atoms: S_6  and  C_7
REMARK    8  A    between atoms: C_7  and  C_8
REMARK    9  A    between atoms: N_10  and  C_11
REMARK   10  A    between atoms: C_17  and  O_19
REMARK                            x       y       z     vdW  Elec       q    Type
REMARK                         _______ _______ _______ _____ _____    ______ ____
ROOT
ATOM      1  C   UNL     1       7.127   5.206  19.045  0.00  0.00    +0.000 C 
ENDROOT
BRANCH   1   2
ATOM      2  C   UNL     1       5.637   4.940  19.226  0.00  0.00    +0.000 C 
ATOM      3  O   UNL     1       4.891   5.849  19.586  0.00  0.00    +0.000 OA
ATOM      4  N   UNL     1       5.268   3.622  18.999  0.00  0.00    +0.000 N 
ATOM      5  H   UNL     1       6.010   2.964  18.807  0.00  0.00    +0.000 HD
BRANCH   4   6
ATOM      6  C   UNL     1       3.956   3.094  19.029  0.00  0.00    +0.000 A 
ATOM      7  C   UNL     1       3.243   2.742  17.881  0.00  0.00    +0.000 A 
ATOM      8  C   UNL     1       1.948   2.222  17.974  0.00  0.00    +0.000 A 
ATOM      9  C   UNL     1       1.351   2.055  19.220  0.00  0.00    +0.000 A 
ATOM     10  C   UNL     1       2.053   2.394  20.371  0.00  0.00    +0.000 A 
ATOM     11  C   UNL     1       3.355   2.900  20.278  0.00  0.00    +0.000 A 
ENDBRANCH   4   6
ENDBRANCH   1   2
BRANCH   1  12
ATOM     12  S   UNL     1       7.396   6.289  17.595  0.00  0.00    +0.000 S 
BRANCH  12  13
ATOM     13  C   UNL     1       6.272   5.489  16.365  0.00  0.00    +0.000 C 
BRANCH  13  14
ATOM     14  C   UNL     1       5.184   6.469  15.935  0.00  0.00    +0.000 C 
ATOM     15  O   UNL     1       5.145   7.040  14.854  0.00  0.00    +0.000 OA
BRANCH  14  16
ATOM     16  O   UNL     1       4.210   6.635  16.867  0.00  0.00    +0.000 OA
ATOM     17  H   UNL     1       4.300   7.486  17.346  0.00  0.00    +0.000 HD
ENDBRANCH  14  16
ENDBRANCH  13  14
BRANCH  13  18
ATOM     18  C   UNL     1       6.985   4.857  15.158  0.00  0.00    +0.000 C 
BRANCH  18  19
ATOM     19  C   UNL     1       6.086   3.934  14.330  0.00  0.00    +0.000 C 
BRANCH  19  21
ATOM     20  C   UNL     1       5.551   3.016  12.058  0.00  0.00    +0.000 C 
ATOM     21  C   UNL     1       6.488   3.910  12.856  0.00  0.00    +0.000 C 
ENDBRANCH  19  21
ENDBRANCH  18  19
ENDBRANCH  13  18
ENDBRANCH  12  13
ENDBRANCH   1  12
TORSDOF 9
ENDMDL
MODEL 6
REMARK VINA RESULT:      -6.2      3.468      5.019
REMARK  Name = 
REMARK  10 active torsions:
REMARK  status: ('A' for Active; 'I' for Inactive)
REMARK    1  A    between atoms: C_1  and  C_2
REMARK    2  A    between atoms: C_2  and  C_3
REMARK    3  A    between atoms: C_3  and  C_4
REMARK    4  A    between atoms: C_4  and  C_5
REMARK    5  A    between atoms: C_5  and  S_6
REMARK    6  A    between atoms: C_5  and  C_17
REMARK    7  A    between atoms: S_6  and  C_7
REMARK    8  A    between atoms: C_7  and  C_8
REMARK    9  A    between atoms: N_10  and  C_11
REMARK   10  A    between atoms: C_17  and  O_19
REMARK                            x       y       z     vdW  Elec       q    Type
REMARK                         _______ _______ _______ _____ _____    ______ ____
ROOT
ATOM      1  C   UNL     1       4.215   5.102  17.345  0.00  0.00    +0.000 C 
ENDROOT
BRANCH   1   2
ATOM      2  C   UNL     1       2.994   5.765  17.974  0.00  0.00    +0.000 C 
ATOM      3  O   UNL     1       1.992   5.098  18.221  0.00  0.00    +0.000 OA
ATOM      4  N   UNL     1       3.134   7.132  18.169  0.00  0.00    +0.000 N 
ATOM      5  H   UNL     1       3.981   7.561  17.823  0.00  0.00    +0.000 HD
BRANCH   4   6
ATOM      6  C   UNL     1       2.201   7.998  18.786  0.00  0.00    +0.000 A 
ATOM      7  C   UNL     1       1.852   7.917  20.136  0.00  0.00    +0.000 A 
ATOM      8  C   UNL     1       0.923   8.804  20.690  0.00  0.00    +0.000 A 
ATOM      9  C   UNL     1       0.329   9.778  19.895  0.00  0.00    +0.000 A 
ATOM     10  C   UNL     1       0.674   9.875  18.551  0.00  0.00    +0.000 A 
ATOM     11  C   UNL     1       1.614   8.997  18.000  0.00  0.00    +0.000 A 
ENDBRANCH   4   6
ENDBRANCH   1   2
BRANCH   1  12
ATOM     12  S   UNL     1       5.154   6.326  16.363  0.00  0.00    +0.000 S 
BRANCH  12  13
ATOM     13  C   UNL     1       6.748   5.419  16.132  0.00  0.00    +0.000 C 
BRANCH  13  14
ATOM     14  C   UNL     1       7.428   5.202  17.480  0.00  0.00    +0.000 C 
ATOM     15  O   UNL     1       7.373   5.978  18.423  0.00  0.00    +0.000 OA
BRANCH  14  16
ATOM     16  O   UNL     1       8.093   4.020  17.563  0.00  0.00    +0.000 OA
ATOM     17  H   UNL     1       8.783   4.034  18.259  0.00  0.00    +0.000 HD
ENDBRANCH  14  16
ENDBRANCH  13  14
BRANCH  13  18
ATOM     18  C   UNL     1       6.634   4.112  15.329  0.00  0.00    +0.000 C 
BRANCH  18  19
ATOM     19  C   UNL     1       5.662   4.201  14.149  0.00  0.00    +0.000 C 
BRANCH  19  21
ATOM     20  C   UNL     1       5.141   3.187  11.915  0.00  0.00    +0.000 C 
ATOM     21  C   UNL     1       6.248   3.597  12.874  0.00  0.00    +0.000 C 
ENDBRANCH  19  21
ENDBRANCH  18  19
ENDBRANCH  13  18
ENDBRANCH  12  13
ENDBRANCH   1  12
TORSDOF 9
ENDMDL
MODEL 7
REMARK VINA RESULT:      -6.2      1.353      1.707
REMARK  Name = 
REMARK  10 active torsions:
REMARK  status: ('A' for Active; 'I' for Inactive)
REMARK    1  A    between atoms: C_1  and  C_2
REMARK    2  A    between atoms: C_2  and  C_3
REMARK    3  A    between atoms: C_3  and  C_4
REMARK    4  A    between atoms: C_4  and  C_5
REMARK    5  A    between atoms: C_5  and  S_6
REMARK    6  A    between atoms: C_5  and  C_17
REMARK    7  A    between atoms: S_6  and  C_7
REMARK    8  A    between atoms: C_7  and  C_8
REMARK    9  A    between atoms: N_10  and  C_11
REMARK   10  A    between atoms: C_17  and  O_19
REMARK                            x       y       z     vdW  Elec       q    Type
REMARK                         _______ _______ _______ _____ _____    ______ ____
ROOT
ATOM      1  C   UNL     1       4.841   4.993  15.756  0.00  0.00    +0.000 C 
ENDROOT
BRANCH   1   2
ATOM      2  C   UNL     1       4.236   4.165  16.884  0.00  0.00    +0.000 C 
ATOM      3  O   UNL     1       4.627   3.015  17.079  0.00  0.00    +0.000 OA
ATOM      4  N   UNL     1       3.225   4.812  17.579  0.00  0.00    +0.000 N 
ATOM      5  H   UNL     1       2.943   5.721  17.239  0.00  0.00    +0.000 HD
BRANCH   4   6
ATOM      6  C   UNL     1       2.527   4.323  18.708  0.00  0.00    +0.000 A 
ATOM      7  C   UNL     1       1.468   3.415  18.624  0.00  0.00    +0.000 A 
ATOM      8  C   UNL     1       0.817   2.966  19.778  0.00  0.00    +0.000 A 
ATOM      9  C   UNL     1       1.216   3.428  21.028  0.00  0.00    +0.000 A 
ATOM     10  C   UNL     1       2.273   4.326  21.126  0.00  0.00    +0.000 A 
ATOM     11  C   UNL     1       2.934   4.764  19.973  0.00  0.00    +0.000 A 
ENDBRANCH   4   6
ENDBRANCH   1   2
BRANCH   1  12
ATOM     12  S   UNL     1       6.665   4.993  15.891  0.00  0.00    +0.000 S 
BRANCH  12  13
ATOM     13  C   UNL     1       6.892   6.075  17.373  0.00  0.00    +0.000 C 
BRANCH  13  14
ATOM     14  C   UNL     1       7.334   5.239  18.569  0.00  0.00    +0.000 C 
ATOM     15  O   UNL     1       8.364   4.582  18.621  0.00  0.00    +0.000 OA
BRANCH  14  16
ATOM     16  O   UNL     1       6.480   5.314  19.623  0.00  0.00    +0.000 OA
ATOM     17  H   UNL     1       6.100   4.439  19.851  0.00  0.00    +0.000 HD
ENDBRANCH  14  16
ENDBRANCH  13  14
BRANCH  13  18
ATOM     18  C   UNL     1       7.812   7.288  17.149  0.00  0.00    +0.000 C 
BRANCH  18  19
ATOM     19  C   UNL     1       8.101   8.081  18.426  0.00  0.00    +0.000 C 
BRANCH  19  21
ATOM     20  C   UNL     1       9.455  10.088  19.082  0.00  0.00    +0.000 C 
ATOM     21  C   UNL     1       8.390   9.553  18.136  0.00  0.00    +0.000 C 
ENDBRANCH  19  21
ENDBRANCH  18  19
ENDBRANCH  13  18
ENDBRANCH  12  13
ENDBRANCH   1  12
TORSDOF 9
ENDMDL
MODEL 8
REMARK VINA RESULT:      -6.1      3.304      4.973
REMARK  Name = 
REMARK  10 active torsions:
REMARK  status: ('A' for Active; 'I' for Inactive)
REMARK    1  A    between atoms: C_1  and  C_2
REMARK    2  A    between atoms: C_2  and  C_3
REMARK    3  A    between atoms: C_3  and  C_4
REMARK    4  A    between atoms: C_4  and  C_5
REMARK    5  A    between atoms: C_5  and  S_6
REMARK    6  A    between atoms: C_5  and  C_17
REMARK    7  A    between atoms: S_6  and  C_7
REMARK    8  A    between atoms: C_7  and  C_8
REMARK    9  A    between atoms: N_10  and  C_11
REMARK   10  A    between atoms: C_17  and  O_19
REMARK                            x       y       z     vdW  Elec       q    Type
REMARK                         _______ _______ _______ _____ _____    ______ ____
ROOT
ATOM      1  C   UNL     1       3.840   4.088  18.970  0.00  0.00    +0.000 C 
ENDROOT
BRANCH   1   2
ATOM      2  C   UNL     1       2.854   5.195  18.613  0.00  0.00    +0.000 C 
ATOM      3  O   UNL     1       1.979   4.990  17.773  0.00  0.00    +0.000 OA
ATOM      4  N   UNL     1       3.087   6.392  19.273  0.00  0.00    +0.000 N 
ATOM      5  H   UNL     1       3.908   6.439  19.862  0.00  0.00    +0.000 HD
BRANCH   4   6
ATOM      6  C   UNL     1       2.306   7.568  19.194  0.00  0.00    +0.000 A 
ATOM      7  C   UNL     1       2.135   8.301  18.017  0.00  0.00    +0.000 A 
ATOM      8  C   UNL     1       1.348   9.457  18.001  0.00  0.00    +0.000 A 
ATOM      9  C   UNL     1       0.729   9.895  19.167  0.00  0.00    +0.000 A 
ATOM     10  C   UNL     1       0.884   9.171  20.345  0.00  0.00    +0.000 A 
ATOM     11  C   UNL     1       1.660   8.006  20.357  0.00  0.00    +0.000 A 
ENDBRANCH   4   6
ENDBRANCH   1   2
BRANCH   1  12
ATOM     12  S   UNL     1       4.640   3.452  17.452  0.00  0.00    +0.000 S 
BRANCH  12  13
ATOM     13  C   UNL     1       5.784   4.851  17.064  0.00  0.00    +0.000 C 
BRANCH  13  14
ATOM     14  C   UNL     1       7.120   4.647  17.771  0.00  0.00    +0.000 C 
ATOM     15  O   UNL     1       8.140   4.238  17.235  0.00  0.00    +0.000 OA
BRANCH  14  16
ATOM     16  O   UNL     1       7.095   5.001  19.083  0.00  0.00    +0.000 OA
ATOM     17  H   UNL     1       6.183   5.170  19.401  0.00  0.00    +0.000 HD
ENDBRANCH  14  16
ENDBRANCH  13  14
BRANCH  13  18
ATOM     18  C   UNL     1       5.966   5.136  15.563  0.00  0.00    +0.000 C 
BRANCH  18  19
ATOM     19  C   UNL     1       5.914   3.877  14.692  0.00  0.00    +0.000 C 
BRANCH  19  21
ATOM     20  C   UNL     1       5.782   3.300  12.254  0.00  0.00    +0.000 C 
ATOM     21  C   UNL     1       6.521   4.110  13.309  0.00  0.00    +0.000 C 
ENDBRANCH  19  21
ENDBRANCH  18  19
ENDBRANCH  13  18
ENDBRANCH  12  13
ENDBRANCH   1  12
TORSDOF 9
ENDMDL
MODEL 9
REMARK VINA RESULT:      -6.1      2.484      3.562
REMARK  Name = 
REMARK  10 active torsions:
REMARK  status: ('A' for Active; 'I' for Inactive)
REMARK    1  A    between atoms: C_1  and  C_2
REMARK    2  A    between atoms: C_2  and  C_3
REMARK    3  A    between atoms: C_3  and  C_4
REMARK    4  A    between atoms: C_4  and  C_5
REMARK    5  A    between atoms: C_5  and  S_6
REMARK    6  A    between atoms: C_5  and  C_17
REMARK    7  A    between atoms: S_6  and  C_7
REMARK    8  A    between atoms: C_7  and  C_8
REMARK    9  A    between atoms: N_10  and  C_11
REMARK   10  A    between atoms: C_17  and  O_19
REMARK                            x       y       z     vdW  Elec       q    Type
REMARK                         _______ _______ _______ _____ _____    ______ ____
ROOT
ATOM      1  C   UNL     1       7.258   4.798  17.930  0.00  0.00    +0.000 C 
ENDROOT
BRANCH   1   2
ATOM      2  C   UNL     1       6.011   4.499  18.754  0.00  0.00    +0.000 C 
ATOM      3  O   UNL     1       5.906   4.948  19.894  0.00  0.00    +0.000 OA
ATOM      4  N   UNL     1       5.099   3.670  18.116  0.00  0.00    +0.000 N 
ATOM      5  H   UNL     1       5.369   3.297  17.217  0.00  0.00    +0.000 HD
BRANCH   4   6
ATOM      6  C   UNL     1       3.832   3.274  18.603  0.00  0.00    +0.000 A 
ATOM      7  C   UNL     1       2.684   3.221  17.808  0.00  0.00    +0.000 A 
ATOM      8  C   UNL     1       1.458   2.818  18.347  0.00  0.00    +0.000 A 
ATOM      9  C   UNL     1       1.367   2.470  19.690  0.00  0.00    +0.000 A 
ATOM     10  C   UNL     1       2.503   2.510  20.491  0.00  0.00    +0.000 A 
ATOM     11  C   UNL     1       3.733   2.899  19.948  0.00  0.00    +0.000 A 
ENDBRANCH   4   6
ENDBRANCH   1   2
BRANCH   1  12
ATOM     12  S   UNL     1       7.238   6.542  17.379  0.00  0.00    +0.000 S 
BRANCH  12  13
ATOM     13  C   UNL     1       6.165   6.409  15.879  0.00  0.00    +0.000 C 
BRANCH  13  14
ATOM     14  C   UNL     1       6.505   5.141  15.103  0.00  0.00    +0.000 C 
ATOM     15  O   UNL     1       5.814   4.132  15.073  0.00  0.00    +0.000 OA
BRANCH  14  16
ATOM     16  O   UNL     1       7.661   5.237  14.394  0.00  0.00    +0.000 OA
ATOM     17  H   UNL     1       8.004   6.155  14.373  0.00  0.00    +0.000 HD
ENDBRANCH  14  16
ENDBRANCH  13  14
BRANCH  13  18
ATOM     18  C   UNL     1       4.656   6.524  16.156  0.00  0.00    +0.000 C 
BRANCH  18  19
ATOM     19  C   UNL     1       4.329   7.150  17.515  0.00  0.00    +0.000 C 
BRANCH  19  21
ATOM     20  C   UNL     1       2.785   6.648  19.427  0.00  0.00    +0.000 C 
ATOM     21  C   UNL     1       2.880   6.901  17.930  0.00  0.00    +0.000 C 
ENDBRANCH  19  21
ENDBRANCH  18  19
ENDBRANCH  13  18
ENDBRANCH  12  13
ENDBRANCH   1  12
TORSDOF 9
ENDMDL
