MODEL 1
REMARK VINA RESULT:      -8.4      0.000      0.000
REMARK  Name = 
REMARK  3 active torsions:
REMARK  status: ('A' for Active; 'I' for Inactive)
REMARK    1  A    between atoms: C_1  and  N_2
REMARK    2  A    between atoms: N_11  and  C_12
REMARK    3  A    between atoms: C_21  and  C_22
REMARK                            x       y       z     vdW  Elec       q    Type
REMARK                         _______ _______ _______ _____ _____    ______ ____
ROOT
ATOM      1  C   UNL     1      -2.188  15.688  23.915  0.00  0.00    +0.000 C 
ATOM      2  N   UNL     1      -1.772  14.554  23.118  0.00  0.00    +0.000 N 
ATOM      3  C   UNL     1      -2.149  14.324  21.821  0.00  0.00    +0.000 A 
ATOM      4  C   UNL     1      -1.576  13.123  21.526  0.00  0.00    +0.000 A 
ATOM      5  C   UNL     1      -0.868  12.707  22.654  0.00  0.00    +0.000 A 
ATOM      6  N   UNL     1      -0.143  11.489  22.728  0.00  0.00    +0.000 NA
ATOM      7  C   UNL     1      -0.205  10.746  21.649  0.00  0.00    +0.000 A 
ATOM      8  N   UNL     1       0.496   9.545  21.603  0.00  0.00    +0.000 N 
ATOM      9  C   UNL     1       1.138   9.021  20.487  0.00  0.00    +0.000 C 
ATOM     10  O   UNL     1       1.355   9.673  19.472  0.00  0.00    +0.000 OA
ATOM     11  N   UNL     1       1.556   7.710  20.689  0.00  0.00    +0.000 N 
ATOM     12  N   UNL     1      -0.978  11.060  20.500  0.00  0.00    +0.000 N 
ATOM     13  N   UNL     1      -1.349  10.240  19.491  0.00  0.00    +0.000 NA
ATOM     14  C   UNL     1      -2.001  11.108  18.687  0.00  0.00    +0.000 A 
ATOM     15  N   UNL     1      -2.223  12.354  19.226  0.00  0.00    +0.000 NA
ATOM     16  C   UNL     1      -1.625  12.252  20.379  0.00  0.00    +0.000 A 
ATOM     17  N   UNL     1      -0.979  13.582  23.652  0.00  0.00    +0.000 NA
ATOM     18  H   UNL     1       0.973   9.342  22.469  0.00  0.00    +0.000 HD
ATOM     19  H   UNL     1       1.032   7.185  21.376  0.00  0.00    +0.000 HD
ENDROOT
BRANCH  11  20
ATOM     20  C   UNL     1       2.266   6.960  19.717  0.00  0.00    +0.000 A 
ATOM     21  C   UNL     1       2.778   7.536  18.553  0.00  0.00    +0.000 A 
ATOM     22  C   UNL     1       3.437   6.743  17.608  0.00  0.00    +0.000 A 
ATOM     23  N   UNL     1       3.590   5.385  17.788  0.00  0.00    +0.000 N 
ATOM     24  O   UNL     1       4.172   4.670  16.918  0.00  0.00    +0.000 OA
ATOM     25  C   UNL     1       3.099   4.824  18.953  0.00  0.00    +0.000 A 
ATOM     26  C   UNL     1       2.459   5.595  19.928  0.00  0.00    +0.000 A 
ENDBRANCH  11  20
BRANCH  14  27
ATOM     27  C   UNL     1      -2.473  10.760  17.316  0.00  0.00    +0.000 A 
ATOM     28  C   UNL     1      -2.088   9.660  16.578  0.00  0.00    +0.000 A 
ATOM     29  C   UNL     1      -2.764   9.746  15.339  0.00  0.00    +0.000 A 
ATOM     30  C   UNL     1      -3.511  10.899  15.390  0.00  0.00    +0.000 A 
ATOM     31  O   UNL     1      -3.362  11.508  16.592  0.00  0.00    +0.000 OA
ENDBRANCH  14  27
TORSDOF 2
ENDMDL
MODEL 2
REMARK VINA RESULT:      -8.1      0.527      1.136
REMARK  Name = 
REMARK  3 active torsions:
REMARK  status: ('A' for Active; 'I' for Inactive)
REMARK    1  A    between atoms: C_1  and  N_2
REMARK    2  A    between atoms: N_11  and  C_12
REMARK    3  A    between atoms: C_21  and  C_22
REMARK                            x       y       z     vdW  Elec       q    Type
REMARK                         _______ _______ _______ _____ _____    ______ ____
ROOT
ATOM      1  C   UNL     1      -1.992  15.896  23.711  0.00  0.00    +0.000 C 
ATOM      2  N   UNL     1      -1.621  14.714  22.963  0.00  0.00    +0.000 N 
ATOM      3  C   UNL     1      -2.013  14.443  21.678  0.00  0.00    +0.000 A 
ATOM      4  C   UNL     1      -1.485  13.211  21.433  0.00  0.00    +0.000 A 
ATOM      5  C   UNL     1      -0.787  12.818  22.575  0.00  0.00    +0.000 A 
ATOM      6  N   UNL     1      -0.107  11.578  22.700  0.00  0.00    +0.000 NA
ATOM      7  C   UNL     1      -0.200  10.792  21.654  0.00  0.00    +0.000 A 
ATOM      8  N   UNL     1       0.456   9.566  21.658  0.00  0.00    +0.000 N 
ATOM      9  C   UNL     1       1.074   8.971  20.563  0.00  0.00    +0.000 C 
ATOM     10  O   UNL     1       1.310   9.571  19.521  0.00  0.00    +0.000 OA
ATOM     11  N   UNL     1       1.445   7.656  20.820  0.00  0.00    +0.000 N 
ATOM     12  N   UNL     1      -0.967  11.085  20.495  0.00  0.00    +0.000 N 
ATOM     13  N   UNL     1      -1.372  10.236  19.523  0.00  0.00    +0.000 NA
ATOM     14  C   UNL     1      -1.995  11.093  18.684  0.00  0.00    +0.000 A 
ATOM     15  N   UNL     1      -2.169  12.367  19.170  0.00  0.00    +0.000 NA
ATOM     16  C   UNL     1      -1.570  12.294  20.325  0.00  0.00    +0.000 A 
ATOM     17  N   UNL     1      -0.862  13.738  23.535  0.00  0.00    +0.000 NA
ATOM     18  H   UNL     1       0.929   9.383  22.531  0.00  0.00    +0.000 HD
ATOM     19  H   UNL     1       0.906   7.181  21.530  0.00  0.00    +0.000 HD
ENDROOT
BRANCH  11  20
ATOM     20  C   UNL     1       2.123   6.839  19.879  0.00  0.00    +0.000 A 
ATOM     21  C   UNL     1       2.312   5.471  20.076  0.00  0.00    +0.000 A 
ATOM     22  C   UNL     1       3.021   4.717  19.135  0.00  0.00    +0.000 A 
ATOM     23  N   UNL     1       3.557   5.295  18.004  0.00  0.00    +0.000 N 
ATOM     24  O   UNL     1       4.214   4.609  17.166  0.00  0.00    +0.000 OA
ATOM     25  C   UNL     1       3.347   6.648  17.805  0.00  0.00    +0.000 A 
ATOM     26  C   UNL     1       2.621   7.423  18.715  0.00  0.00    +0.000 A 
ENDBRANCH  11  20
BRANCH  14  27
ATOM     27  C   UNL     1      -2.486  10.703  17.331  0.00  0.00    +0.000 A 
ATOM     28  C   UNL     1      -3.565  11.250  16.669  0.00  0.00    +0.000 A 
ATOM     29  C   UNL     1      -3.676  10.564  15.437  0.00  0.00    +0.000 A 
ATOM     30  C   UNL     1      -2.667   9.631  15.427  0.00  0.00    +0.000 A 
ATOM     31  O   UNL     1      -1.924   9.722  16.558  0.00  0.00    +0.000 OA
ENDBRANCH  14  27
TORSDOF 2
ENDMDL
MODEL 3
REMARK VINA RESULT:      -7.6      3.322      9.508
REMARK  Name = 
REMARK  3 active torsions:
REMARK  status: ('A' for Active; 'I' for Inactive)
REMARK    1  A    between atoms: C_1  and  N_2
REMARK    2  A    between atoms: N_11  and  C_12
REMARK    3  A    between atoms: C_21  and  C_22
REMARK                            x       y       z     vdW  Elec       q    Type
REMARK                         _______ _______ _______ _____ _____    ______ ____
ROOT
ATOM      1  C   UNL     1       7.559   4.680  13.980  0.00  0.00    +0.000 C 
ATOM      2  N   UNL     1       6.574   5.097  14.954  0.00  0.00    +0.000 N 
ATOM      3  C   UNL     1       6.157   4.345  16.022  0.00  0.00    +0.000 A 
ATOM      4  C   UNL     1       5.189   5.112  16.598  0.00  0.00    +0.000 A 
ATOM      5  C   UNL     1       5.092   6.291  15.860  0.00  0.00    +0.000 A 
ATOM      6  N   UNL     1       4.179   7.338  16.155  0.00  0.00    +0.000 NA
ATOM      7  C   UNL     1       3.392   7.108  17.179  0.00  0.00    +0.000 A 
ATOM      8  N   UNL     1       2.480   8.081  17.574  0.00  0.00    +0.000 N 
ATOM      9  C   UNL     1       2.125   8.376  18.886  0.00  0.00    +0.000 C 
ATOM     10  O   UNL     1       2.750   7.966  19.857  0.00  0.00    +0.000 OA
ATOM     11  N   UNL     1       1.033   9.235  18.953  0.00  0.00    +0.000 N 
ATOM     12  N   UNL     1       3.370   5.896  17.920  0.00  0.00    +0.000 N 
ATOM     13  N   UNL     1       2.415   5.449  18.766  0.00  0.00    +0.000 NA
ATOM     14  C   UNL     1       2.978   4.299  19.196  0.00  0.00    +0.000 A 
ATOM     15  N   UNL     1       4.115   3.915  18.525  0.00  0.00    +0.000 NA
ATOM     16  C   UNL     1       4.282   4.908  17.699  0.00  0.00    +0.000 A 
ATOM     17  N   UNL     1       5.943   6.299  14.835  0.00  0.00    +0.000 NA
ATOM     18  H   UNL     1       2.494   8.892  16.973  0.00  0.00    +0.000 HD
ATOM     19  H   UNL     1       0.410   9.213  18.158  0.00  0.00    +0.000 HD
ENDROOT
BRANCH  11  20
ATOM     20  C   UNL     1       0.494   9.716  20.173  0.00  0.00    +0.000 A 
ATOM     21  C   UNL     1       0.087   8.863  21.200  0.00  0.00    +0.000 A 
ATOM     22  C   UNL     1      -0.474   9.387  22.369  0.00  0.00    +0.000 A 
ATOM     23  N   UNL     1      -0.651  10.745  22.537  0.00  0.00    +0.000 N 
ATOM     24  O   UNL     1      -1.177  11.211  23.591  0.00  0.00    +0.000 OA
ATOM     25  C   UNL     1      -0.226  11.586  21.524  0.00  0.00    +0.000 A 
ATOM     26  C   UNL     1       0.362  11.092  20.356  0.00  0.00    +0.000 A 
ENDBRANCH  11  20
BRANCH  14  27
ATOM     27  C   UNL     1       2.413   3.474  20.303  0.00  0.00    +0.000 A 
ATOM     28  C   UNL     1       1.109   3.495  20.748  0.00  0.00    +0.000 A 
ATOM     29  C   UNL     1       1.031   2.576  21.822  0.00  0.00    +0.000 A 
ATOM     30  C   UNL     1       2.296   2.061  21.975  0.00  0.00    +0.000 A 
ATOM     31  O   UNL     1       3.136   2.578  21.044  0.00  0.00    +0.000 OA
ENDBRANCH  14  27
TORSDOF 2
ENDMDL
MODEL 4
REMARK VINA RESULT:      -7.5      1.935      2.016
REMARK  Name = 
REMARK  3 active torsions:
REMARK  status: ('A' for Active; 'I' for Inactive)
REMARK    1  A    between atoms: C_1  and  N_2
REMARK    2  A    between atoms: N_11  and  C_12
REMARK    3  A    between atoms: C_21  and  C_22
REMARK                            x       y       z     vdW  Elec       q    Type
REMARK                         _______ _______ _______ _____ _____    ______ ____
ROOT
ATOM      1  C   UNL     1       1.143  16.835  21.647  0.00  0.00    +0.000 C 
ATOM      2  N   UNL     1       1.003  15.463  21.207  0.00  0.00    +0.000 N 
ATOM      3  C   UNL     1       0.250  15.053  20.137  0.00  0.00    +0.000 A 
ATOM      4  C   UNL     1       0.368  13.696  20.160  0.00  0.00    +0.000 A 
ATOM      5  C   UNL     1       1.202  13.365  21.228  0.00  0.00    +0.000 A 
ATOM      6  N   UNL     1       1.552  12.033  21.576  0.00  0.00    +0.000 NA
ATOM      7  C   UNL     1       1.006  11.107  20.825  0.00  0.00    +0.000 A 
ATOM      8  N   UNL     1       1.307   9.770  21.059  0.00  0.00    +0.000 N 
ATOM      9  C   UNL     1       1.462   8.789  20.085  0.00  0.00    +0.000 C 
ATOM     10  O   UNL     1       1.579   9.044  18.892  0.00  0.00    +0.000 OA
ATOM     11  N   UNL     1       1.536   7.513  20.632  0.00  0.00    +0.000 N 
ATOM     12  N   UNL     1       0.078  11.364  19.781  0.00  0.00    +0.000 N 
ATOM     13  N   UNL     1      -0.758  10.493  19.171  0.00  0.00    +0.000 NA
ATOM     14  C   UNL     1      -1.328  11.296  18.246  0.00  0.00    +0.000 A 
ATOM     15  N   UNL     1      -1.045  12.635  18.378  0.00  0.00    +0.000 NA
ATOM     16  C   UNL     1      -0.219  12.633  19.385  0.00  0.00    +0.000 A 
ATOM     17  N   UNL     1       1.604  14.448  21.890  0.00  0.00    +0.000 NA
ATOM     18  H   UNL     1       1.917   9.643  21.853  0.00  0.00    +0.000 HD
ATOM     19  H   UNL     1       1.086   7.396  21.529  0.00  0.00    +0.000 HD
ENDROOT
BRANCH  11  20
ATOM     20  C   UNL     1       1.728   6.342  19.856  0.00  0.00    +0.000 A 
ATOM     21  C   UNL     1       2.432   6.350  18.651  0.00  0.00    +0.000 A 
ATOM     22  C   UNL     1       2.560   5.174  17.904  0.00  0.00    +0.000 A 
ATOM     23  N   UNL     1       1.994   3.989  18.323  0.00  0.00    +0.000 N 
ATOM     24  O   UNL     1       2.099   2.932  17.632  0.00  0.00    +0.000 OA
ATOM     25  C   UNL     1       1.316   3.983  19.529  0.00  0.00    +0.000 A 
ATOM     26  C   UNL     1       1.193   5.137  20.310  0.00  0.00    +0.000 A 
ENDBRANCH  11  20
BRANCH  14  27
ATOM     27  C   UNL     1      -2.221  10.793  17.163  0.00  0.00    +0.000 A 
ATOM     28  C   UNL     1      -3.459  11.301  16.828  0.00  0.00    +0.000 A 
ATOM     29  C   UNL     1      -3.950  10.505  15.766  0.00  0.00    +0.000 A 
ATOM     30  C   UNL     1      -2.989   9.553  15.526  0.00  0.00    +0.000 A 
ATOM     31  O   UNL     1      -1.926   9.732  16.349  0.00  0.00    +0.000 OA
ENDBRANCH  14  27
TORSDOF 2
ENDMDL
MODEL 5
REMARK VINA RESULT:      -7.5      1.984      2.195
REMARK  Name = 
REMARK  3 active torsions:
REMARK  status: ('A' for Active; 'I' for Inactive)
REMARK    1  A    between atoms: C_1  and  N_2
REMARK    2  A    between atoms: N_11  and  C_12
REMARK    3  A    between atoms: C_21  and  C_22
REMARK                            x       y       z     vdW  Elec       q    Type
REMARK                         _______ _______ _______ _____ _____    ______ ____
ROOT
ATOM      1  C   UNL     1       0.880  17.278  20.883  0.00  0.00    +0.000 C 
ATOM      2  N   UNL     1       0.788  15.866  20.581  0.00  0.00    +0.000 N 
ATOM      3  C   UNL     1       0.058  15.327  19.554  0.00  0.00    +0.000 A 
ATOM      4  C   UNL     1       0.220  13.983  19.712  0.00  0.00    +0.000 A 
ATOM      5  C   UNL     1       1.056  13.788  20.812  0.00  0.00    +0.000 A 
ATOM      6  N   UNL     1       1.447  12.510  21.291  0.00  0.00    +0.000 NA
ATOM      7  C   UNL     1       0.938  11.496  20.633  0.00  0.00    +0.000 A 
ATOM      8  N   UNL     1       1.281  10.199  21.000  0.00  0.00    +0.000 N 
ATOM      9  C   UNL     1       1.475   9.133  20.129  0.00  0.00    +0.000 C 
ATOM     10  O   UNL     1       1.593   9.272  18.917  0.00  0.00    +0.000 OA
ATOM     11  N   UNL     1       1.587   7.920  20.800  0.00  0.00    +0.000 N 
ATOM     12  N   UNL     1       0.010  11.616  19.565  0.00  0.00    +0.000 N 
ATOM     13  N   UNL     1      -0.792  10.662  19.040  0.00  0.00    +0.000 NA
ATOM     14  C   UNL     1      -1.382  11.350  18.039  0.00  0.00    +0.000 A 
ATOM     15  N   UNL     1      -1.144  12.705  18.038  0.00  0.00    +0.000 NA
ATOM     16  C   UNL     1      -0.326  12.830  19.044  0.00  0.00    +0.000 A 
ATOM     17  N   UNL     1       1.418  14.944  21.364  0.00  0.00    +0.000 NA
ATOM     18  H   UNL     1       1.889  10.173  21.805  0.00  0.00    +0.000 HD
ATOM     19  H   UNL     1       1.134   7.877  21.703  0.00  0.00    +0.000 HD
ENDROOT
BRANCH  11  20
ATOM     20  C   UNL     1       1.824   6.685  20.145  0.00  0.00    +0.000 A 
ATOM     21  C   UNL     1       1.349   5.471  20.642  0.00  0.00    +0.000 A 
ATOM     22  C   UNL     1       1.642   4.276  19.978  0.00  0.00    +0.000 A 
ATOM     23  N   UNL     1       2.409   4.258  18.832  0.00  0.00    +0.000 N 
ATOM     24  O   UNL     1       2.686   3.170  18.246  0.00  0.00    +0.000 OA
ATOM     25  C   UNL     1       2.859   5.467  18.332  0.00  0.00    +0.000 A 
ATOM     26  C   UNL     1       2.560   6.680  18.960  0.00  0.00    +0.000 A 
ENDBRANCH  11  20
BRANCH  14  27
ATOM     27  C   UNL     1      -2.249  10.713  17.006  0.00  0.00    +0.000 A 
ATOM     28  C   UNL     1      -2.950   9.534  17.149  0.00  0.00    +0.000 A 
ATOM     29  C   UNL     1      -3.610   9.304  15.919  0.00  0.00    +0.000 A 
ATOM     30  C   UNL     1      -3.262  10.349  15.096  0.00  0.00    +0.000 A 
ATOM     31  O   UNL     1      -2.458  11.222  15.752  0.00  0.00    +0.000 OA
ENDBRANCH  14  27
TORSDOF 2
ENDMDL
MODEL 6
REMARK VINA RESULT:      -7.4      0.953      1.070
REMARK  Name = 
REMARK  3 active torsions:
REMARK  status: ('A' for Active; 'I' for Inactive)
REMARK    1  A    between atoms: C_1  and  N_2
REMARK    2  A    between atoms: N_11  and  C_12
REMARK    3  A    between atoms: C_21  and  C_22
REMARK                            x       y       z     vdW  Elec       q    Type
REMARK                         _______ _______ _______ _____ _____    ______ ____
ROOT
ATOM      1  C   UNL     1      -2.562  14.508  24.178  0.00  0.00    +0.000 C 
ATOM      2  N   UNL     1      -2.031  13.527  23.256  0.00  0.00    +0.000 N 
ATOM      3  C   UNL     1      -2.366  13.432  21.930  0.00  0.00    +0.000 A 
ATOM      4  C   UNL     1      -1.680  12.335  21.502  0.00  0.00    +0.000 A 
ATOM      5  C   UNL     1      -0.954  11.843  22.587  0.00  0.00    +0.000 A 
ATOM      6  N   UNL     1      -0.122  10.695  22.527  0.00  0.00    +0.000 NA
ATOM      7  C   UNL     1      -0.098  10.094  21.361  0.00  0.00    +0.000 A 
ATOM      8  N   UNL     1       0.711   8.976  21.183  0.00  0.00    +0.000 N 
ATOM      9  C   UNL     1       1.416   8.659  20.027  0.00  0.00    +0.000 C 
ATOM     10  O   UNL     1       1.588   9.453  19.110  0.00  0.00    +0.000 OA
ATOM     11  N   UNL     1       1.950   7.376  20.074  0.00  0.00    +0.000 N 
ATOM     12  N   UNL     1      -0.879  10.482  20.240  0.00  0.00    +0.000 N 
ATOM     13  N   UNL     1      -1.157   9.769  19.126  0.00  0.00    +0.000 NA
ATOM     14  C   UNL     1      -1.873  10.671  18.420  0.00  0.00    +0.000 A 
ATOM     15  N   UNL     1      -2.217  11.812  19.107  0.00  0.00    +0.000 NA
ATOM     16  C   UNL     1      -1.630  11.618  20.253  0.00  0.00    +0.000 A 
ATOM     17  N   UNL     1      -1.161  12.569  23.684  0.00  0.00    +0.000 NA
ATOM     18  H   UNL     1       1.191   8.707  22.030  0.00  0.00    +0.000 HD
ATOM     19  H   UNL     1       1.465   6.722  20.674  0.00  0.00    +0.000 HD
ENDROOT
BRANCH  11  20
ATOM     20  C   UNL     1       2.740   6.822  19.035  0.00  0.00    +0.000 A 
ATOM     21  C   UNL     1       3.468   7.613  18.145  0.00  0.00    +0.000 A 
ATOM     22  C   UNL     1       4.202   7.019  17.114  0.00  0.00    +0.000 A 
ATOM     23  N   UNL     1       4.220   5.651  16.938  0.00  0.00    +0.000 N 
ATOM     24  O   UNL     1       4.873   5.121  15.991  0.00  0.00    +0.000 OA
ATOM     25  C   UNL     1       3.514   4.871  17.837  0.00  0.00    +0.000 A 
ATOM     26  C   UNL     1       2.792   5.435  18.893  0.00  0.00    +0.000 A 
ENDBRANCH  11  20
BRANCH  14  27
ATOM     27  C   UNL     1      -2.290  10.460  17.004  0.00  0.00    +0.000 A 
ATOM     28  C   UNL     1      -2.881  11.397  16.183  0.00  0.00    +0.000 A 
ATOM     29  C   UNL     1      -3.122  10.757  14.945  0.00  0.00    +0.000 A 
ATOM     30  C   UNL     1      -2.676   9.465  15.090  0.00  0.00    +0.000 A 
ATOM     31  O   UNL     1      -2.147   9.280  16.325  0.00  0.00    +0.000 OA
ENDBRANCH  14  27
TORSDOF 2
ENDMDL
MODEL 7
REMARK VINA RESULT:      -7.2      3.669      8.395
REMARK  Name = 
REMARK  3 active torsions:
REMARK  status: ('A' for Active; 'I' for Inactive)
REMARK    1  A    between atoms: C_1  and  N_2
REMARK    2  A    between atoms: N_11  and  C_12
REMARK    3  A    between atoms: C_21  and  C_22
REMARK                            x       y       z     vdW  Elec       q    Type
REMARK                         _______ _______ _______ _____ _____    ______ ____
ROOT
ATOM      1  C   UNL     1       2.583   6.407  19.671  0.00  0.00    +0.000 C 
ATOM      2  N   UNL     1       1.817   7.569  20.067  0.00  0.00    +0.000 N 
ATOM      3  C   UNL     1       1.839   8.781  19.428  0.00  0.00    +0.000 A 
ATOM      4  C   UNL     1       1.029   9.565  20.194  0.00  0.00    +0.000 A 
ATOM      5  C   UNL     1       0.549   8.777  21.239  0.00  0.00    +0.000 A 
ATOM      6  N   UNL     1      -0.323   9.254  22.254  0.00  0.00    +0.000 NA
ATOM      7  C   UNL     1      -0.635  10.524  22.158  0.00  0.00    +0.000 A 
ATOM      8  N   UNL     1      -1.508  11.087  23.083  0.00  0.00    +0.000 N 
ATOM      9  C   UNL     1      -2.469  12.054  22.809  0.00  0.00    +0.000 C 
ATOM     10  O   UNL     1      -2.811  12.354  21.671  0.00  0.00    +0.000 OA
ATOM     11  N   UNL     1      -3.031  12.579  23.968  0.00  0.00    +0.000 N 
ATOM     12  N   UNL     1      -0.112  11.408  21.177  0.00  0.00    +0.000 N 
ATOM     13  N   UNL     1      -0.123  12.761  21.177  0.00  0.00    +0.000 NA
ATOM     14  C   UNL     1       0.451  13.018  19.982  0.00  0.00    +0.000 A 
ATOM     15  N   UNL     1       0.988  11.926  19.342  0.00  0.00    +0.000 NA
ATOM     16  C   UNL     1       0.669  10.959  20.155  0.00  0.00    +0.000 A 
ATOM     17  N   UNL     1       1.027   7.536  21.178  0.00  0.00    +0.000 NA
ATOM     18  H   UNL     1      -1.794  10.430  23.794  0.00  0.00    +0.000 HD
ATOM     19  H   UNL     1      -2.450  12.532  24.795  0.00  0.00    +0.000 HD
ENDROOT
BRANCH  11  20
ATOM     20  C   UNL     1      -4.058  13.556  23.964  0.00  0.00    +0.000 A 
ATOM     21  C   UNL     1      -5.401  13.230  23.770  0.00  0.00    +0.000 A 
ATOM     22  C   UNL     1      -6.371  14.236  23.736  0.00  0.00    +0.000 A 
ATOM     23  N   UNL     1      -6.036  15.566  23.880  0.00  0.00    +0.000 N 
ATOM     24  O   UNL     1      -6.918  16.474  23.830  0.00  0.00    +0.000 OA
ATOM     25  C   UNL     1      -4.705  15.881  24.093  0.00  0.00    +0.000 A 
ATOM     26  C   UNL     1      -3.716  14.894  24.158  0.00  0.00    +0.000 A 
ENDBRANCH  11  20
BRANCH  14  27
ATOM     27  C   UNL     1       0.527  14.383  19.386  0.00  0.00    +0.000 A 
ATOM     28  C   UNL     1       1.681  15.064  19.061  0.00  0.00    +0.000 A 
ATOM     29  C   UNL     1       1.280  16.321  18.550  0.00  0.00    +0.000 A 
ATOM     30  C   UNL     1      -0.093  16.336  18.608  0.00  0.00    +0.000 A 
ATOM     31  O   UNL     1      -0.561  15.158  19.089  0.00  0.00    +0.000 OA
ENDBRANCH  14  27
TORSDOF 2
ENDMDL
MODEL 8
REMARK VINA RESULT:      -7.1      1.457      1.657
REMARK  Name = 
REMARK  3 active torsions:
REMARK  status: ('A' for Active; 'I' for Inactive)
REMARK    1  A    between atoms: C_1  and  N_2
REMARK    2  A    between atoms: N_11  and  C_12
REMARK    3  A    between atoms: C_21  and  C_22
REMARK                            x       y       z     vdW  Elec       q    Type
REMARK                         _______ _______ _______ _____ _____    ______ ____
ROOT
ATOM      1  C   UNL     1      -0.155  16.520  22.124  0.00  0.00    +0.000 C 
ATOM      2  N   UNL     1      -0.044  15.201  21.540  0.00  0.00    +0.000 N 
ATOM      3  C   UNL     1      -0.730  14.771  20.434  0.00  0.00    +0.000 A 
ATOM      4  C   UNL     1      -0.359  13.465  20.311  0.00  0.00    +0.000 A 
ATOM      5  C   UNL     1       0.546  13.188  21.336  0.00  0.00    +0.000 A 
ATOM      6  N   UNL     1       1.146  11.917  21.538  0.00  0.00    +0.000 NA
ATOM      7  C   UNL     1       0.768  10.989  20.693  0.00  0.00    +0.000 A 
ATOM      8  N   UNL     1       1.319   9.715  20.782  0.00  0.00    +0.000 N 
ATOM      9  C   UNL     1       1.634   8.889  19.708  0.00  0.00    +0.000 C 
ATOM     10  O   UNL     1       1.675   9.286  18.549  0.00  0.00    +0.000 OA
ATOM     11  N   UNL     1       1.959   7.600  20.115  0.00  0.00    +0.000 N 
ATOM     12  N   UNL     1      -0.215  11.173  19.684  0.00  0.00    +0.000 N 
ATOM     13  N   UNL     1      -0.885  10.229  18.985  0.00  0.00    +0.000 NA
ATOM     14  C   UNL     1      -1.616  11.003  18.153  0.00  0.00    +0.000 A 
ATOM     15  N   UNL     1      -1.587  12.350  18.428  0.00  0.00    +0.000 NA
ATOM     16  C   UNL     1      -0.753  12.398  19.428  0.00  0.00    +0.000 A 
ATOM     17  N   UNL     1       0.752  14.252  22.109  0.00  0.00    +0.000 NA
ATOM     18  H   UNL     1       1.960   9.624  21.556  0.00  0.00    +0.000 HD
ATOM     19  H   UNL     1       1.558   7.306  20.995  0.00  0.00    +0.000 HD
ENDROOT
BRANCH  11  20
ATOM     20  C   UNL     1       2.350   6.574  19.217  0.00  0.00    +0.000 A 
ATOM     21  C   UNL     1       1.612   5.401  19.053  0.00  0.00    +0.000 A 
ATOM     22  C   UNL     1       2.062   4.403  18.183  0.00  0.00    +0.000 A 
ATOM     23  N   UNL     1       3.239   4.540  17.477  0.00  0.00    +0.000 N 
ATOM     24  O   UNL     1       3.649   3.624  16.704  0.00  0.00    +0.000 OA
ATOM     25  C   UNL     1       3.955   5.714  17.628  0.00  0.00    +0.000 A 
ATOM     26  C   UNL     1       3.516   6.740  18.471  0.00  0.00    +0.000 A 
ENDBRANCH  11  20
BRANCH  14  27
ATOM     27  C   UNL     1      -2.422  10.457  17.024  0.00  0.00    +0.000 A 
ATOM     28  C   UNL     1      -2.326  10.833  15.701  0.00  0.00    +0.000 A 
ATOM     29  C   UNL     1      -3.290  10.078  14.993  0.00  0.00    +0.000 A 
ATOM     30  C   UNL     1      -3.926   9.297  15.929  0.00  0.00    +0.000 A 
ATOM     31  O   UNL     1      -3.391   9.499  17.158  0.00  0.00    +0.000 OA
ENDBRANCH  14  27
TORSDOF 2
ENDMDL
MODEL 9
REMARK VINA RESULT:      -7.1      3.616      8.413
REMARK  Name = 
REMARK  3 active torsions:
REMARK  status: ('A' for Active; 'I' for Inactive)
REMARK    1  A    between atoms: C_1  and  N_2
REMARK    2  A    between atoms: N_11  and  C_12
REMARK    3  A    between atoms: C_21  and  C_22
REMARK                            x       y       z     vdW  Elec       q    Type
REMARK                         _______ _______ _______ _____ _____    ______ ____
ROOT
ATOM      1  C   UNL     1       2.532   6.266  19.815  0.00  0.00    +0.000 C 
ATOM      2  N   UNL     1       1.790   7.451  20.187  0.00  0.00    +0.000 N 
ATOM      3  C   UNL     1       1.866   8.660  19.546  0.00  0.00    +0.000 A 
ATOM      4  C   UNL     1       1.059   9.470  20.287  0.00  0.00    +0.000 A 
ATOM      5  C   UNL     1       0.525   8.699  21.320  0.00  0.00    +0.000 A 
ATOM      6  N   UNL     1      -0.360   9.205  22.309  0.00  0.00    +0.000 NA
ATOM      7  C   UNL     1      -0.632  10.483  22.202  0.00  0.00    +0.000 A 
ATOM      8  N   UNL     1      -1.514  11.074  23.100  0.00  0.00    +0.000 N 
ATOM      9  C   UNL     1      -2.437  12.069  22.797  0.00  0.00    +0.000 C 
ATOM     10  O   UNL     1      -2.738  12.376  21.649  0.00  0.00    +0.000 OA
ATOM     11  N   UNL     1      -3.016  12.613  23.939  0.00  0.00    +0.000 N 
ATOM     12  N   UNL     1      -0.055  11.349  21.234  0.00  0.00    +0.000 N 
ATOM     13  N   UNL     1      -0.026  12.701  21.232  0.00  0.00    +0.000 NA
ATOM     14  C   UNL     1       0.590  12.938  20.053  0.00  0.00    +0.000 A 
ATOM     15  N   UNL     1       1.112  11.828  19.431  0.00  0.00    +0.000 NA
ATOM     16  C   UNL     1       0.741  10.874  20.236  0.00  0.00    +0.000 A 
ATOM     17  N   UNL     1       0.968   7.445  21.275  0.00  0.00    +0.000 NA
ATOM     18  H   UNL     1      -1.840  10.428  23.804  0.00  0.00    +0.000 HD
ATOM     19  H   UNL     1      -2.461  12.551  24.782  0.00  0.00    +0.000 HD
ENDROOT
BRANCH  11  20
ATOM     20  C   UNL     1      -4.013  13.621  23.903  0.00  0.00    +0.000 A 
ATOM     21  C   UNL     1      -3.722  14.970  24.112  0.00  0.00    +0.000 A 
ATOM     22  C   UNL     1      -4.748  15.919  24.105  0.00  0.00    +0.000 A 
ATOM     23  N   UNL     1      -6.064  15.558  23.904  0.00  0.00    +0.000 N 
ATOM     24  O   UNL     1      -6.990  16.421  23.916  0.00  0.00    +0.000 OA
ATOM     25  C   UNL     1      -6.343  14.222  23.675  0.00  0.00    +0.000 A 
ATOM     26  C   UNL     1      -5.334  13.253  23.651  0.00  0.00    +0.000 A 
ENDBRANCH  11  20
BRANCH  14  27
ATOM     27  C   UNL     1       0.724  14.299  19.457  0.00  0.00    +0.000 A 
ATOM     28  C   UNL     1      -0.311  15.147  19.127  0.00  0.00    +0.000 A 
ATOM     29  C   UNL     1       0.277  16.309  18.575  0.00  0.00    +0.000 A 
ATOM     30  C   UNL     1       1.635  16.094  18.589  0.00  0.00    +0.000 A 
ATOM     31  O   UNL     1       1.919  14.890  19.144  0.00  0.00    +0.000 OA
ENDBRANCH  14  27
TORSDOF 2
ENDMDL
