MODEL 1
REMARK VINA RESULT:      -7.9      0.000      0.000
REMARK  Name = 
REMARK  7 active torsions:
REMARK  status: ('A' for Active; 'I' for Inactive)
REMARK    1  A    between atoms: C_2  and  C_3
REMARK    2  A    between atoms: N_6  and  C_7
REMARK    3  A    between atoms: C_7  and  C_8
REMARK    4  A    between atoms: N_19  and  C_20
REMARK    5  A    between atoms: C_20  and  C_21
REMARK    6  A    between atoms: C_21  and  C_22
REMARK    7  A    between atoms: C_22  and  O_24
REMARK                            x       y       z     vdW  Elec       q    Type
REMARK                         _______ _______ _______ _____ _____    ______ ____
ROOT
ATOM      1  C   UNL     1       2.491   4.640  20.527  0.00  0.00    +0.000 A 
ATOM      2  N   UNL     1       1.879   5.807  20.852  0.00  0.00    +0.000 NA
ATOM      3  C   UNL     1       2.068   6.888  20.055  0.00  0.00    +0.000 A 
ATOM      4  N   UNL     1       1.395   8.081  20.282  0.00  0.00    +0.000 N 
ATOM      5  C   UNL     1       2.920   6.738  18.941  0.00  0.00    +0.000 A 
ATOM      6  N   UNL     1       3.324   7.631  17.972  0.00  0.00    +0.000 NA
ATOM      7  C   UNL     1       4.136   6.943  17.196  0.00  0.00    +0.000 A 
ATOM      8  N   UNL     1       4.249   5.638  17.603  0.00  0.00    +0.000 N 
ATOM      9  C   UNL     1       3.488   5.491  18.732  0.00  0.00    +0.000 A 
ATOM     10  N   UNL     1       3.313   4.388  19.477  0.00  0.00    +0.000 NA
ATOM     11  H   UNL     1       1.679   8.807  19.632  0.00  0.00    +0.000 HD
ENDROOT
BRANCH   1  13
ATOM     12  N   UNL     1       1.930   2.611  22.064  0.00  0.00    +0.000 NA
ATOM     13  C   UNL     1       2.189   3.514  21.376  0.00  0.00    +0.000 C 
ENDBRANCH   1  13
BRANCH   4  14
ATOM     14  C   UNL     1       1.138   8.506  21.645  0.00  0.00    +0.000 C 
BRANCH  14  15
ATOM     15  C   UNL     1       0.156   9.658  21.758  0.00  0.00    +0.000 A 
ATOM     16  C   UNL     1      -0.428  10.053  22.971  0.00  0.00    +0.000 A 
ATOM     17  C   UNL     1      -1.279  11.163  23.033  0.00  0.00    +0.000 A 
ATOM     18  C   UNL     1      -1.550  11.910  21.885  0.00  0.00    +0.000 A 
ATOM     19 CL   UNL     1      -2.606  13.269  22.038  0.00  0.00    +0.000 Cl
ATOM     20  C   UNL     1      -0.961  11.548  20.672  0.00  0.00    +0.000 A 
ATOM     21 CL   UNL     1      -1.225  12.435  19.213  0.00  0.00    +0.000 Cl
ATOM     22  C   UNL     1      -0.113  10.433  20.613  0.00  0.00    +0.000 A 
ENDBRANCH  14  15
ENDBRANCH   4  14
BRANCH   8  23
ATOM     23  C   UNL     1       5.096   4.639  16.982  0.00  0.00    +0.000 C 
BRANCH  23  24
ATOM     24  C   UNL     1       6.541   5.089  16.783  0.00  0.00    +0.000 C 
BRANCH  24  25
ATOM     25  C   UNL     1       7.353   4.742  18.003  0.00  0.00    +0.000 C 
ATOM     26  O   UNL     1       7.112   5.138  19.132  0.00  0.00    +0.000 OA
BRANCH  25  27
ATOM     27  O   UNL     1       8.409   3.948  17.726  0.00  0.00    +0.000 OA
ATOM     28  H   UNL     1       8.443   3.115  18.235  0.00  0.00    +0.000 HD
ENDBRANCH  25  27
ENDBRANCH  24  25
ENDBRANCH  23  24
ENDBRANCH   8  23
TORSDOF 7
ENDMDL
MODEL 2
REMARK VINA RESULT:      -7.8      1.167      1.290
REMARK  Name = 
REMARK  7 active torsions:
REMARK  status: ('A' for Active; 'I' for Inactive)
REMARK    1  A    between atoms: C_2  and  C_3
REMARK    2  A    between atoms: N_6  and  C_7
REMARK    3  A    between atoms: C_7  and  C_8
REMARK    4  A    between atoms: N_19  and  C_20
REMARK    5  A    between atoms: C_20  and  C_21
REMARK    6  A    between atoms: C_21  and  C_22
REMARK    7  A    between atoms: C_22  and  O_24
REMARK                            x       y       z     vdW  Elec       q    Type
REMARK                         _______ _______ _______ _____ _____    ______ ____
ROOT
ATOM      1  C   UNL     1       2.462   4.542  20.475  0.00  0.00    +0.000 A 
ATOM      2  N   UNL     1       1.958   5.756  20.813  0.00  0.00    +0.000 NA
ATOM      3  C   UNL     1       2.205   6.814  20.001  0.00  0.00    +0.000 A 
ATOM      4  N   UNL     1       1.640   8.059  20.243  0.00  0.00    +0.000 N 
ATOM      5  C   UNL     1       3.000   6.590  18.858  0.00  0.00    +0.000 A 
ATOM      6  N   UNL     1       3.438   7.443  17.867  0.00  0.00    +0.000 NA
ATOM      7  C   UNL     1       4.162   6.687  17.068  0.00  0.00    +0.000 A 
ATOM      8  N   UNL     1       4.185   5.379  17.481  0.00  0.00    +0.000 N 
ATOM      9  C   UNL     1       3.457   5.300  18.639  0.00  0.00    +0.000 A 
ATOM     10  N   UNL     1       3.221   4.218  19.398  0.00  0.00    +0.000 NA
ATOM     11  H   UNL     1       1.957   8.756  19.576  0.00  0.00    +0.000 HD
ENDROOT
BRANCH   1  13
ATOM     12  N   UNL     1       1.805   2.577  22.057  0.00  0.00    +0.000 NA
ATOM     13  C   UNL     1       2.101   3.448  21.344  0.00  0.00    +0.000 C 
ENDBRANCH   1  13
BRANCH   4  14
ATOM     14  C   UNL     1       1.469   8.511  21.610  0.00  0.00    +0.000 C 
BRANCH  14  15
ATOM     15  C   UNL     1       0.430   9.606  21.774  0.00  0.00    +0.000 A 
ATOM     16  C   UNL     1      -0.307   9.795  22.954  0.00  0.00    +0.000 A 
ATOM     17  C   UNL     1      -1.207  10.860  23.077  0.00  0.00    +0.000 A 
ATOM     18  C   UNL     1      -1.376  11.767  22.029  0.00  0.00    +0.000 A 
ATOM     19 CL   UNL     1      -2.502  13.058  22.254  0.00  0.00    +0.000 Cl
ATOM     20  C   UNL     1      -0.635  11.610  20.856  0.00  0.00    +0.000 A 
ATOM     21 CL   UNL     1      -0.768  12.704  19.524  0.00  0.00    +0.000 Cl
ATOM     22  C   UNL     1       0.262  10.541  20.734  0.00  0.00    +0.000 A 
ENDBRANCH  14  15
ENDBRANCH   4  14
BRANCH   8  23
ATOM     23  C   UNL     1       4.924   4.311  16.837  0.00  0.00    +0.000 C 
BRANCH  23  24
ATOM     24  C   UNL     1       6.425   4.568  16.740  0.00  0.00    +0.000 C 
BRANCH  24  25
ATOM     25  C   UNL     1       6.848   4.570  15.295  0.00  0.00    +0.000 C 
ATOM     26  O   UNL     1       7.564   5.415  14.782  0.00  0.00    +0.000 OA
BRANCH  25  27
ATOM     27  O   UNL     1       6.336   3.536  14.594  0.00  0.00    +0.000 OA
ATOM     28  H   UNL     1       5.796   3.789  13.821  0.00  0.00    +0.000 HD
ENDBRANCH  25  27
ENDBRANCH  24  25
ENDBRANCH  23  24
ENDBRANCH   8  23
TORSDOF 7
ENDMDL
MODEL 3
REMARK VINA RESULT:      -7.7      6.171      7.809
REMARK  Name = 
REMARK  7 active torsions:
REMARK  status: ('A' for Active; 'I' for Inactive)
REMARK    1  A    between atoms: C_2  and  C_3
REMARK    2  A    between atoms: N_6  and  C_7
REMARK    3  A    between atoms: C_7  and  C_8
REMARK    4  A    between atoms: N_19  and  C_20
REMARK    5  A    between atoms: C_20  and  C_21
REMARK    6  A    between atoms: C_21  and  C_22
REMARK    7  A    between atoms: C_22  and  O_24
REMARK                            x       y       z     vdW  Elec       q    Type
REMARK                         _______ _______ _______ _____ _____    ______ ____
ROOT
ATOM      1  C   UNL     1       6.642   5.132  15.572  0.00  0.00    +0.000 A 
ATOM      2  N   UNL     1       7.283   6.188  16.134  0.00  0.00    +0.000 NA
ATOM      3  C   UNL     1       7.080   6.449  17.450  0.00  0.00    +0.000 A 
ATOM      4  N   UNL     1       7.779   7.455  18.103  0.00  0.00    +0.000 N 
ATOM      5  C   UNL     1       6.186   5.615  18.152  0.00  0.00    +0.000 A 
ATOM      6  N   UNL     1       5.761   5.630  19.464  0.00  0.00    +0.000 NA
ATOM      7  C   UNL     1       4.910   4.628  19.553  0.00  0.00    +0.000 A 
ATOM      8  N   UNL     1       4.792   3.949  18.367  0.00  0.00    +0.000 N 
ATOM      9  C   UNL     1       5.592   4.578  17.451  0.00  0.00    +0.000 A 
ATOM     10  N   UNL     1       5.777   4.265  16.159  0.00  0.00    +0.000 NA
ATOM     11  H   UNL     1       7.484   7.558  19.069  0.00  0.00    +0.000 HD
ENDROOT
BRANCH   1  13
ATOM     12  N   UNL     1       7.215   4.640  13.077  0.00  0.00    +0.000 NA
ATOM     13  C   UNL     1       6.958   4.869  14.189  0.00  0.00    +0.000 C 
ENDBRANCH   1  13
BRANCH   4  14
ATOM     14  C   UNL     1       8.093   8.681  17.395  0.00  0.00    +0.000 C 
BRANCH  14  15
ATOM     15  C   UNL     1       8.619   9.793  18.286  0.00  0.00    +0.000 A 
ATOM     16  C   UNL     1       9.090   9.573  19.590  0.00  0.00    +0.000 A 
ATOM     17  C   UNL     1       9.625  10.622  20.348  0.00  0.00    +0.000 A 
ATOM     18  C   UNL     1       9.714  11.908  19.810  0.00  0.00    +0.000 A 
ATOM     19 CL   UNL     1      10.388  13.152  20.803  0.00  0.00    +0.000 Cl
ATOM     20  C   UNL     1       9.272  12.142  18.507  0.00  0.00    +0.000 A 
ATOM     21 CL   UNL     1       9.371  13.698  17.761  0.00  0.00    +0.000 Cl
ATOM     22  C   UNL     1       8.733  11.091  17.752  0.00  0.00    +0.000 A 
ENDBRANCH  14  15
ENDBRANCH   4  14
BRANCH   8  23
ATOM     23  C   UNL     1       3.908   2.825  18.132  0.00  0.00    +0.000 C 
BRANCH  23  24
ATOM     24  C   UNL     1       2.477   3.224  17.781  0.00  0.00    +0.000 C 
BRANCH  24  25
ATOM     25  C   UNL     1       1.519   2.582  18.750  0.00  0.00    +0.000 C 
ATOM     26  O   UNL     1       0.342   2.359  18.516  0.00  0.00    +0.000 OA
BRANCH  25  27
ATOM     27  O   UNL     1       2.089   2.283  19.936  0.00  0.00    +0.000 OA
ATOM     28  H   UNL     1       2.412   1.365  20.020  0.00  0.00    +0.000 HD
ENDBRANCH  25  27
ENDBRANCH  24  25
ENDBRANCH  23  24
ENDBRANCH   8  23
TORSDOF 7
ENDMDL
MODEL 4
REMARK VINA RESULT:      -7.6      1.459      1.971
REMARK  Name = 
REMARK  7 active torsions:
REMARK  status: ('A' for Active; 'I' for Inactive)
REMARK    1  A    between atoms: C_2  and  C_3
REMARK    2  A    between atoms: N_6  and  C_7
REMARK    3  A    between atoms: C_7  and  C_8
REMARK    4  A    between atoms: N_19  and  C_20
REMARK    5  A    between atoms: C_20  and  C_21
REMARK    6  A    between atoms: C_21  and  C_22
REMARK    7  A    between atoms: C_22  and  O_24
REMARK                            x       y       z     vdW  Elec       q    Type
REMARK                         _______ _______ _______ _____ _____    ______ ____
ROOT
ATOM      1  C   UNL     1       2.662   4.652  20.345  0.00  0.00    +0.000 A 
ATOM      2  N   UNL     1       2.049   5.858  20.456  0.00  0.00    +0.000 NA
ATOM      3  C   UNL     1       2.345   6.826  19.553  0.00  0.00    +0.000 A 
ATOM      4  N   UNL     1       1.682   8.046  19.558  0.00  0.00    +0.000 N 
ATOM      5  C   UNL     1       3.301   6.525  18.561  0.00  0.00    +0.000 A 
ATOM      6  N   UNL     1       3.821   7.283  17.534  0.00  0.00    +0.000 NA
ATOM      7  C   UNL     1       4.690   6.492  16.938  0.00  0.00    +0.000 A 
ATOM      8  N   UNL     1       4.730   5.248  17.516  0.00  0.00    +0.000 N 
ATOM      9  C   UNL     1       3.856   5.255  18.570  0.00  0.00    +0.000 A 
ATOM     10  N   UNL     1       3.579   4.258  19.425  0.00  0.00    +0.000 NA
ATOM     11  H   UNL     1       2.047   8.680  18.854  0.00  0.00    +0.000 HD
ENDROOT
BRANCH   1  13
ATOM     12  N   UNL     1       1.927   2.839  22.068  0.00  0.00    +0.000 NA
ATOM     13  C   UNL     1       2.248   3.647  21.293  0.00  0.00    +0.000 C 
ENDBRANCH   1  13
BRANCH   4  14
ATOM     14  C   UNL     1       1.300   8.644  20.823  0.00  0.00    +0.000 C 
BRANCH  14  15
ATOM     15  C   UNL     1       0.338   9.812  20.689  0.00  0.00    +0.000 A 
ATOM     16  C   UNL     1      -0.197  10.228  19.459  0.00  0.00    +0.000 A 
ATOM     17  C   UNL     1      -1.131  11.269  19.397  0.00  0.00    +0.000 A 
ATOM     18  C   UNL     1      -1.559  11.905  20.564  0.00  0.00    +0.000 A 
ATOM     19 CL   UNL     1      -2.716  13.180  20.410  0.00  0.00    +0.000 Cl
ATOM     20  C   UNL     1      -1.056  11.491  21.799  0.00  0.00    +0.000 A 
ATOM     21 CL   UNL     1      -1.555  12.208  23.290  0.00  0.00    +0.000 Cl
ATOM     22  C   UNL     1      -0.119  10.451  21.858  0.00  0.00    +0.000 A 
ENDBRANCH  14  15
ENDBRANCH   4  14
BRANCH   8  23
ATOM     23  C   UNL     1       5.610   4.168  17.115  0.00  0.00    +0.000 C 
BRANCH  23  24
ATOM     24  C   UNL     1       6.981   4.633  16.634  0.00  0.00    +0.000 C 
BRANCH  24  25
ATOM     25  C   UNL     1       7.037   4.577  15.130  0.00  0.00    +0.000 C 
ATOM     26  O   UNL     1       7.634   5.378  14.428  0.00  0.00    +0.000 OA
BRANCH  25  27
ATOM     27  O   UNL     1       6.336   3.546  14.614  0.00  0.00    +0.000 OA
ATOM     28  H   UNL     1       6.130   2.830  15.245  0.00  0.00    +0.000 HD
ENDBRANCH  25  27
ENDBRANCH  24  25
ENDBRANCH  23  24
ENDBRANCH   8  23
TORSDOF 7
ENDMDL
MODEL 5
REMARK VINA RESULT:      -7.6      2.731      4.391
REMARK  Name = 
REMARK  7 active torsions:
REMARK  status: ('A' for Active; 'I' for Inactive)
REMARK    1  A    between atoms: C_2  and  C_3
REMARK    2  A    between atoms: N_6  and  C_7
REMARK    3  A    between atoms: C_7  and  C_8
REMARK    4  A    between atoms: N_19  and  C_20
REMARK    5  A    between atoms: C_20  and  C_21
REMARK    6  A    between atoms: C_21  and  C_22
REMARK    7  A    between atoms: C_22  and  O_24
REMARK                            x       y       z     vdW  Elec       q    Type
REMARK                         _______ _______ _______ _____ _____    ______ ____
ROOT
ATOM      1  C   UNL     1       4.015   6.346  17.417  0.00  0.00    +0.000 A 
ATOM      2  N   UNL     1       3.333   7.487  17.690  0.00  0.00    +0.000 NA
ATOM      3  C   UNL     1       2.510   7.513  18.768  0.00  0.00    +0.000 A 
ATOM      4  N   UNL     1       1.860   8.678  19.154  0.00  0.00    +0.000 N 
ATOM      5  C   UNL     1       2.392   6.332  19.530  0.00  0.00    +0.000 A 
ATOM      6  N   UNL     1       1.639   6.036  20.646  0.00  0.00    +0.000 NA
ATOM      7  C   UNL     1       1.913   4.775  20.912  0.00  0.00    +0.000 A 
ATOM      8  N   UNL     1       2.831   4.254  20.036  0.00  0.00    +0.000 N 
ATOM      9  C   UNL     1       3.139   5.235  19.131  0.00  0.00    +0.000 A 
ATOM     10  N   UNL     1       3.983   5.167  18.089  0.00  0.00    +0.000 NA
ATOM     11  H   UNL     1       1.246   8.525  19.947  0.00  0.00    +0.000 HD
ENDROOT
BRANCH   1  13
ATOM     12  N   UNL     1       5.655   6.447  15.393  0.00  0.00    +0.000 NA
ATOM     13  C   UNL     1       4.926   6.410  16.300  0.00  0.00    +0.000 C 
ENDBRANCH   1  13
BRANCH   4  14
ATOM     14  C   UNL     1       1.381   9.596  18.138  0.00  0.00    +0.000 C 
BRANCH  14  15
ATOM     15  C   UNL     1       0.025  10.207  18.449  0.00  0.00    +0.000 A 
ATOM     16  C   UNL     1      -0.193  11.083  19.523  0.00  0.00    +0.000 A 
ATOM     17  C   UNL     1      -1.447  11.671  19.728  0.00  0.00    +0.000 A 
ATOM     18  C   UNL     1      -2.503  11.407  18.853  0.00  0.00    +0.000 A 
ATOM     19 CL   UNL     1      -4.021  12.170  19.168  0.00  0.00    +0.000 Cl
ATOM     20  C   UNL     1      -2.299  10.556  17.765  0.00  0.00    +0.000 A 
ATOM     21 CL   UNL     1      -3.547  10.198  16.624  0.00  0.00    +0.000 Cl
ATOM     22  C   UNL     1      -1.044   9.966  17.565  0.00  0.00    +0.000 A 
ENDBRANCH  14  15
ENDBRANCH   4  14
BRANCH   8  23
ATOM     23  C   UNL     1       3.308   2.885  20.040  0.00  0.00    +0.000 C 
BRANCH  23  24
ATOM     24  C   UNL     1       2.207   1.846  19.854  0.00  0.00    +0.000 C 
BRANCH  24  25
ATOM     25  C   UNL     1       1.452   2.128  18.581  0.00  0.00    +0.000 C 
ATOM     26  O   UNL     1       0.265   2.405  18.526  0.00  0.00    +0.000 OA
BRANCH  25  27
ATOM     27  O   UNL     1       2.223   2.027  17.478  0.00  0.00    +0.000 OA
ATOM     28  H   UNL     1       2.968   2.657  17.436  0.00  0.00    +0.000 HD
ENDBRANCH  25  27
ENDBRANCH  24  25
ENDBRANCH  23  24
ENDBRANCH   8  23
TORSDOF 7
ENDMDL
MODEL 6
REMARK VINA RESULT:      -7.5      2.335      2.973
REMARK  Name = 
REMARK  7 active torsions:
REMARK  status: ('A' for Active; 'I' for Inactive)
REMARK    1  A    between atoms: C_2  and  C_3
REMARK    2  A    between atoms: N_6  and  C_7
REMARK    3  A    between atoms: C_7  and  C_8
REMARK    4  A    between atoms: N_19  and  C_20
REMARK    5  A    between atoms: C_20  and  C_21
REMARK    6  A    between atoms: C_21  and  C_22
REMARK    7  A    between atoms: C_22  and  O_24
REMARK                            x       y       z     vdW  Elec       q    Type
REMARK                         _______ _______ _______ _____ _____    ______ ____
ROOT
ATOM      1  C   UNL     1       2.384   4.161  18.060  0.00  0.00    +0.000 A 
ATOM      2  N   UNL     1       2.058   5.349  18.629  0.00  0.00    +0.000 NA
ATOM      3  C   UNL     1       2.855   6.423  18.401  0.00  0.00    +0.000 A 
ATOM      4  N   UNL     1       2.523   7.684  18.876  0.00  0.00    +0.000 N 
ATOM      5  C   UNL     1       4.000   6.229  17.601  0.00  0.00    +0.000 A 
ATOM      6  N   UNL     1       4.998   7.095  17.208  0.00  0.00    +0.000 NA
ATOM      7  C   UNL     1       5.817   6.360  16.485  0.00  0.00    +0.000 A 
ATOM      8  N   UNL     1       5.376   5.067  16.367  0.00  0.00    +0.000 N 
ATOM      9  C   UNL     1       4.218   4.959  17.091  0.00  0.00    +0.000 A 
ATOM     10  N   UNL     1       3.448   3.873  17.268  0.00  0.00    +0.000 NA
ATOM     11  H   UNL     1       3.240   8.371  18.666  0.00  0.00    +0.000 HD
ENDROOT
BRANCH   1  13
ATOM     12  N   UNL     1       0.703   2.207  18.449  0.00  0.00    +0.000 NA
ATOM     13  C   UNL     1       1.455   3.080  18.284  0.00  0.00    +0.000 C 
ENDBRANCH   1  13
BRANCH   4  14
ATOM     14  C   UNL     1       1.874   7.811  20.168  0.00  0.00    +0.000 C 
BRANCH  14  15
ATOM     15  C   UNL     1       0.978   9.031  20.292  0.00  0.00    +0.000 A 
ATOM     16  C   UNL     1       0.627   9.840  19.200  0.00  0.00    +0.000 A 
ATOM     17  C   UNL     1      -0.254  10.916  19.356  0.00  0.00    +0.000 A 
ATOM     18  C   UNL     1      -0.815  11.194  20.604  0.00  0.00    +0.000 A 
ATOM     19 CL   UNL     1      -1.897  12.537  20.720  0.00  0.00    +0.000 Cl
ATOM     20  C   UNL     1      -0.497  10.388  21.698  0.00  0.00    +0.000 A 
ATOM     21 CL   UNL     1      -1.168  10.650  23.269  0.00  0.00    +0.000 Cl
ATOM     22  C   UNL     1       0.389   9.314  21.539  0.00  0.00    +0.000 A 
ENDBRANCH  14  15
ENDBRANCH   4  14
BRANCH   8  23
ATOM     23  C   UNL     1       6.074   4.005  15.668  0.00  0.00    +0.000 C 
BRANCH  23  24
ATOM     24  C   UNL     1       5.704   3.888  14.192  0.00  0.00    +0.000 C 
BRANCH  24  25
ATOM     25  C   UNL     1       6.822   4.436  13.344  0.00  0.00    +0.000 C 
ATOM     26  O   UNL     1       7.574   5.335  13.685  0.00  0.00    +0.000 OA
BRANCH  25  27
ATOM     27  O   UNL     1       6.908   3.842  12.136  0.00  0.00    +0.000 OA
ATOM     28  H   UNL     1       7.534   4.259  11.514  0.00  0.00    +0.000 HD
ENDBRANCH  25  27
ENDBRANCH  24  25
ENDBRANCH  23  24
ENDBRANCH   8  23
TORSDOF 7
ENDMDL
MODEL 7
REMARK VINA RESULT:      -7.4      2.358      4.087
REMARK  Name = 
REMARK  7 active torsions:
REMARK  status: ('A' for Active; 'I' for Inactive)
REMARK    1  A    between atoms: C_2  and  C_3
REMARK    2  A    between atoms: N_6  and  C_7
REMARK    3  A    between atoms: C_7  and  C_8
REMARK    4  A    between atoms: N_19  and  C_20
REMARK    5  A    between atoms: C_20  and  C_21
REMARK    6  A    between atoms: C_21  and  C_22
REMARK    7  A    between atoms: C_22  and  O_24
REMARK                            x       y       z     vdW  Elec       q    Type
REMARK                         _______ _______ _______ _____ _____    ______ ____
ROOT
ATOM      1  C   UNL     1       4.026   6.423  17.527  0.00  0.00    +0.000 A 
ATOM      2  N   UNL     1       3.270   7.529  17.744  0.00  0.00    +0.000 NA
ATOM      3  C   UNL     1       2.426   7.544  18.806  0.00  0.00    +0.000 A 
ATOM      4  N   UNL     1       1.699   8.680  19.135  0.00  0.00    +0.000 N 
ATOM      5  C   UNL     1       2.367   6.388  19.611  0.00  0.00    +0.000 A 
ATOM      6  N   UNL     1       1.613   6.087  20.725  0.00  0.00    +0.000 NA
ATOM      7  C   UNL     1       1.958   4.857  21.044  0.00  0.00    +0.000 A 
ATOM      8  N   UNL     1       2.924   4.362  20.205  0.00  0.00    +0.000 N 
ATOM      9  C   UNL     1       3.188   5.325  19.267  0.00  0.00    +0.000 A 
ATOM     10  N   UNL     1       4.055   5.271  18.244  0.00  0.00    +0.000 NA
ATOM     11  H   UNL     1       1.079   8.519  19.923  0.00  0.00    +0.000 HD
ENDROOT
BRANCH   1  13
ATOM     12  N   UNL     1       5.688   6.565  15.523  0.00  0.00    +0.000 NA
ATOM     13  C   UNL     1       4.953   6.502  16.424  0.00  0.00    +0.000 C 
ENDBRANCH   1  13
BRANCH   4  14
ATOM     14  C   UNL     1       1.183   9.527  18.077  0.00  0.00    +0.000 C 
BRANCH  14  15
ATOM     15  C   UNL     1      -0.064  10.306  18.460  0.00  0.00    +0.000 A 
ATOM     16  C   UNL     1      -1.250  10.274  17.711  0.00  0.00    +0.000 A 
ATOM     17  C   UNL     1      -2.392  10.958  18.142  0.00  0.00    +0.000 A 
ATOM     18  C   UNL     1      -2.376  11.675  19.340  0.00  0.00    +0.000 A 
ATOM     19 CL   UNL     1      -3.823  12.493  19.810  0.00  0.00    +0.000 Cl
ATOM     20  C   UNL     1      -1.212  11.701  20.112  0.00  0.00    +0.000 A 
ATOM     21 CL   UNL     1      -1.119  12.544  21.618  0.00  0.00    +0.000 Cl
ATOM     22  C   UNL     1      -0.069  11.018  19.675  0.00  0.00    +0.000 A 
ENDBRANCH  14  15
ENDBRANCH   4  14
BRANCH   8  23
ATOM     23  C   UNL     1       3.484   3.027  20.270  0.00  0.00    +0.000 C 
BRANCH  23  24
ATOM     24  C   UNL     1       2.631   1.963  19.586  0.00  0.00    +0.000 C 
BRANCH  24  25
ATOM     25  C   UNL     1       2.977   1.899  18.122  0.00  0.00    +0.000 C 
ATOM     26  O   UNL     1       2.278   2.339  17.223  0.00  0.00    +0.000 OA
BRANCH  25  27
ATOM     27  O   UNL     1       4.153   1.278  17.885  0.00  0.00    +0.000 OA
ATOM     28  H   UNL     1       4.175   0.332  18.124  0.00  0.00    +0.000 HD
ENDBRANCH  25  27
ENDBRANCH  24  25
ENDBRANCH  23  24
ENDBRANCH   8  23
TORSDOF 7
ENDMDL
MODEL 8
REMARK VINA RESULT:      -7.4      2.075      2.385
REMARK  Name = 
REMARK  7 active torsions:
REMARK  status: ('A' for Active; 'I' for Inactive)
REMARK    1  A    between atoms: C_2  and  C_3
REMARK    2  A    between atoms: N_6  and  C_7
REMARK    3  A    between atoms: C_7  and  C_8
REMARK    4  A    between atoms: N_19  and  C_20
REMARK    5  A    between atoms: C_20  and  C_21
REMARK    6  A    between atoms: C_21  and  C_22
REMARK    7  A    between atoms: C_22  and  O_24
REMARK                            x       y       z     vdW  Elec       q    Type
REMARK                         _______ _______ _______ _____ _____    ______ ____
ROOT
ATOM      1  C   UNL     1       2.111   4.083  18.419  0.00  0.00    +0.000 A 
ATOM      2  N   UNL     1       1.795   5.223  19.084  0.00  0.00    +0.000 NA
ATOM      3  C   UNL     1       2.563   6.325  18.892  0.00  0.00    +0.000 A 
ATOM      4  N   UNL     1       2.235   7.544  19.469  0.00  0.00    +0.000 N 
ATOM      5  C   UNL     1       3.670   6.208  18.025  0.00  0.00    +0.000 A 
ATOM      6  N   UNL     1       4.633   7.118  17.645  0.00  0.00    +0.000 NA
ATOM      7  C   UNL     1       5.427   6.449  16.835  0.00  0.00    +0.000 A 
ATOM      8  N   UNL     1       5.001   5.158  16.650  0.00  0.00    +0.000 N 
ATOM      9  C   UNL     1       3.882   4.980  17.420  0.00  0.00    +0.000 A 
ATOM     10  N   UNL     1       3.139   3.870  17.559  0.00  0.00    +0.000 NA
ATOM     11  H   UNL     1       2.930   8.257  19.271  0.00  0.00    +0.000 HD
ENDROOT
BRANCH   1  13
ATOM     12  N   UNL     1       0.483   2.081  18.786  0.00  0.00    +0.000 NA
ATOM     13  C   UNL     1       1.212   2.972  18.614  0.00  0.00    +0.000 C 
ENDBRANCH   1  13
BRANCH   4  14
ATOM     14  C   UNL     1       1.649   7.570  20.795  0.00  0.00    +0.000 C 
BRANCH  14  15
ATOM     15  C   UNL     1       0.775   8.784  21.061  0.00  0.00    +0.000 A 
ATOM     16  C   UNL     1       0.328   9.142  22.342  0.00  0.00    +0.000 A 
ATOM     17  C   UNL     1      -0.422  10.307  22.543  0.00  0.00    +0.000 A 
ATOM     18  C   UNL     1      -0.728  11.144  21.468  0.00  0.00    +0.000 A 
ATOM     19 CL   UNL     1      -1.656  12.566  21.792  0.00  0.00    +0.000 Cl
ATOM     20  C   UNL     1      -0.274  10.817  20.189  0.00  0.00    +0.000 A 
ATOM     21 CL   UNL     1      -0.588  11.813  18.812  0.00  0.00    +0.000 Cl
ATOM     22  C   UNL     1       0.474   9.649  19.991  0.00  0.00    +0.000 A 
ENDBRANCH  14  15
ENDBRANCH   4  14
BRANCH   8  23
ATOM     23  C   UNL     1       5.679   4.161  15.847  0.00  0.00    +0.000 C 
BRANCH  23  24
ATOM     24  C   UNL     1       5.447   4.311  14.346  0.00  0.00    +0.000 C 
BRANCH  24  25
ATOM     25  C   UNL     1       6.761   4.553  13.651  0.00  0.00    +0.000 C 
ATOM     26  O   UNL     1       7.049   4.128  12.544  0.00  0.00    +0.000 OA
BRANCH  25  27
ATOM     27  O   UNL     1       7.621   5.287  14.389  0.00  0.00    +0.000 OA
ATOM     28  H   UNL     1       8.073   4.798  15.104  0.00  0.00    +0.000 HD
ENDBRANCH  25  27
ENDBRANCH  24  25
ENDBRANCH  23  24
ENDBRANCH   8  23
TORSDOF 7
ENDMDL
MODEL 9
REMARK VINA RESULT:      -7.4      1.006      1.632
REMARK  Name = 
REMARK  7 active torsions:
REMARK  status: ('A' for Active; 'I' for Inactive)
REMARK    1  A    between atoms: C_2  and  C_3
REMARK    2  A    between atoms: N_6  and  C_7
REMARK    3  A    between atoms: C_7  and  C_8
REMARK    4  A    between atoms: N_19  and  C_20
REMARK    5  A    between atoms: C_20  and  C_21
REMARK    6  A    between atoms: C_21  and  C_22
REMARK    7  A    between atoms: C_22  and  O_24
REMARK                            x       y       z     vdW  Elec       q    Type
REMARK                         _______ _______ _______ _____ _____    ______ ____
ROOT
ATOM      1  C   UNL     1       2.719   4.744  20.460  0.00  0.00    +0.000 A 
ATOM      2  N   UNL     1       2.006   5.895  20.555  0.00  0.00    +0.000 NA
ATOM      3  C   UNL     1       2.288   6.910  19.700  0.00  0.00    +0.000 A 
ATOM      4  N   UNL     1       1.532   8.074  19.686  0.00  0.00    +0.000 N 
ATOM      5  C   UNL     1       3.334   6.714  18.775  0.00  0.00    +0.000 A 
ATOM      6  N   UNL     1       3.866   7.540  17.809  0.00  0.00    +0.000 NA
ATOM      7  C   UNL     1       4.836   6.837  17.261  0.00  0.00    +0.000 A 
ATOM      8  N   UNL     1       4.933   5.584  17.809  0.00  0.00    +0.000 N 
ATOM      9  C   UNL     1       3.986   5.491  18.795  0.00  0.00    +0.000 A 
ATOM     10  N   UNL     1       3.729   4.450  19.602  0.00  0.00    +0.000 NA
ATOM     11  H   UNL     1       1.896   8.755  19.027  0.00  0.00    +0.000 HD
ENDROOT
BRANCH   1  13
ATOM     12  N   UNL     1       1.982   2.832  22.072  0.00  0.00    +0.000 NA
ATOM     13  C   UNL     1       2.319   3.681  21.350  0.00  0.00    +0.000 C 
ENDBRANCH   1  13
BRANCH   4  14
ATOM     14  C   UNL     1       1.013   8.602  20.933  0.00  0.00    +0.000 C 
BRANCH  14  15
ATOM     15  C   UNL     1       0.166   9.853  20.769  0.00  0.00    +0.000 A 
ATOM     16  C   UNL     1      -0.107  10.437  19.522  0.00  0.00    +0.000 A 
ATOM     17  C   UNL     1      -0.946  11.552  19.419  0.00  0.00    +0.000 A 
ATOM     18  C   UNL     1      -1.542  12.096  20.559  0.00  0.00    +0.000 A 
ATOM     19 CL   UNL     1      -2.569  13.471  20.354  0.00  0.00    +0.000 Cl
ATOM     20  C   UNL     1      -1.301  11.516  21.805  0.00  0.00    +0.000 A 
ATOM     21 CL   UNL     1      -2.020  12.113  23.259  0.00  0.00    +0.000 Cl
ATOM     22  C   UNL     1      -0.457  10.402  21.906  0.00  0.00    +0.000 A 
ENDBRANCH  14  15
ENDBRANCH   4  14
BRANCH   8  23
ATOM     23  C   UNL     1       5.922   4.588  17.449  0.00  0.00    +0.000 C 
BRANCH  23  24
ATOM     24  C   UNL     1       7.362   5.085  17.537  0.00  0.00    +0.000 C 
BRANCH  24  25
ATOM     25  C   UNL     1       7.612   5.678  18.899  0.00  0.00    +0.000 C 
ATOM     26  O   UNL     1       7.275   5.162  19.953  0.00  0.00    +0.000 OA
BRANCH  25  27
ATOM     27  O   UNL     1       8.241   6.871  18.848  0.00  0.00    +0.000 OA
ATOM     28  H   UNL     1       8.743   7.038  18.027  0.00  0.00    +0.000 HD
ENDBRANCH  25  27
ENDBRANCH  24  25
ENDBRANCH  23  24
ENDBRANCH   8  23
TORSDOF 7
ENDMDL
