MODEL 1
REMARK VINA RESULT:      -7.0      0.000      0.000
REMARK  Name = 
REMARK  5 active torsions:
REMARK  status: ('A' for Active; 'I' for Inactive)
REMARK    1  A    between atoms: C_1  and  C_2
REMARK    2  A    between atoms: C_2  and  C_3
REMARK    3  A    between atoms: C_2  and  C_4
REMARK    4  A    between atoms: C_2  and  C_5
REMARK    5  A    between atoms: C_10  and  C_11
REMARK                            x       y       z     vdW  Elec       q    Type
REMARK                         _______ _______ _______ _____ _____    ______ ____
ROOT
ATOM      1  C   UNL     1       3.126   3.831  20.136  0.00  0.00    +0.000 C 
ATOM      2  C   UNL     1       4.172   3.182  19.219  0.00  0.00    +0.000 C 
ATOM      3  S   UNL     1       4.279   3.693  17.516  0.00  0.00    +0.000 S 
ATOM      4  O   UNL     1       3.109   3.205  16.818  0.00  0.00    +0.000 OA
ATOM      5  O   UNL     1       5.582   3.249  17.048  0.00  0.00    +0.000 OA
ATOM      6  C   UNL     1       4.226   5.458  17.481  0.00  0.00    +0.000 C 
ATOM      7  S   UNL     1       2.991   6.169  18.520  0.00  0.00    +0.000 S 
ATOM      8  O   UNL     1       1.684   5.862  17.981  0.00  0.00    +0.000 OA
ATOM      9  O   UNL     1       3.320   7.567  18.751  0.00  0.00    +0.000 OA
ATOM     10  C   UNL     1       3.141   5.366  20.090  0.00  0.00    +0.000 C 
ENDROOT
BRANCH   6  11
ATOM     11  C   UNL     1       5.591   6.075  17.709  0.00  0.00    +0.000 A 
ATOM     12  C   UNL     1       6.396   5.544  18.739  0.00  0.00    +0.000 A 
ATOM     13  C   UNL     1       7.645   6.091  19.032  0.00  0.00    +0.000 A 
ATOM     14  C   UNL     1       8.120   7.178  18.304  0.00  0.00    +0.000 A 
ATOM     15  C   UNL     1       7.355   7.703  17.271  0.00  0.00    +0.000 A 
ATOM     16  C   UNL     1       6.108   7.154  16.974  0.00  0.00    +0.000 A 
ENDBRANCH   6  11
BRANCH   1  18
ATOM     17  C   UNL     1       1.629   2.367  21.606  0.00  0.00    +0.000 C 
ATOM     18  C   UNL     1       1.732   3.088  20.234  0.00  0.00    +0.000 C 
ATOM     19  C   UNL     1       1.501   2.008  19.173  0.00  0.00    +0.000 C 
ATOM     20  C   UNL     1       0.555   4.085  20.175  0.00  0.00    +0.000 C 
ENDBRANCH   1  18
TORSDOF 2
ENDMDL
MODEL 2
REMARK VINA RESULT:      -6.9      0.135      1.082
REMARK  Name = 
REMARK  5 active torsions:
REMARK  status: ('A' for Active; 'I' for Inactive)
REMARK    1  A    between atoms: C_1  and  C_2
REMARK    2  A    between atoms: C_2  and  C_3
REMARK    3  A    between atoms: C_2  and  C_4
REMARK    4  A    between atoms: C_2  and  C_5
REMARK    5  A    between atoms: C_10  and  C_11
REMARK                            x       y       z     vdW  Elec       q    Type
REMARK                         _______ _______ _______ _____ _____    ______ ____
ROOT
ATOM      1  C   UNL     1       3.115   3.720  20.157  0.00  0.00    +0.000 C 
ATOM      2  C   UNL     1       4.176   3.109  19.230  0.00  0.00    +0.000 C 
ATOM      3  S   UNL     1       4.298   3.679  17.547  0.00  0.00    +0.000 S 
ATOM      4  O   UNL     1       3.139   3.206  16.820  0.00  0.00    +0.000 OA
ATOM      5  O   UNL     1       5.609   3.261  17.079  0.00  0.00    +0.000 OA
ATOM      6  C   UNL     1       4.231   5.444  17.571  0.00  0.00    +0.000 C 
ATOM      7  S   UNL     1       2.980   6.110  18.620  0.00  0.00    +0.000 S 
ATOM      8  O   UNL     1       1.681   5.812  18.056  0.00  0.00    +0.000 OA
ATOM      9  O   UNL     1       3.295   7.502  18.902  0.00  0.00    +0.000 OA
ATOM     10  C   UNL     1       3.118   5.255  20.163  0.00  0.00    +0.000 C 
ENDROOT
BRANCH   6  11
ATOM     11  C   UNL     1       5.589   6.062  17.835  0.00  0.00    +0.000 A 
ATOM     12  C   UNL     1       5.993   7.146  17.028  0.00  0.00    +0.000 A 
ATOM     13  C   UNL     1       7.247   7.735  17.187  0.00  0.00    +0.000 A 
ATOM     14  C   UNL     1       8.125   7.258  18.157  0.00  0.00    +0.000 A 
ATOM     15  C   UNL     1       7.740   6.207  18.978  0.00  0.00    +0.000 A 
ATOM     16  C   UNL     1       6.485   5.620  18.822  0.00  0.00    +0.000 A 
ENDBRANCH   6  11
BRANCH   1  18
ATOM     17  C   UNL     1       1.530   2.352  21.630  0.00  0.00    +0.000 C 
ATOM     18  C   UNL     1       1.725   2.963  20.215  0.00  0.00    +0.000 C 
ATOM     19  C   UNL     1       1.585   1.798  19.231  0.00  0.00    +0.000 C 
ATOM     20  C   UNL     1       0.546   3.932  19.991  0.00  0.00    +0.000 C 
ENDBRANCH   1  18
TORSDOF 2
ENDMDL
MODEL 3
REMARK VINA RESULT:      -6.6      2.533      3.359
REMARK  Name = 
REMARK  5 active torsions:
REMARK  status: ('A' for Active; 'I' for Inactive)
REMARK    1  A    between atoms: C_1  and  C_2
REMARK    2  A    between atoms: C_2  and  C_3
REMARK    3  A    between atoms: C_2  and  C_4
REMARK    4  A    between atoms: C_2  and  C_5
REMARK    5  A    between atoms: C_10  and  C_11
REMARK                            x       y       z     vdW  Elec       q    Type
REMARK                         _______ _______ _______ _____ _____    ______ ____
ROOT
ATOM      1  C   UNL     1       2.601   5.381  19.258  0.00  0.00    +0.000 C 
ATOM      2  C   UNL     1       4.126   5.403  19.432  0.00  0.00    +0.000 C 
ATOM      3  S   UNL     1       5.068   3.935  19.070  0.00  0.00    +0.000 S 
ATOM      4  O   UNL     1       4.791   2.950  20.094  0.00  0.00    +0.000 OA
ATOM      5  O   UNL     1       6.444   4.375  18.907  0.00  0.00    +0.000 OA
ATOM      6  C   UNL     1       4.485   3.288  17.533  0.00  0.00    +0.000 C 
ATOM      7  S   UNL     1       2.728   3.246  17.382  0.00  0.00    +0.000 S 
ATOM      8  O   UNL     1       2.197   2.257  18.294  0.00  0.00    +0.000 OA
ATOM      9  O   UNL     1       2.381   3.128  15.974  0.00  0.00    +0.000 OA
ATOM     10  C   UNL     1       2.148   4.837  17.896  0.00  0.00    +0.000 C 
ENDROOT
BRANCH   6  11
ATOM     11  C   UNL     1       5.147   3.955  16.345  0.00  0.00    +0.000 A 
ATOM     12  C   UNL     1       5.007   5.352  16.205  0.00  0.00    +0.000 A 
ATOM     13  C   UNL     1       5.554   6.025  15.113  0.00  0.00    +0.000 A 
ATOM     14  C   UNL     1       6.253   5.321  14.137  0.00  0.00    +0.000 A 
ATOM     15  C   UNL     1       6.422   3.950  14.265  0.00  0.00    +0.000 A 
ATOM     16  C   UNL     1       5.881   3.276  15.359  0.00  0.00    +0.000 A 
ENDBRANCH   6  11
BRANCH   1  18
ATOM     17  C   UNL     1       1.198   6.294  21.194  0.00  0.00    +0.000 C 
ATOM     18  C   UNL     1       1.761   5.000  20.545  0.00  0.00    +0.000 C 
ATOM     19  C   UNL     1       2.555   4.290  21.646  0.00  0.00    +0.000 C 
ATOM     20  C   UNL     1       0.542   4.125  20.185  0.00  0.00    +0.000 C 
ENDBRANCH   1  18
TORSDOF 2
ENDMDL
MODEL 4
REMARK VINA RESULT:      -6.5      2.514      3.281
REMARK  Name = 
REMARK  5 active torsions:
REMARK  status: ('A' for Active; 'I' for Inactive)
REMARK    1  A    between atoms: C_1  and  C_2
REMARK    2  A    between atoms: C_2  and  C_3
REMARK    3  A    between atoms: C_2  and  C_4
REMARK    4  A    between atoms: C_2  and  C_5
REMARK    5  A    between atoms: C_10  and  C_11
REMARK                            x       y       z     vdW  Elec       q    Type
REMARK                         _______ _______ _______ _____ _____    ______ ____
ROOT
ATOM      1  C   UNL     1       2.588   5.391  19.267  0.00  0.00    +0.000 C 
ATOM      2  C   UNL     1       4.114   5.428  19.428  0.00  0.00    +0.000 C 
ATOM      3  S   UNL     1       5.069   3.977  19.032  0.00  0.00    +0.000 S 
ATOM      4  O   UNL     1       4.812   2.970  20.040  0.00  0.00    +0.000 OA
ATOM      5  O   UNL     1       6.439   4.435  18.866  0.00  0.00    +0.000 OA
ATOM      6  C   UNL     1       4.481   3.351  17.489  0.00  0.00    +0.000 C 
ATOM      7  S   UNL     1       2.723   3.293  17.351  0.00  0.00    +0.000 S 
ATOM      8  O   UNL     1       2.211   2.281  18.250  0.00  0.00    +0.000 OA
ATOM      9  O   UNL     1       2.366   3.196  15.944  0.00  0.00    +0.000 OA
ATOM     10  C   UNL     1       2.130   4.867  17.899  0.00  0.00    +0.000 C 
ENDROOT
BRANCH   6  11
ATOM     11  C   UNL     1       5.125   4.048  16.308  0.00  0.00    +0.000 A 
ATOM     12  C   UNL     1       5.777   3.252  15.342  0.00  0.00    +0.000 A 
ATOM     13  C   UNL     1       6.428   3.830  14.252  0.00  0.00    +0.000 A 
ATOM     14  C   UNL     1       6.442   5.213  14.101  0.00  0.00    +0.000 A 
ATOM     15  C   UNL     1       5.789   6.015  15.026  0.00  0.00    +0.000 A 
ATOM     16  C   UNL     1       5.133   5.439  16.113  0.00  0.00    +0.000 A 
ENDBRANCH   6  11
BRANCH   1  18
ATOM     17  C   UNL     1       1.193   6.253  21.232  0.00  0.00    +0.000 C 
ATOM     18  C   UNL     1       1.763   4.977  20.553  0.00  0.00    +0.000 C 
ATOM     19  C   UNL     1       2.574   4.253  21.633  0.00  0.00    +0.000 C 
ATOM     20  C   UNL     1       0.549   4.098  20.187  0.00  0.00    +0.000 C 
ENDBRANCH   1  18
TORSDOF 2
ENDMDL
MODEL 5
REMARK VINA RESULT:      -6.4      1.301      5.768
REMARK  Name = 
REMARK  5 active torsions:
REMARK  status: ('A' for Active; 'I' for Inactive)
REMARK    1  A    between atoms: C_1  and  C_2
REMARK    2  A    between atoms: C_2  and  C_3
REMARK    3  A    between atoms: C_2  and  C_4
REMARK    4  A    between atoms: C_2  and  C_5
REMARK    5  A    between atoms: C_10  and  C_11
REMARK                            x       y       z     vdW  Elec       q    Type
REMARK                         _______ _______ _______ _____ _____    ______ ____
ROOT
ATOM      1  C   UNL     1       6.000   5.372  18.754  0.00  0.00    +0.000 C 
ATOM      2  C   UNL     1       4.875   6.254  19.312  0.00  0.00    +0.000 C 
ATOM      3  S   UNL     1       3.302   6.297  18.477  0.00  0.00    +0.000 S 
ATOM      4  O   UNL     1       3.469   7.001  17.223  0.00  0.00    +0.000 OA
ATOM      5  O   UNL     1       2.356   6.839  19.439  0.00  0.00    +0.000 OA
ATOM      6  C   UNL     1       2.849   4.632  18.100  0.00  0.00    +0.000 C 
ATOM      7  S   UNL     1       4.156   3.656  17.430  0.00  0.00    +0.000 S 
ATOM      8  O   UNL     1       4.478   4.141  16.105  0.00  0.00    +0.000 OA
ATOM      9  O   UNL     1       3.815   2.250  17.575  0.00  0.00    +0.000 OA
ATOM     10  C   UNL     1       5.561   3.928  18.470  0.00  0.00    +0.000 C 
ENDROOT
BRANCH   6  11
ATOM     11  C   UNL     1       2.165   3.949  19.267  0.00  0.00    +0.000 A 
ATOM     12  C   UNL     1       2.829   3.935  20.511  0.00  0.00    +0.000 A 
ATOM     13  C   UNL     1       2.277   3.288  21.616  0.00  0.00    +0.000 A 
ATOM     14  C   UNL     1       1.050   2.640  21.505  0.00  0.00    +0.000 A 
ATOM     15  C   UNL     1       0.367   2.658  20.297  0.00  0.00    +0.000 A 
ATOM     16  C   UNL     1       0.916   3.310  19.192  0.00  0.00    +0.000 A 
ENDBRANCH   6  11
BRANCH   1  18
ATOM     17  C   UNL     1       8.129   6.776  18.545  0.00  0.00    +0.000 C 
ATOM     18  C   UNL     1       6.998   6.074  17.745  0.00  0.00    +0.000 C 
ATOM     19  C   UNL     1       6.368   7.160  16.867  0.00  0.00    +0.000 C 
ATOM     20  C   UNL     1       7.687   5.045  16.824  0.00  0.00    +0.000 C 
ENDBRANCH   1  18
TORSDOF 2
ENDMDL
MODEL 6
REMARK VINA RESULT:      -6.3      1.285      5.832
REMARK  Name = 
REMARK  5 active torsions:
REMARK  status: ('A' for Active; 'I' for Inactive)
REMARK    1  A    between atoms: C_1  and  C_2
REMARK    2  A    between atoms: C_2  and  C_3
REMARK    3  A    between atoms: C_2  and  C_4
REMARK    4  A    between atoms: C_2  and  C_5
REMARK    5  A    between atoms: C_10  and  C_11
REMARK                            x       y       z     vdW  Elec       q    Type
REMARK                         _______ _______ _______ _____ _____    ______ ____
ROOT
ATOM      1  C   UNL     1       6.004   5.404  18.609  0.00  0.00    +0.000 C 
ATOM      2  C   UNL     1       4.911   6.210  19.326  0.00  0.00    +0.000 C 
ATOM      3  S   UNL     1       3.254   6.210  18.674  0.00  0.00    +0.000 S 
ATOM      4  O   UNL     1       3.248   6.969  17.440  0.00  0.00    +0.000 OA
ATOM      5  O   UNL     1       2.400   6.670  19.756  0.00  0.00    +0.000 OA
ATOM      6  C   UNL     1       2.833   4.541  18.277  0.00  0.00    +0.000 C 
ATOM      7  S   UNL     1       4.097   3.655  17.424  0.00  0.00    +0.000 S 
ATOM      8  O   UNL     1       4.246   4.205  16.094  0.00  0.00    +0.000 OA
ATOM      9  O   UNL     1       3.835   2.230  17.544  0.00  0.00    +0.000 OA
ATOM     10  C   UNL     1       5.598   3.953  18.313  0.00  0.00    +0.000 C 
ENDROOT
BRANCH   6  11
ATOM     11  C   UNL     1       2.314   3.782  19.481  0.00  0.00    +0.000 A 
ATOM     12  C   UNL     1       0.952   3.419  19.501  0.00  0.00    +0.000 A 
ATOM     13  C   UNL     1       0.398   2.757  20.596  0.00  0.00    +0.000 A 
ATOM     14  C   UNL     1       1.191   2.441  21.696  0.00  0.00    +0.000 A 
ATOM     15  C   UNL     1       2.539   2.769  21.690  0.00  0.00    +0.000 A 
ATOM     16  C   UNL     1       3.096   3.426  20.592  0.00  0.00    +0.000 A 
ENDBRANCH   6  11
BRANCH   1  18
ATOM     17  C   UNL     1       7.977   6.990  18.237  0.00  0.00    +0.000 C 
ATOM     18  C   UNL     1       6.850   6.191  17.527  0.00  0.00    +0.000 C 
ATOM     19  C   UNL     1       6.058   7.217  16.710  0.00  0.00    +0.000 C 
ATOM     20  C   UNL     1       7.549   5.227  16.547  0.00  0.00    +0.000 C 
ENDBRANCH   1  18
TORSDOF 2
ENDMDL
MODEL 7
REMARK VINA RESULT:      -6.1      1.679      2.250
REMARK  Name = 
REMARK  5 active torsions:
REMARK  status: ('A' for Active; 'I' for Inactive)
REMARK    1  A    between atoms: C_1  and  C_2
REMARK    2  A    between atoms: C_2  and  C_3
REMARK    3  A    between atoms: C_2  and  C_4
REMARK    4  A    between atoms: C_2  and  C_5
REMARK    5  A    between atoms: C_10  and  C_11
REMARK                            x       y       z     vdW  Elec       q    Type
REMARK                         _______ _______ _______ _____ _____    ______ ____
ROOT
ATOM      1  C   UNL     1       3.160   3.777  20.121  0.00  0.00    +0.000 C 
ATOM      2  C   UNL     1       3.739   2.626  19.287  0.00  0.00    +0.000 C 
ATOM      3  S   UNL     1       3.409   2.563  17.537  0.00  0.00    +0.000 S 
ATOM      4  O   UNL     1       2.013   2.230  17.347  0.00  0.00    +0.000 OA
ATOM      5  O   UNL     1       4.403   1.662  16.977  0.00  0.00    +0.000 OA
ATOM      6  C   UNL     1       3.667   4.183  16.883  0.00  0.00    +0.000 C 
ATOM      7  S   UNL     1       2.960   5.478  17.849  0.00  0.00    +0.000 S 
ATOM      8  O   UNL     1       1.517   5.396  17.769  0.00  0.00    +0.000 OA
ATOM      9  O   UNL     1       3.590   6.736  17.481  0.00  0.00    +0.000 OA
ATOM     10  C   UNL     1       3.436   5.164  19.524  0.00  0.00    +0.000 C 
ENDROOT
BRANCH   6  11
ATOM     11  C   UNL     1       5.123   4.441  16.557  0.00  0.00    +0.000 A 
ATOM     12  C   UNL     1       5.482   4.606  15.203  0.00  0.00    +0.000 A 
ATOM     13  C   UNL     1       6.811   4.804  14.828  0.00  0.00    +0.000 A 
ATOM     14  C   UNL     1       7.811   4.844  15.795  0.00  0.00    +0.000 A 
ATOM     15  C   UNL     1       7.479   4.707  17.135  0.00  0.00    +0.000 A 
ATOM     16  C   UNL     1       6.150   4.514  17.512  0.00  0.00    +0.000 A 
ENDBRANCH   6  11
BRANCH   1  18
ATOM     17  C   UNL     1       1.015   4.858  21.006  0.00  0.00    +0.000 C 
ATOM     18  C   UNL     1       1.753   3.507  20.795  0.00  0.00    +0.000 C 
ATOM     19  C   UNL     1       1.815   2.843  22.174  0.00  0.00    +0.000 C 
ATOM     20  C   UNL     1       0.846   2.652  19.885  0.00  0.00    +0.000 C 
ENDBRANCH   1  18
TORSDOF 2
ENDMDL
MODEL 8
REMARK VINA RESULT:      -6.0      1.715      2.072
REMARK  Name = 
REMARK  5 active torsions:
REMARK  status: ('A' for Active; 'I' for Inactive)
REMARK    1  A    between atoms: C_1  and  C_2
REMARK    2  A    between atoms: C_2  and  C_3
REMARK    3  A    between atoms: C_2  and  C_4
REMARK    4  A    between atoms: C_2  and  C_5
REMARK    5  A    between atoms: C_10  and  C_11
REMARK                            x       y       z     vdW  Elec       q    Type
REMARK                         _______ _______ _______ _____ _____    ______ ____
ROOT
ATOM      1  C   UNL     1       3.185   3.844  20.103  0.00  0.00    +0.000 C 
ATOM      2  C   UNL     1       3.716   2.653  19.291  0.00  0.00    +0.000 C 
ATOM      3  S   UNL     1       3.345   2.547  17.552  0.00  0.00    +0.000 S 
ATOM      4  O   UNL     1       1.937   2.245  17.403  0.00  0.00    +0.000 OA
ATOM      5  O   UNL     1       4.303   1.604  16.998  0.00  0.00    +0.000 OA
ATOM      6  C   UNL     1       3.630   4.140  16.844  0.00  0.00    +0.000 C 
ATOM      7  S   UNL     1       2.978   5.481  17.786  0.00  0.00    +0.000 S 
ATOM      8  O   UNL     1       1.532   5.434  17.739  0.00  0.00    +0.000 OA
ATOM      9  O   UNL     1       3.631   6.711  17.366  0.00  0.00    +0.000 OA
ATOM     10  C   UNL     1       3.483   5.205  19.459  0.00  0.00    +0.000 C 
ENDROOT
BRANCH   6  11
ATOM     11  C   UNL     1       5.085   4.351  16.479  0.00  0.00    +0.000 A 
ATOM     12  C   UNL     1       6.024   4.455  17.526  0.00  0.00    +0.000 A 
ATOM     13  C   UNL     1       7.373   4.692  17.264  0.00  0.00    +0.000 A 
ATOM     14  C   UNL     1       7.815   4.829  15.951  0.00  0.00    +0.000 A 
ATOM     15  C   UNL     1       6.914   4.708  14.903  0.00  0.00    +0.000 A 
ATOM     16  C   UNL     1       5.565   4.466  15.164  0.00  0.00    +0.000 A 
ENDBRANCH   6  11
BRANCH   1  18
ATOM     17  C   UNL     1       1.135   5.013  21.091  0.00  0.00    +0.000 C 
ATOM     18  C   UNL     1       1.787   3.630  20.815  0.00  0.00    +0.000 C 
ATOM     19  C   UNL     1       1.856   2.920  22.170  0.00  0.00    +0.000 C 
ATOM     20  C   UNL     1       0.806   2.857  19.911  0.00  0.00    +0.000 C 
ENDBRANCH   1  18
TORSDOF 2
ENDMDL
MODEL 9
REMARK VINA RESULT:      -6.0      2.095      5.480
REMARK  Name = 
REMARK  5 active torsions:
REMARK  status: ('A' for Active; 'I' for Inactive)
REMARK    1  A    between atoms: C_1  and  C_2
REMARK    2  A    between atoms: C_2  and  C_3
REMARK    3  A    between atoms: C_2  and  C_4
REMARK    4  A    between atoms: C_2  and  C_5
REMARK    5  A    between atoms: C_10  and  C_11
REMARK                            x       y       z     vdW  Elec       q    Type
REMARK                         _______ _______ _______ _____ _____    ______ ____
ROOT
ATOM      1  C   UNL     1       4.779   4.213  16.229  0.00  0.00    +0.000 C 
ATOM      2  C   UNL     1       5.144   3.233  17.353  0.00  0.00    +0.000 C 
ATOM      3  S   UNL     1       5.336   3.842  19.016  0.00  0.00    +0.000 S 
ATOM      4  O   UNL     1       6.547   4.634  19.076  0.00  0.00    +0.000 OA
ATOM      5  O   UNL     1       5.245   2.676  19.880  0.00  0.00    +0.000 OA
ATOM      6  C   UNL     1       3.976   4.917  19.354  0.00  0.00    +0.000 C 
ATOM      7  S   UNL     1       3.606   6.052  18.056  0.00  0.00    +0.000 S 
ATOM      8  O   UNL     1       4.677   7.019  17.952  0.00  0.00    +0.000 OA
ATOM      9  O   UNL     1       2.254   6.554  18.243  0.00  0.00    +0.000 OA
ATOM     10  C   UNL     1       3.574   5.104  16.562  0.00  0.00    +0.000 C 
ENDROOT
BRANCH   6  11
ATOM     11  C   UNL     1       2.750   4.157  19.818  0.00  0.00    +0.000 A 
ATOM     12  C   UNL     1       2.523   4.046  21.206  0.00  0.00    +0.000 A 
ATOM     13  C   UNL     1       1.439   3.324  21.703  0.00  0.00    +0.000 A 
ATOM     14  C   UNL     1       0.555   2.700  20.828  0.00  0.00    +0.000 A 
ATOM     15  C   UNL     1       0.745   2.814  19.458  0.00  0.00    +0.000 A 
ATOM     16  C   UNL     1       1.827   3.540  18.959  0.00  0.00    +0.000 A 
ENDBRANCH   6  11
BRANCH   1  18
ATOM     17  C   UNL     1       6.250   4.026  14.143  0.00  0.00    +0.000 C 
ATOM     18  C   UNL     1       5.995   4.847  15.438  0.00  0.00    +0.000 C 
ATOM     19  C   UNL     1       7.325   4.855  16.198  0.00  0.00    +0.000 C 
ATOM     20  C   UNL     1       5.685   6.289  14.987  0.00  0.00    +0.000 C 
ENDBRANCH   1  18
TORSDOF 2
ENDMDL
