MODEL 1
REMARK VINA RESULT:      -6.4      0.000      0.000
REMARK  Name = 
REMARK  20 active torsions:
REMARK  status: ('A' for Active; 'I' for Inactive)
REMARK    1  A    between atoms: C_1  and  C_2
REMARK    2  A    between atoms: C_2  and  C_3
REMARK    3  A    between atoms: C_3  and  C_4
REMARK    4  A    between atoms: C_4  and  C_5
REMARK    5  A    between atoms: C_5  and  C_6
REMARK    6  A    between atoms: C_6  and  C_7
REMARK    7  A    between atoms: C_7  and  C_8
REMARK    8  A    between atoms: C_8  and  C_9
REMARK    9  A    between atoms: C_9  and  C_10
REMARK   10  A    between atoms: C_10  and  C_11
REMARK   11  A    between atoms: C_11  and  C_12
REMARK   12  A    between atoms: C_12  and  N_13
REMARK   13  A    between atoms: N_13  and  C_14
REMARK   14  A    between atoms: C_14  and  N_16
REMARK   15  A    between atoms: C_17  and  C_18
REMARK   16  A    between atoms: C_18  and  O_19
REMARK   17  A    between atoms: C_20  and  O_21
REMARK   18  A    between atoms: C_22  and  O_23
REMARK   19  A    between atoms: C_24  and  C_25
REMARK   20  A    between atoms: C_25  and  O_26
REMARK                            x       y       z     vdW  Elec       q    Type
REMARK                         _______ _______ _______ _____ _____    ______ ____
ROOT
ATOM      1  C   UNL     1       3.884   5.490  18.987  0.00  0.00    +0.000 C 
ATOM      2  S   UNL     1       3.784   6.663  17.775  0.00  0.00    +0.000 S 
ENDROOT
BRANCH   1   3
ATOM      3  N   UNL     1       2.760   4.834  19.480  0.00  0.00    +0.000 N 
ATOM      4  C   UNL     1       1.844   3.917  18.763  0.00  0.00    +0.000 C 
ATOM      5  C   UNL     1       1.358   2.934  19.870  0.00  0.00    +0.000 C 
ATOM      6  C   UNL     1       1.699   3.601  21.216  0.00  0.00    +0.000 C 
ATOM      7  C   UNL     1       2.268   4.983  20.872  0.00  0.00    +0.000 C 
BRANCH   6   8
ATOM      8  O   UNL     1       2.703   2.841  21.903  0.00  0.00    +0.000 OA
ATOM      9  H   UNL     1       2.276   2.065  22.312  0.00  0.00    +0.000 HD
ENDBRANCH   6   8
BRANCH   5  10
ATOM     10  O   UNL     1      -0.038   2.658  19.730  0.00  0.00    +0.000 OA
ATOM     11  H   UNL     1      -0.320   2.875  18.829  0.00  0.00    +0.000 HD
ENDBRANCH   5  10
BRANCH   7  12
ATOM     12  C   UNL     1       1.165   6.062  20.997  0.00  0.00    +0.000 C 
BRANCH  12  13
ATOM     13  O   UNL     1       1.700   7.381  20.990  0.00  0.00    +0.000 OA
ATOM     14  H   UNL     1       0.967   8.004  20.832  0.00  0.00    +0.000 HD
ENDBRANCH  12  13
ENDBRANCH   7  12
BRANCH   4  15
ATOM     15  C   UNL     1       2.418   3.120  17.577  0.00  0.00    +0.000 C 
BRANCH  15  16
ATOM     16  O   UNL     1       2.394   1.715  17.800  0.00  0.00    +0.000 OA
ATOM     17  H   UNL     1       3.156   1.326  17.340  0.00  0.00    +0.000 HD
ENDBRANCH  15  16
ENDBRANCH   4  15
ENDBRANCH   1   3
BRANCH   1  18
ATOM     18  N   UNL     1       5.069   5.171  19.623  0.00  0.00    +0.000 N 
ATOM     19  H   UNL     1       4.959   4.859  20.579  0.00  0.00    +0.000 HD
BRANCH  18  20
ATOM     20  C   UNL     1       6.271   4.704  18.932  0.00  0.00    +0.000 C 
BRANCH  20  21
ATOM     21  C   UNL     1       7.325   5.790  18.720  0.00  0.00    +0.000 C 
BRANCH  21  22
ATOM     22  C   UNL     1       7.458   6.116  17.226  0.00  0.00    +0.000 C 
BRANCH  22  23
ATOM     23  C   UNL     1       7.139   4.913  16.339  0.00  0.00    +0.000 C 
BRANCH  23  24
ATOM     24  C   UNL     1       6.201   5.297  15.191  0.00  0.00    +0.000 C 
BRANCH  24  25
ATOM     25  C   UNL     1       6.724   4.777  13.850  0.00  0.00    +0.000 C 
BRANCH  25  26
ATOM     26  C   UNL     1       5.980   3.516  13.403  0.00  0.00    +0.000 C 
BRANCH  26  27
ATOM     27  C   UNL     1       6.001   3.369  11.878  0.00  0.00    +0.000 C 
BRANCH  27  28
ATOM     28  C   UNL     1       4.926   2.401  11.393  0.00  0.00    +0.000 C 
BRANCH  28  29
ATOM     29  C   UNL     1       3.619   3.138  11.090  0.00  0.00    +0.000 C 
BRANCH  29  31
ATOM     30  C   UNL     1       2.436   4.531   9.360  0.00  0.00    +0.000 C 
ATOM     31  C   UNL     1       3.784   4.098   9.914  0.00  0.00    +0.000 C 
ENDBRANCH  29  31
ENDBRANCH  28  29
ENDBRANCH  27  28
ENDBRANCH  26  27
ENDBRANCH  25  26
ENDBRANCH  24  25
ENDBRANCH  23  24
ENDBRANCH  22  23
ENDBRANCH  21  22
ENDBRANCH  20  21
ENDBRANCH  18  20
ENDBRANCH   1  18
TORSDOF 19
ENDMDL
MODEL 2
REMARK VINA RESULT:      -6.2      4.406      7.693
REMARK  Name = 
REMARK  20 active torsions:
REMARK  status: ('A' for Active; 'I' for Inactive)
REMARK    1  A    between atoms: C_1  and  C_2
REMARK    2  A    between atoms: C_2  and  C_3
REMARK    3  A    between atoms: C_3  and  C_4
REMARK    4  A    between atoms: C_4  and  C_5
REMARK    5  A    between atoms: C_5  and  C_6
REMARK    6  A    between atoms: C_6  and  C_7
REMARK    7  A    between atoms: C_7  and  C_8
REMARK    8  A    between atoms: C_8  and  C_9
REMARK    9  A    between atoms: C_9  and  C_10
REMARK   10  A    between atoms: C_10  and  C_11
REMARK   11  A    between atoms: C_11  and  C_12
REMARK   12  A    between atoms: C_12  and  N_13
REMARK   13  A    between atoms: N_13  and  C_14
REMARK   14  A    between atoms: C_14  and  N_16
REMARK   15  A    between atoms: C_17  and  C_18
REMARK   16  A    between atoms: C_18  and  O_19
REMARK   17  A    between atoms: C_20  and  O_21
REMARK   18  A    between atoms: C_22  and  O_23
REMARK   19  A    between atoms: C_24  and  C_25
REMARK   20  A    between atoms: C_25  and  O_26
REMARK                            x       y       z     vdW  Elec       q    Type
REMARK                         _______ _______ _______ _____ _____    ______ ____
ROOT
ATOM      1  C   UNL     1       4.912   5.340  18.075  0.00  0.00    +0.000 C 
ATOM      2  S   UNL     1       4.823   6.026  16.535  0.00  0.00    +0.000 S 
ENDROOT
BRANCH   1   3
ATOM      3  N   UNL     1       3.811   4.751  18.691  0.00  0.00    +0.000 N 
ATOM      4  C   UNL     1       2.926   5.323  19.733  0.00  0.00    +0.000 C 
ATOM      5  C   UNL     1       1.543   4.664  19.450  0.00  0.00    +0.000 C 
ATOM      6  C   UNL     1       1.822   3.456  18.537  0.00  0.00    +0.000 C 
ATOM      7  C   UNL     1       3.347   3.373  18.397  0.00  0.00    +0.000 C 
BRANCH   6   8
ATOM      8  O   UNL     1       1.245   3.673  17.241  0.00  0.00    +0.000 OA
ATOM      9  H   UNL     1       1.967   3.839  16.607  0.00  0.00    +0.000 HD
ENDBRANCH   6   8
BRANCH   5  10
ATOM     10  O   UNL     1       0.896   4.295  20.671  0.00  0.00    +0.000 OA
ATOM     11  H   UNL     1       1.221   4.856  21.390  0.00  0.00    +0.000 HD
ENDBRANCH   5  10
BRANCH   7  12
ATOM     12  C   UNL     1       3.919   2.331  19.389  0.00  0.00    +0.000 C 
BRANCH  12  13
ATOM     13  O   UNL     1       5.258   2.631  19.769  0.00  0.00    +0.000 OA
ATOM     14  H   UNL     1       5.664   1.815  20.115  0.00  0.00    +0.000 HD
ENDBRANCH  12  13
ENDBRANCH   7  12
BRANCH   4  15
ATOM     15  C   UNL     1       2.773   6.855  19.775  0.00  0.00    +0.000 C 
BRANCH  15  16
ATOM     16  O   UNL     1       1.951   7.292  20.852  0.00  0.00    +0.000 OA
ATOM     17  H   UNL     1       2.493   7.851  21.433  0.00  0.00    +0.000 HD
ENDBRANCH  15  16
ENDBRANCH   4  15
ENDBRANCH   1   3
BRANCH   1  18
ATOM     18  N   UNL     1       6.053   5.393  18.853  0.00  0.00    +0.000 N 
ATOM     19  H   UNL     1       5.983   4.893  19.731  0.00  0.00    +0.000 HD
BRANCH  18  20
ATOM     20  C   UNL     1       7.404   5.563  18.319  0.00  0.00    +0.000 C 
BRANCH  20  21
ATOM     21  C   UNL     1       8.027   6.923  18.630  0.00  0.00    +0.000 C 
BRANCH  21  22
ATOM     22  C   UNL     1       7.737   7.912  17.491  0.00  0.00    +0.000 C 
BRANCH  22  23
ATOM     23  C   UNL     1       8.099   9.349  17.864  0.00  0.00    +0.000 C 
BRANCH  23  24
ATOM     24  C   UNL     1       9.020   9.396  19.087  0.00  0.00    +0.000 C 
BRANCH  24  25
ATOM     25  C   UNL     1       9.682  10.768  19.229  0.00  0.00    +0.000 C 
BRANCH  25  26
ATOM     26  C   UNL     1       9.444  11.369  20.616  0.00  0.00    +0.000 C 
BRANCH  26  27
ATOM     27  C   UNL     1      10.428  12.508  20.906  0.00  0.00    +0.000 C 
BRANCH  27  28
ATOM     28  C   UNL     1      11.349  12.768  19.718  0.00  0.00    +0.000 C 
BRANCH  28  29
ATOM     29  C   UNL     1      11.186  14.198  19.197  0.00  0.00    +0.000 C 
BRANCH  29  31
ATOM     30  C   UNL     1      11.265  13.174  16.898  0.00  0.00    +0.000 C 
ATOM     31  C   UNL     1      11.718  14.333  17.771  0.00  0.00    +0.000 C 
ENDBRANCH  29  31
ENDBRANCH  28  29
ENDBRANCH  27  28
ENDBRANCH  26  27
ENDBRANCH  25  26
ENDBRANCH  24  25
ENDBRANCH  23  24
ENDBRANCH  22  23
ENDBRANCH  21  22
ENDBRANCH  20  21
ENDBRANCH  18  20
ENDBRANCH   1  18
TORSDOF 19
ENDMDL
MODEL 3
REMARK VINA RESULT:      -6.0      4.573      7.519
REMARK  Name = 
REMARK  20 active torsions:
REMARK  status: ('A' for Active; 'I' for Inactive)
REMARK    1  A    between atoms: C_1  and  C_2
REMARK    2  A    between atoms: C_2  and  C_3
REMARK    3  A    between atoms: C_3  and  C_4
REMARK    4  A    between atoms: C_4  and  C_5
REMARK    5  A    between atoms: C_5  and  C_6
REMARK    6  A    between atoms: C_6  and  C_7
REMARK    7  A    between atoms: C_7  and  C_8
REMARK    8  A    between atoms: C_8  and  C_9
REMARK    9  A    between atoms: C_9  and  C_10
REMARK   10  A    between atoms: C_10  and  C_11
REMARK   11  A    between atoms: C_11  and  C_12
REMARK   12  A    between atoms: C_12  and  N_13
REMARK   13  A    between atoms: N_13  and  C_14
REMARK   14  A    between atoms: C_14  and  N_16
REMARK   15  A    between atoms: C_17  and  C_18
REMARK   16  A    between atoms: C_18  and  O_19
REMARK   17  A    between atoms: C_20  and  O_21
REMARK   18  A    between atoms: C_22  and  O_23
REMARK   19  A    between atoms: C_24  and  C_25
REMARK   20  A    between atoms: C_25  and  O_26
REMARK                            x       y       z     vdW  Elec       q    Type
REMARK                         _______ _______ _______ _____ _____    ______ ____
ROOT
ATOM      1  C   UNL     1       5.009   4.075  17.569  0.00  0.00    +0.000 C 
ATOM      2  S   UNL     1       4.634   4.483  15.973  0.00  0.00    +0.000 S 
ENDROOT
BRANCH   1   3
ATOM      3  N   UNL     1       4.027   3.771  18.508  0.00  0.00    +0.000 N 
ATOM      4  C   UNL     1       3.465   4.643  19.565  0.00  0.00    +0.000 C 
ATOM      5  C   UNL     1       1.997   4.145  19.718  0.00  0.00    +0.000 C 
ATOM      6  C   UNL     1       1.940   2.761  19.043  0.00  0.00    +0.000 C 
ATOM      7  C   UNL     1       3.378   2.440  18.613  0.00  0.00    +0.000 C 
BRANCH   6   8
ATOM      8  O   UNL     1       1.105   2.815  17.878  0.00  0.00    +0.000 OA
ATOM      9  H   UNL     1       0.932   1.902  17.581  0.00  0.00    +0.000 HD
ENDBRANCH   6   8
BRANCH   5  10
ATOM     10  O   UNL     1       1.615   4.102  21.096  0.00  0.00    +0.000 OA
ATOM     11  H   UNL     1       1.071   4.876  21.303  0.00  0.00    +0.000 HD
ENDBRANCH   5  10
BRANCH   7  12
ATOM     12  C   UNL     1       4.059   1.530  19.663  0.00  0.00    +0.000 C 
BRANCH  12  13
ATOM     13  O   UNL     1       5.250   2.110  20.185  0.00  0.00    +0.000 OA
ATOM     14  H   UNL     1       5.220   3.069  20.013  0.00  0.00    +0.000 HD
ENDBRANCH  12  13
ENDBRANCH   7  12
BRANCH   4  15
ATOM     15  C   UNL     1       3.474   6.163  19.313  0.00  0.00    +0.000 C 
BRANCH  15  16
ATOM     16  O   UNL     1       2.605   6.867  20.194  0.00  0.00    +0.000 OA
ATOM     17  H   UNL     1       2.933   7.778  20.271  0.00  0.00    +0.000 HD
ENDBRANCH  15  16
ENDBRANCH   4  15
ENDBRANCH   1   3
BRANCH   1  18
ATOM     18  N   UNL     1       6.298   4.099  18.065  0.00  0.00    +0.000 N 
ATOM     19  H   UNL     1       6.952   3.518  17.556  0.00  0.00    +0.000 HD
BRANCH  18  20
ATOM     20  C   UNL     1       6.878   5.230  18.791  0.00  0.00    +0.000 C 
BRANCH  20  21
ATOM     21  C   UNL     1       7.144   6.456  17.918  0.00  0.00    +0.000 C 
BRANCH  21  22
ATOM     22  C   UNL     1       8.195   7.359  18.579  0.00  0.00    +0.000 C 
BRANCH  22  23
ATOM     23  C   UNL     1       8.252   8.746  17.939  0.00  0.00    +0.000 C 
BRANCH  23  24
ATOM     24  C   UNL     1       8.906   9.768  18.875  0.00  0.00    +0.000 C 
BRANCH  24  25
ATOM     25  C   UNL     1       9.159  11.095  18.156  0.00  0.00    +0.000 C 
BRANCH  25  26
ATOM     26  C   UNL     1      10.287  11.890  18.817  0.00  0.00    +0.000 C 
BRANCH  26  27
ATOM     27  C   UNL     1      11.608  11.716  18.059  0.00  0.00    +0.000 C 
BRANCH  27  28
ATOM     28  C   UNL     1      12.214  13.062  17.673  0.00  0.00    +0.000 C 
BRANCH  28  29
ATOM     29  C   UNL     1      11.204  13.923  16.912  0.00  0.00    +0.000 C 
BRANCH  29  31
ATOM     30  C   UNL     1       9.523  15.558  17.826  0.00  0.00    +0.000 C 
ATOM     31  C   UNL     1      10.998  15.273  17.596  0.00  0.00    +0.000 C 
ENDBRANCH  29  31
ENDBRANCH  28  29
ENDBRANCH  27  28
ENDBRANCH  26  27
ENDBRANCH  25  26
ENDBRANCH  24  25
ENDBRANCH  23  24
ENDBRANCH  22  23
ENDBRANCH  21  22
ENDBRANCH  20  21
ENDBRANCH  18  20
ENDBRANCH   1  18
TORSDOF 19
ENDMDL
MODEL 4
REMARK VINA RESULT:      -5.8      4.889      8.380
REMARK  Name = 
REMARK  20 active torsions:
REMARK  status: ('A' for Active; 'I' for Inactive)
REMARK    1  A    between atoms: C_1  and  C_2
REMARK    2  A    between atoms: C_2  and  C_3
REMARK    3  A    between atoms: C_3  and  C_4
REMARK    4  A    between atoms: C_4  and  C_5
REMARK    5  A    between atoms: C_5  and  C_6
REMARK    6  A    between atoms: C_6  and  C_7
REMARK    7  A    between atoms: C_7  and  C_8
REMARK    8  A    between atoms: C_8  and  C_9
REMARK    9  A    between atoms: C_9  and  C_10
REMARK   10  A    between atoms: C_10  and  C_11
REMARK   11  A    between atoms: C_11  and  C_12
REMARK   12  A    between atoms: C_12  and  N_13
REMARK   13  A    between atoms: N_13  and  C_14
REMARK   14  A    between atoms: C_14  and  N_16
REMARK   15  A    between atoms: C_17  and  C_18
REMARK   16  A    between atoms: C_18  and  O_19
REMARK   17  A    between atoms: C_20  and  O_21
REMARK   18  A    between atoms: C_22  and  O_23
REMARK   19  A    between atoms: C_24  and  C_25
REMARK   20  A    between atoms: C_25  and  O_26
REMARK                            x       y       z     vdW  Elec       q    Type
REMARK                         _______ _______ _______ _____ _____    ______ ____
ROOT
ATOM      1  C   UNL     1       5.597   5.347  17.106  0.00  0.00    +0.000 C 
ATOM      2  S   UNL     1       5.616   5.090  15.436  0.00  0.00    +0.000 S 
ENDROOT
BRANCH   1   3
ATOM      3  N   UNL     1       4.529   4.949  17.906  0.00  0.00    +0.000 N 
ATOM      4  C   UNL     1       3.527   5.799  18.590  0.00  0.00    +0.000 C 
ATOM      5  C   UNL     1       2.242   4.919  18.609  0.00  0.00    +0.000 C 
ATOM      6  C   UNL     1       2.703   3.480  18.310  0.00  0.00    +0.000 C 
ATOM      7  C   UNL     1       4.234   3.532  18.233  0.00  0.00    +0.000 C 
BRANCH   6   8
ATOM      8  O   UNL     1       2.186   3.049  17.043  0.00  0.00    +0.000 OA
ATOM      9  H   UNL     1       1.228   2.889  17.139  0.00  0.00    +0.000 HD
ENDBRANCH   6   8
BRANCH   5  10
ATOM     10  O   UNL     1       1.565   5.032  19.863  0.00  0.00    +0.000 OA
ATOM     11  H   UNL     1       1.949   5.762  20.371  0.00  0.00    +0.000 HD
ENDBRANCH   5  10
BRANCH   7  12
ATOM     12  C   UNL     1       4.853   3.095  19.583  0.00  0.00    +0.000 C 
BRANCH  12  13
ATOM     13  O   UNL     1       4.899   1.679  19.719  0.00  0.00    +0.000 OA
ATOM     14  H   UNL     1       5.357   1.315  18.939  0.00  0.00    +0.000 HD
ENDBRANCH  12  13
ENDBRANCH   7  12
BRANCH   4  15
ATOM     15  C   UNL     1       3.210   7.170  17.964  0.00  0.00    +0.000 C 
BRANCH  15  16
ATOM     16  O   UNL     1       2.256   7.907  18.720  0.00  0.00    +0.000 OA
ATOM     17  H   UNL     1       1.600   8.269  18.102  0.00  0.00    +0.000 HD
ENDBRANCH  15  16
ENDBRANCH   4  15
ENDBRANCH   1   3
BRANCH   1  18
ATOM     18  N   UNL     1       6.593   6.039  17.768  0.00  0.00    +0.000 N 
ATOM     19  H   UNL     1       7.271   5.450  18.234  0.00  0.00    +0.000 HD
BRANCH  18  20
ATOM     20  C   UNL     1       7.057   7.374  17.389  0.00  0.00    +0.000 C 
BRANCH  20  21
ATOM     21  C   UNL     1       8.212   7.894  18.244  0.00  0.00    +0.000 C 
BRANCH  21  22
ATOM     22  C   UNL     1       8.370   9.410  18.056  0.00  0.00    +0.000 C 
BRANCH  22  23
ATOM     23  C   UNL     1       9.211  10.047  19.163  0.00  0.00    +0.000 C 
BRANCH  23  24
ATOM     24  C   UNL     1       9.802  11.387  18.715  0.00  0.00    +0.000 C 
BRANCH  24  25
ATOM     25  C   UNL     1      11.282  11.494  19.094  0.00  0.00    +0.000 C 
BRANCH  25  26
ATOM     26  C   UNL     1      11.577  12.785  19.860  0.00  0.00    +0.000 C 
BRANCH  26  27
ATOM     27  C   UNL     1      10.646  13.919  19.419  0.00  0.00    +0.000 C 
BRANCH  27  28
ATOM     28  C   UNL     1      10.181  14.757  20.606  0.00  0.00    +0.000 C 
BRANCH  28  29
ATOM     29  C   UNL     1       9.826  13.869  21.801  0.00  0.00    +0.000 C 
BRANCH  29  31
ATOM     30  C   UNL     1       8.372  11.870  22.277  0.00  0.00    +0.000 C 
ATOM     31  C   UNL     1       8.440  13.248  21.640  0.00  0.00    +0.000 C 
ENDBRANCH  29  31
ENDBRANCH  28  29
ENDBRANCH  27  28
ENDBRANCH  26  27
ENDBRANCH  25  26
ENDBRANCH  24  25
ENDBRANCH  23  24
ENDBRANCH  22  23
ENDBRANCH  21  22
ENDBRANCH  20  21
ENDBRANCH  18  20
ENDBRANCH   1  18
TORSDOF 19
ENDMDL
MODEL 5
REMARK VINA RESULT:      -5.7      1.608      2.024
REMARK  Name = 
REMARK  20 active torsions:
REMARK  status: ('A' for Active; 'I' for Inactive)
REMARK    1  A    between atoms: C_1  and  C_2
REMARK    2  A    between atoms: C_2  and  C_3
REMARK    3  A    between atoms: C_3  and  C_4
REMARK    4  A    between atoms: C_4  and  C_5
REMARK    5  A    between atoms: C_5  and  C_6
REMARK    6  A    between atoms: C_6  and  C_7
REMARK    7  A    between atoms: C_7  and  C_8
REMARK    8  A    between atoms: C_8  and  C_9
REMARK    9  A    between atoms: C_9  and  C_10
REMARK   10  A    between atoms: C_10  and  C_11
REMARK   11  A    between atoms: C_11  and  C_12
REMARK   12  A    between atoms: C_12  and  N_13
REMARK   13  A    between atoms: N_13  and  C_14
REMARK   14  A    between atoms: C_14  and  N_16
REMARK   15  A    between atoms: C_17  and  C_18
REMARK   16  A    between atoms: C_18  and  O_19
REMARK   17  A    between atoms: C_20  and  O_21
REMARK   18  A    between atoms: C_22  and  O_23
REMARK   19  A    between atoms: C_24  and  C_25
REMARK   20  A    between atoms: C_25  and  O_26
REMARK                            x       y       z     vdW  Elec       q    Type
REMARK                         _______ _______ _______ _____ _____    ______ ____
ROOT
ATOM      1  C   UNL     1       2.960   5.907  19.457  0.00  0.00    +0.000 C 
ATOM      2  S   UNL     1       1.748   7.022  19.831  0.00  0.00    +0.000 S 
ENDROOT
BRANCH   1   3
ATOM      3  N   UNL     1       2.786   4.537  19.625  0.00  0.00    +0.000 N 
ATOM      4  C   UNL     1       2.058   3.589  18.749  0.00  0.00    +0.000 C 
ATOM      5  C   UNL     1       2.827   2.246  18.932  0.00  0.00    +0.000 C 
ATOM      6  C   UNL     1       3.679   2.409  20.205  0.00  0.00    +0.000 C 
ATOM      7  C   UNL     1       3.311   3.780  20.788  0.00  0.00    +0.000 C 
BRANCH   6   8
ATOM      8  O   UNL     1       5.073   2.403  19.871  0.00  0.00    +0.000 OA
ATOM      9  H   UNL     1       5.161   2.570  18.914  0.00  0.00    +0.000 HD
ENDBRANCH   6   8
BRANCH   5  10
ATOM     10  O   UNL     1       1.918   1.146  19.014  0.00  0.00    +0.000 OA
ATOM     11  H   UNL     1       1.009   1.473  18.947  0.00  0.00    +0.000 HD
ENDBRANCH   5  10
BRANCH   7  12
ATOM     12  C   UNL     1       2.260   3.619  21.913  0.00  0.00    +0.000 C 
BRANCH  12  13
ATOM     13  O   UNL     1       1.850   2.265  22.075  0.00  0.00    +0.000 OA
ATOM     14  H   UNL     1       1.677   2.113  23.022  0.00  0.00    +0.000 HD
ENDBRANCH  12  13
ENDBRANCH   7  12
BRANCH   4  15
ATOM     15  C   UNL     1       1.963   3.933  17.251  0.00  0.00    +0.000 C 
BRANCH  15  16
ATOM     16  O   UNL     1       0.790   4.674  16.934  0.00  0.00    +0.000 OA
ATOM     17  H   UNL     1       0.179   4.080  16.469  0.00  0.00    +0.000 HD
ENDBRANCH  15  16
ENDBRANCH   4  15
ENDBRANCH   1   3
BRANCH   1  18
ATOM     18  N   UNL     1       4.223   6.286  19.043  0.00  0.00    +0.000 N 
ATOM     19  H   UNL     1       4.773   6.752  19.753  0.00  0.00    +0.000 HD
BRANCH  18  20
ATOM     20  C   UNL     1       4.980   5.606  17.991  0.00  0.00    +0.000 C 
BRANCH  20  21
ATOM     21  C   UNL     1       6.464   5.970  17.963  0.00  0.00    +0.000 C 
BRANCH  21  22
ATOM     22  C   UNL     1       7.156   5.285  16.776  0.00  0.00    +0.000 C 
BRANCH  22  23
ATOM     23  C   UNL     1       6.200   5.042  15.608  0.00  0.00    +0.000 C 
BRANCH  23  24
ATOM     24  C   UNL     1       6.934   4.469  14.393  0.00  0.00    +0.000 C 
BRANCH  24  25
ATOM     25  C   UNL     1       5.984   3.671  13.496  0.00  0.00    +0.000 C 
BRANCH  25  26
ATOM     26  C   UNL     1       6.541   3.514  12.080  0.00  0.00    +0.000 C 
BRANCH  26  27
ATOM     27  C   UNL     1       5.452   3.064  11.100  0.00  0.00    +0.000 C 
BRANCH  27  28
ATOM     28  C   UNL     1       4.061   3.182  11.716  0.00  0.00    +0.000 C 
BRANCH  28  29
ATOM     29  C   UNL     1       2.976   3.148  10.637  0.00  0.00    +0.000 C 
BRANCH  29  31
ATOM     30  C   UNL     1       2.188   4.957   9.074  0.00  0.00    +0.000 C 
ATOM     31  C   UNL     1       3.342   4.043   9.455  0.00  0.00    +0.000 C 
ENDBRANCH  29  31
ENDBRANCH  28  29
ENDBRANCH  27  28
ENDBRANCH  26  27
ENDBRANCH  25  26
ENDBRANCH  24  25
ENDBRANCH  23  24
ENDBRANCH  22  23
ENDBRANCH  21  22
ENDBRANCH  20  21
ENDBRANCH  18  20
ENDBRANCH   1  18
TORSDOF 19
ENDMDL
MODEL 6
REMARK VINA RESULT:      -5.7      4.411      7.509
REMARK  Name = 
REMARK  20 active torsions:
REMARK  status: ('A' for Active; 'I' for Inactive)
REMARK    1  A    between atoms: C_1  and  C_2
REMARK    2  A    between atoms: C_2  and  C_3
REMARK    3  A    between atoms: C_3  and  C_4
REMARK    4  A    between atoms: C_4  and  C_5
REMARK    5  A    between atoms: C_5  and  C_6
REMARK    6  A    between atoms: C_6  and  C_7
REMARK    7  A    between atoms: C_7  and  C_8
REMARK    8  A    between atoms: C_8  and  C_9
REMARK    9  A    between atoms: C_9  and  C_10
REMARK   10  A    between atoms: C_10  and  C_11
REMARK   11  A    between atoms: C_11  and  C_12
REMARK   12  A    between atoms: C_12  and  N_13
REMARK   13  A    between atoms: N_13  and  C_14
REMARK   14  A    between atoms: C_14  and  N_16
REMARK   15  A    between atoms: C_17  and  C_18
REMARK   16  A    between atoms: C_18  and  O_19
REMARK   17  A    between atoms: C_20  and  O_21
REMARK   18  A    between atoms: C_22  and  O_23
REMARK   19  A    between atoms: C_24  and  C_25
REMARK   20  A    between atoms: C_25  and  O_26
REMARK                            x       y       z     vdW  Elec       q    Type
REMARK                         _______ _______ _______ _____ _____    ______ ____
ROOT
ATOM      1  C   UNL     1       3.589   5.999  17.848  0.00  0.00    +0.000 C 
ATOM      2  S   UNL     1       4.755   6.630  16.801  0.00  0.00    +0.000 S 
ENDROOT
BRANCH   1   3
ATOM      3  N   UNL     1       3.694   4.722  18.393  0.00  0.00    +0.000 N 
ATOM      4  C   UNL     1       4.922   3.954  18.704  0.00  0.00    +0.000 C 
ATOM      5  C   UNL     1       4.517   3.084  19.931  0.00  0.00    +0.000 C 
ATOM      6  C   UNL     1       2.977   3.103  19.982  0.00  0.00    +0.000 C 
ATOM      7  C   UNL     1       2.522   3.881  18.740  0.00  0.00    +0.000 C 
BRANCH   6   8
ATOM      8  O   UNL     1       2.531   3.796  21.156  0.00  0.00    +0.000 OA
ATOM      9  H   UNL     1       3.137   3.581  21.890  0.00  0.00    +0.000 HD
ENDBRANCH   6   8
BRANCH   5  10
ATOM     10  O   UNL     1       5.048   1.762  19.816  0.00  0.00    +0.000 OA
ATOM     11  H   UNL     1       4.415   1.128  20.183  0.00  0.00    +0.000 HD
ENDBRANCH   5  10
BRANCH   7  12
ATOM     12  C   UNL     1       2.140   2.900  17.605  0.00  0.00    +0.000 C 
BRANCH  12  13
ATOM     13  O   UNL     1       2.406   1.546  17.954  0.00  0.00    +0.000 OA
ATOM     14  H   UNL     1       2.308   1.457  18.920  0.00  0.00    +0.000 HD
ENDBRANCH  12  13
ENDBRANCH   7  12
BRANCH   4  15
ATOM     15  C   UNL     1       6.197   4.752  19.031  0.00  0.00    +0.000 C 
BRANCH  15  16
ATOM     16  O   UNL     1       7.325   4.310  18.283  0.00  0.00    +0.000 OA
ATOM     17  H   UNL     1       7.636   3.478  18.675  0.00  0.00    +0.000 HD
ENDBRANCH  15  16
ENDBRANCH   4  15
ENDBRANCH   1   3
BRANCH   1  18
ATOM     18  N   UNL     1       2.423   6.670  18.161  0.00  0.00    +0.000 N 
ATOM     19  H   UNL     1       1.576   6.163  17.939  0.00  0.00    +0.000 HD
BRANCH  18  20
ATOM     20  C   UNL     1       2.310   7.667  19.227  0.00  0.00    +0.000 C 
BRANCH  20  21
ATOM     21  C   UNL     1       1.624   7.149  20.490  0.00  0.00    +0.000 C 
BRANCH  21  22
ATOM     22  C   UNL     1       1.312   8.314  21.440  0.00  0.00    +0.000 C 
BRANCH  22  23
ATOM     23  C   UNL     1       0.075   9.101  21.007  0.00  0.00    +0.000 C 
BRANCH  23  24
ATOM     24  C   UNL     1       0.459  10.389  20.272  0.00  0.00    +0.000 C 
BRANCH  24  25
ATOM     25  C   UNL     1      -0.328  10.538  18.968  0.00  0.00    +0.000 C 
BRANCH  25  26
ATOM     26  C   UNL     1      -1.658  11.262  19.191  0.00  0.00    +0.000 C 
BRANCH  26  27
ATOM     27  C   UNL     1      -2.227  11.798  17.873  0.00  0.00    +0.000 C 
BRANCH  27  28
ATOM     28  C   UNL     1      -3.713  11.482  17.734  0.00  0.00    +0.000 C 
BRANCH  28  29
ATOM     29  C   UNL     1      -4.040  10.978  16.327  0.00  0.00    +0.000 C 
BRANCH  29  31
ATOM     30  C   UNL     1      -3.013   9.990  14.253  0.00  0.00    +0.000 C 
ATOM     31  C   UNL     1      -2.901  10.132  15.762  0.00  0.00    +0.000 C 
ENDBRANCH  29  31
ENDBRANCH  28  29
ENDBRANCH  27  28
ENDBRANCH  26  27
ENDBRANCH  25  26
ENDBRANCH  24  25
ENDBRANCH  23  24
ENDBRANCH  22  23
ENDBRANCH  21  22
ENDBRANCH  20  21
ENDBRANCH  18  20
ENDBRANCH   1  18
TORSDOF 19
ENDMDL
MODEL 7
REMARK VINA RESULT:      -5.6      4.513      7.558
REMARK  Name = 
REMARK  20 active torsions:
REMARK  status: ('A' for Active; 'I' for Inactive)
REMARK    1  A    between atoms: C_1  and  C_2
REMARK    2  A    between atoms: C_2  and  C_3
REMARK    3  A    between atoms: C_3  and  C_4
REMARK    4  A    between atoms: C_4  and  C_5
REMARK    5  A    between atoms: C_5  and  C_6
REMARK    6  A    between atoms: C_6  and  C_7
REMARK    7  A    between atoms: C_7  and  C_8
REMARK    8  A    between atoms: C_8  and  C_9
REMARK    9  A    between atoms: C_9  and  C_10
REMARK   10  A    between atoms: C_10  and  C_11
REMARK   11  A    between atoms: C_11  and  C_12
REMARK   12  A    between atoms: C_12  and  N_13
REMARK   13  A    between atoms: N_13  and  C_14
REMARK   14  A    between atoms: C_14  and  N_16
REMARK   15  A    between atoms: C_17  and  C_18
REMARK   16  A    between atoms: C_18  and  O_19
REMARK   17  A    between atoms: C_20  and  O_21
REMARK   18  A    between atoms: C_22  and  O_23
REMARK   19  A    between atoms: C_24  and  C_25
REMARK   20  A    between atoms: C_25  and  O_26
REMARK                            x       y       z     vdW  Elec       q    Type
REMARK                         _______ _______ _______ _____ _____    ______ ____
ROOT
ATOM      1  C   UNL     1       4.243   5.321  19.446  0.00  0.00    +0.000 C 
ATOM      2  S   UNL     1       5.923   5.432  19.302  0.00  0.00    +0.000 S 
ENDROOT
BRANCH   1   3
ATOM      3  N   UNL     1       3.532   4.211  18.999  0.00  0.00    +0.000 N 
ATOM      4  C   UNL     1       2.880   3.152  19.805  0.00  0.00    +0.000 C 
ATOM      5  C   UNL     1       1.664   2.717  18.935  0.00  0.00    +0.000 C 
ATOM      6  C   UNL     1       1.934   3.256  17.517  0.00  0.00    +0.000 C 
ATOM      7  C   UNL     1       3.331   3.889  17.564  0.00  0.00    +0.000 C 
BRANCH   6   8
ATOM      8  O   UNL     1       0.974   4.267  17.182  0.00  0.00    +0.000 OA
ATOM      9  H   UNL     1       1.155   5.057  17.727  0.00  0.00    +0.000 HD
ENDBRANCH   6   8
BRANCH   5  10
ATOM     10  O   UNL     1       1.499   1.297  18.962  0.00  0.00    +0.000 OA
ATOM     11  H   UNL     1       0.572   1.077  18.788  0.00  0.00    +0.000 HD
ENDBRANCH   5  10
BRANCH   7  12
ATOM     12  C   UNL     1       4.388   2.894  17.027  0.00  0.00    +0.000 C 
BRANCH  12  13
ATOM     13  O   UNL     1       5.477   3.556  16.394  0.00  0.00    +0.000 OA
ATOM     14  H   UNL     1       5.302   3.578  15.435  0.00  0.00    +0.000 HD
ENDBRANCH  12  13
ENDBRANCH   7  12
BRANCH   4  15
ATOM     15  C   UNL     1       2.400   3.527  21.219  0.00  0.00    +0.000 C 
BRANCH  15  16
ATOM     16  O   UNL     1       1.329   2.704  21.668  0.00  0.00    +0.000 OA
ATOM     17  H   UNL     1       0.853   2.380  20.886  0.00  0.00    +0.000 HD
ENDBRANCH  15  16
ENDBRANCH   4  15
ENDBRANCH   1   3
BRANCH   1  18
ATOM     18  N   UNL     1       3.464   6.352  19.934  0.00  0.00    +0.000 N 
ATOM     19  H   UNL     1       3.909   6.908  20.652  0.00  0.00    +0.000 HD
BRANCH  18  20
ATOM     20  C   UNL     1       2.411   7.020  19.168  0.00  0.00    +0.000 C 
BRANCH  20  21
ATOM     21  C   UNL     1       2.910   7.695  17.890  0.00  0.00    +0.000 C 
BRANCH  21  22
ATOM     22  C   UNL     1       2.258   9.076  17.732  0.00  0.00    +0.000 C 
BRANCH  22  23
ATOM     23  C   UNL     1       1.125   9.302  18.733  0.00  0.00    +0.000 C 
BRANCH  23  24
ATOM     24  C   UNL     1      -0.121   9.871  18.048  0.00  0.00    +0.000 C 
BRANCH  24  25
ATOM     25  C   UNL     1      -1.039  10.565  19.058  0.00  0.00    +0.000 C 
BRANCH  25  26
ATOM     26  C   UNL     1      -1.728  11.788  18.448  0.00  0.00    +0.000 C 
BRANCH  26  27
ATOM     27  C   UNL     1      -3.105  12.023  19.077  0.00  0.00    +0.000 C 
BRANCH  27  28
ATOM     28  C   UNL     1      -4.208  11.324  18.289  0.00  0.00    +0.000 C 
BRANCH  28  29
ATOM     29  C   UNL     1      -4.023  11.527  16.784  0.00  0.00    +0.000 C 
BRANCH  29  31
ATOM     30  C   UNL     1      -2.829  10.272  14.958  0.00  0.00    +0.000 C 
ATOM     31  C   UNL     1      -3.876  10.192  16.057  0.00  0.00    +0.000 C 
ENDBRANCH  29  31
ENDBRANCH  28  29
ENDBRANCH  27  28
ENDBRANCH  26  27
ENDBRANCH  25  26
ENDBRANCH  24  25
ENDBRANCH  23  24
ENDBRANCH  22  23
ENDBRANCH  21  22
ENDBRANCH  20  21
ENDBRANCH  18  20
ENDBRANCH   1  18
TORSDOF 19
ENDMDL
MODEL 8
REMARK VINA RESULT:      -5.6      5.602      8.175
REMARK  Name = 
REMARK  20 active torsions:
REMARK  status: ('A' for Active; 'I' for Inactive)
REMARK    1  A    between atoms: C_1  and  C_2
REMARK    2  A    between atoms: C_2  and  C_3
REMARK    3  A    between atoms: C_3  and  C_4
REMARK    4  A    between atoms: C_4  and  C_5
REMARK    5  A    between atoms: C_5  and  C_6
REMARK    6  A    between atoms: C_6  and  C_7
REMARK    7  A    between atoms: C_7  and  C_8
REMARK    8  A    between atoms: C_8  and  C_9
REMARK    9  A    between atoms: C_9  and  C_10
REMARK   10  A    between atoms: C_10  and  C_11
REMARK   11  A    between atoms: C_11  and  C_12
REMARK   12  A    between atoms: C_12  and  N_13
REMARK   13  A    between atoms: N_13  and  C_14
REMARK   14  A    between atoms: C_14  and  N_16
REMARK   15  A    between atoms: C_17  and  C_18
REMARK   16  A    between atoms: C_18  and  O_19
REMARK   17  A    between atoms: C_20  and  O_21
REMARK   18  A    between atoms: C_22  and  O_23
REMARK   19  A    between atoms: C_24  and  C_25
REMARK   20  A    between atoms: C_25  and  O_26
REMARK                            x       y       z     vdW  Elec       q    Type
REMARK                         _______ _______ _______ _____ _____    ______ ____
ROOT
ATOM      1  C   UNL     1       0.330  10.046  19.978  0.00  0.00    +0.000 C 
ATOM      2  S   UNL     1       0.103   8.949  21.243  0.00  0.00    +0.000 S 
ENDROOT
BRANCH   1   3
ATOM      3  N   UNL     1       0.018  11.397  20.102  0.00  0.00    +0.000 N 
ATOM      4  C   UNL     1      -1.001  12.176  19.362  0.00  0.00    +0.000 C 
ATOM      5  C   UNL     1      -1.452  13.264  20.382  0.00  0.00    +0.000 C 
ATOM      6  C   UNL     1      -0.374  13.295  21.482  0.00  0.00    +0.000 C 
ATOM      7  C   UNL     1       0.720  12.318  21.031  0.00  0.00    +0.000 C 
BRANCH   6   8
ATOM      8  O   UNL     1      -0.924  12.839  22.725  0.00  0.00    +0.000 OA
ATOM      9  H   UNL     1      -0.495  13.331  23.451  0.00  0.00    +0.000 HD
ENDBRANCH   6   8
BRANCH   5  10
ATOM     10  O   UNL     1      -1.618  14.529  19.737  0.00  0.00    +0.000 OA
ATOM     11  H   UNL     1      -0.770  14.996  19.722  0.00  0.00    +0.000 HD
ENDBRANCH   5  10
BRANCH   7  12
ATOM     12  C   UNL     1       1.874  13.087  20.343  0.00  0.00    +0.000 C 
BRANCH  12  13
ATOM     13  O   UNL     1       2.835  13.562  21.278  0.00  0.00    +0.000 OA
ATOM     14  H   UNL     1       2.873  14.534  21.206  0.00  0.00    +0.000 HD
ENDBRANCH  12  13
ENDBRANCH   7  12
BRANCH   4  15
ATOM     15  C   UNL     1      -2.233  11.417  18.834  0.00  0.00    +0.000 C 
BRANCH  15  16
ATOM     16  O   UNL     1      -3.328  12.282  18.553  0.00  0.00    +0.000 OA
ATOM     17  H   UNL     1      -3.846  11.883  17.834  0.00  0.00    +0.000 HD
ENDBRANCH  15  16
ENDBRANCH   4  15
ENDBRANCH   1   3
BRANCH   1  18
ATOM     18  N   UNL     1       0.757   9.661  18.722  0.00  0.00    +0.000 N 
ATOM     19  H   UNL     1       0.238  10.077  17.959  0.00  0.00    +0.000 HD
BRANCH  18  20
ATOM     20  C   UNL     1       2.124   9.242  18.412  0.00  0.00    +0.000 C 
BRANCH  20  21
ATOM     21  C   UNL     1       2.227   7.815  17.874  0.00  0.00    +0.000 C 
BRANCH  21  22
ATOM     22  C   UNL     1       2.522   6.837  19.021  0.00  0.00    +0.000 C 
BRANCH  22  23
ATOM     23  C   UNL     1       3.799   6.031  18.783  0.00  0.00    +0.000 C 
BRANCH  23  24
ATOM     24  C   UNL     1       4.001   5.728  17.295  0.00  0.00    +0.000 C 
BRANCH  24  25
ATOM     25  C   UNL     1       4.021   4.220  17.035  0.00  0.00    +0.000 C 
BRANCH  25  26
ATOM     26  C   UNL     1       2.644   3.589  17.260  0.00  0.00    +0.000 C 
BRANCH  26  27
ATOM     27  C   UNL     1       2.726   2.407  18.232  0.00  0.00    +0.000 C 
BRANCH  27  28
ATOM     28  C   UNL     1       1.399   2.180  18.950  0.00  0.00    +0.000 C 
BRANCH  28  29
ATOM     29  C   UNL     1       0.828   3.497  19.480  0.00  0.00    +0.000 C 
BRANCH  29  31
ATOM     30  C   UNL     1       1.518   2.574  21.718  0.00  0.00    +0.000 C 
ATOM     31  C   UNL     1       1.383   3.825  20.865  0.00  0.00    +0.000 C 
ENDBRANCH  29  31
ENDBRANCH  28  29
ENDBRANCH  27  28
ENDBRANCH  26  27
ENDBRANCH  25  26
ENDBRANCH  24  25
ENDBRANCH  23  24
ENDBRANCH  22  23
ENDBRANCH  21  22
ENDBRANCH  20  21
ENDBRANCH  18  20
ENDBRANCH   1  18
TORSDOF 19
ENDMDL
MODEL 9
REMARK VINA RESULT:      -5.5      4.429      7.123
REMARK  Name = 
REMARK  20 active torsions:
REMARK  status: ('A' for Active; 'I' for Inactive)
REMARK    1  A    between atoms: C_1  and  C_2
REMARK    2  A    between atoms: C_2  and  C_3
REMARK    3  A    between atoms: C_3  and  C_4
REMARK    4  A    between atoms: C_4  and  C_5
REMARK    5  A    between atoms: C_5  and  C_6
REMARK    6  A    between atoms: C_6  and  C_7
REMARK    7  A    between atoms: C_7  and  C_8
REMARK    8  A    between atoms: C_8  and  C_9
REMARK    9  A    between atoms: C_9  and  C_10
REMARK   10  A    between atoms: C_10  and  C_11
REMARK   11  A    between atoms: C_11  and  C_12
REMARK   12  A    between atoms: C_12  and  N_13
REMARK   13  A    between atoms: N_13  and  C_14
REMARK   14  A    between atoms: C_14  and  N_16
REMARK   15  A    between atoms: C_17  and  C_18
REMARK   16  A    between atoms: C_18  and  O_19
REMARK   17  A    between atoms: C_20  and  O_21
REMARK   18  A    between atoms: C_22  and  O_23
REMARK   19  A    between atoms: C_24  and  C_25
REMARK   20  A    between atoms: C_25  and  O_26
REMARK                            x       y       z     vdW  Elec       q    Type
REMARK                         _______ _______ _______ _____ _____    ______ ____
ROOT
ATOM      1  C   UNL     1       1.514   8.733  19.500  0.00  0.00    +0.000 C 
ATOM      2  S   UNL     1       2.200   8.844  17.960  0.00  0.00    +0.000 S 
ENDROOT
BRANCH   1   3
ATOM      3  N   UNL     1       0.627   9.688  19.988  0.00  0.00    +0.000 N 
ATOM      4  C   UNL     1       0.052   9.798  21.349  0.00  0.00    +0.000 C 
ATOM      5  C   UNL     1      -0.146  11.330  21.548  0.00  0.00    +0.000 C 
ATOM      6  C   UNL     1      -0.062  11.960  20.145  0.00  0.00    +0.000 C 
ATOM      7  C   UNL     1       0.072  10.789  19.162  0.00  0.00    +0.000 C 
BRANCH   6   8
ATOM      8  O   UNL     1       1.103  12.789  20.045  0.00  0.00    +0.000 OA
ATOM      9  H   UNL     1       1.601  12.723  20.882  0.00  0.00    +0.000 HD
ENDBRANCH   6   8
BRANCH   5  10
ATOM     10  O   UNL     1      -1.389  11.602  22.201  0.00  0.00    +0.000 OA
ATOM     11  H   UNL     1      -1.854  10.769  22.368  0.00  0.00    +0.000 HD
ENDBRANCH   5  10
BRANCH   7  12
ATOM     12  C   UNL     1      -1.309  10.437  18.557  0.00  0.00    +0.000 C 
BRANCH  12  13
ATOM     13  O   UNL     1      -1.225  10.133  17.169  0.00  0.00    +0.000 OA
ATOM     14  H   UNL     1      -2.031  10.472  16.736  0.00  0.00    +0.000 HD
ENDBRANCH  12  13
ENDBRANCH   7  12
BRANCH   4  15
ATOM     15  C   UNL     1       0.875   9.224  22.518  0.00  0.00    +0.000 C 
BRANCH  15  16
ATOM     16  O   UNL     1       0.431   9.701  23.783  0.00  0.00    +0.000 OA
ATOM     17  H   UNL     1       1.173  10.163  24.205  0.00  0.00    +0.000 HD
ENDBRANCH  15  16
ENDBRANCH   4  15
ENDBRANCH   1   3
BRANCH   1  18
ATOM     18  N   UNL     1       1.852   7.740  20.400  0.00  0.00    +0.000 N 
ATOM     19  H   UNL     1       1.382   7.809  21.293  0.00  0.00    +0.000 HD
BRANCH  18  20
ATOM     20  C   UNL     1       2.303   6.402  20.015  0.00  0.00    +0.000 C 
BRANCH  20  21
ATOM     21  C   UNL     1       1.458   5.272  20.602  0.00  0.00    +0.000 C 
BRANCH  21  22
ATOM     22  C   UNL     1       2.124   3.916  20.330  0.00  0.00    +0.000 C 
BRANCH  22  23
ATOM     23  C   UNL     1       1.381   3.108  19.266  0.00  0.00    +0.000 C 
BRANCH  23  24
ATOM     24  C   UNL     1       1.923   3.397  17.863  0.00  0.00    +0.000 C 
BRANCH  24  25
ATOM     25  C   UNL     1       3.351   2.870  17.701  0.00  0.00    +0.000 C 
BRANCH  25  26
ATOM     26  C   UNL     1       4.207   3.808  16.847  0.00  0.00    +0.000 C 
BRANCH  26  27
ATOM     27  C   UNL     1       4.044   5.266  17.290  0.00  0.00    +0.000 C 
BRANCH  27  28
ATOM     28  C   UNL     1       5.396   5.942  17.502  0.00  0.00    +0.000 C 
BRANCH  28  29
ATOM     29  C   UNL     1       6.013   5.529  18.840  0.00  0.00    +0.000 C 
BRANCH  29  31
ATOM     30  C   UNL     1       7.969   7.037  18.353  0.00  0.00    +0.000 C 
ATOM     31  C   UNL     1       7.535   5.654  18.811  0.00  0.00    +0.000 C 
ENDBRANCH  29  31
ENDBRANCH  28  29
ENDBRANCH  27  28
ENDBRANCH  26  27
ENDBRANCH  25  26
ENDBRANCH  24  25
ENDBRANCH  23  24
ENDBRANCH  22  23
ENDBRANCH  21  22
ENDBRANCH  20  21
ENDBRANCH  18  20
ENDBRANCH   1  18
TORSDOF 19
ENDMDL
