MODEL 1
REMARK VINA RESULT:      -8.1      0.000      0.000
REMARK  Name = 
REMARK  4 active torsions:
REMARK  status: ('A' for Active; 'I' for Inactive)
REMARK    1  A    between atoms: C_2  and  O_3
REMARK    2  A    between atoms: C_2  and  C_4
REMARK    3  A    between atoms: C_7  and  S_8
REMARK    4  A    between atoms: S_8  and  N_11
REMARK                            x       y       z     vdW  Elec       q    Type
REMARK                         _______ _______ _______ _____ _____    ______ ____
ROOT
ATOM      1  S   UNL     1       6.553   5.410  17.800  0.00  0.00    +0.000 S 
ATOM      2  O   UNL     1       7.606   4.562  18.327  0.00  0.00    +0.000 OA
ATOM      3  O   UNL     1       6.682   6.849  17.788  0.00  0.00    +0.000 OA
ENDROOT
BRANCH   1   4
ATOM      4  N   UNL     1       5.140   5.012  18.585  0.00  0.00    +0.000 NA
ATOM      5  C   UNL     1       3.995   5.940  18.574  0.00  0.00    +0.000 C 
ATOM      6  C   UNL     1       3.298   5.869  19.935  0.00  0.00    +0.000 C 
ATOM      7  C   UNL     1       2.664   4.502  19.954  0.00  0.00    +0.000 A 
ATOM      8  C   UNL     1       1.291   4.345  20.141  0.00  0.00    +0.000 A 
ATOM      9  C   UNL     1       0.702   3.123  19.844  0.00  0.00    +0.000 A 
ATOM     10  C   UNL     1       1.488   2.051  19.414  0.00  0.00    +0.000 A 
ATOM     11  C   UNL     1       2.876   2.185  19.289  0.00  0.00    +0.000 A 
ATOM     12  C   UNL     1       3.475   3.421  19.534  0.00  0.00    +0.000 A 
ATOM     13  C   UNL     1       4.948   3.705  19.260  0.00  0.00    +0.000 C 
ENDBRANCH   1   4
BRANCH   1  17
ATOM     14  C   UNL     1       5.960   3.850  13.530  0.00  0.00    +0.000 A 
ATOM     15  C   UNL     1       7.140   4.525  13.876  0.00  0.00    +0.000 A 
ATOM     16  C   UNL     1       7.304   5.051  15.163  0.00  0.00    +0.000 A 
ATOM     17  C   UNL     1       6.275   4.918  16.102  0.00  0.00    +0.000 A 
ATOM     18  C   UNL     1       5.101   4.233  15.769  0.00  0.00    +0.000 A 
ATOM     19  C   UNL     1       4.947   3.692  14.487  0.00  0.00    +0.000 A 
BRANCH  14  21
ATOM     20  O   UNL     1       4.820   3.306  11.511  0.00  0.00    +0.000 OA
ATOM     21  C   UNL     1       5.850   3.250  12.168  0.00  0.00    +0.000 C 
BRANCH  21  22
ATOM     22  O   UNL     1       6.948   2.586  11.777  0.00  0.00    +0.000 OA
ATOM     23  H   UNL     1       7.073   1.710  12.177  0.00  0.00    +0.000 HD
ENDBRANCH  21  22
ENDBRANCH  14  21
ENDBRANCH   1  17
TORSDOF 4
ENDMDL
MODEL 2
REMARK VINA RESULT:      -8.1      0.411      1.110
REMARK  Name = 
REMARK  4 active torsions:
REMARK  status: ('A' for Active; 'I' for Inactive)
REMARK    1  A    between atoms: C_2  and  O_3
REMARK    2  A    between atoms: C_2  and  C_4
REMARK    3  A    between atoms: C_7  and  S_8
REMARK    4  A    between atoms: S_8  and  N_11
REMARK                            x       y       z     vdW  Elec       q    Type
REMARK                         _______ _______ _______ _____ _____    ______ ____
ROOT
ATOM      1  S   UNL     1       6.337   5.945  17.642  0.00  0.00    +0.000 S 
ATOM      2  O   UNL     1       7.497   5.484  18.380  0.00  0.00    +0.000 OA
ATOM      3  O   UNL     1       6.177   7.336  17.284  0.00  0.00    +0.000 OA
ENDROOT
BRANCH   1   4
ATOM      4  N   UNL     1       4.979   5.453  18.470  0.00  0.00    +0.000 NA
ATOM      5  C   UNL     1       3.712   6.193  18.331  0.00  0.00    +0.000 C 
ATOM      6  C   UNL     1       3.003   6.203  19.688  0.00  0.00    +0.000 C 
ATOM      7  C   UNL     1       2.574   4.772  19.890  0.00  0.00    +0.000 A 
ATOM      8  C   UNL     1       1.234   4.444  20.093  0.00  0.00    +0.000 A 
ATOM      9  C   UNL     1       0.834   3.120  19.963  0.00  0.00    +0.000 A 
ATOM     10  C   UNL     1       1.776   2.126  19.682  0.00  0.00    +0.000 A 
ATOM     11  C   UNL     1       3.132   2.444  19.544  0.00  0.00    +0.000 A 
ATOM     12  C   UNL     1       3.541   3.776  19.621  0.00  0.00    +0.000 A 
ATOM     13  C   UNL     1       4.963   4.233  19.314  0.00  0.00    +0.000 C 
ENDBRANCH   1   4
BRANCH   1  17
ATOM     14  C   UNL     1       6.038   3.843  13.577  0.00  0.00    +0.000 A 
ATOM     15  C   UNL     1       5.059   3.624  14.558  0.00  0.00    +0.000 A 
ATOM     16  C   UNL     1       5.173   4.220  15.820  0.00  0.00    +0.000 A 
ATOM     17  C   UNL     1       6.282   5.024  16.108  0.00  0.00    +0.000 A 
ATOM     18  C   UNL     1       7.255   5.260  15.130  0.00  0.00    +0.000 A 
ATOM     19  C   UNL     1       7.129   4.677  13.863  0.00  0.00    +0.000 A 
BRANCH  14  21
ATOM     20  O   UNL     1       4.791   3.325  11.616  0.00  0.00    +0.000 OA
ATOM     21  C   UNL     1       5.847   3.241  12.226  0.00  0.00    +0.000 C 
BRANCH  21  22
ATOM     22  O   UNL     1       6.906   2.543  11.788  0.00  0.00    +0.000 OA
ATOM     23  H   UNL     1       6.740   1.961  11.029  0.00  0.00    +0.000 HD
ENDBRANCH  21  22
ENDBRANCH  14  21
ENDBRANCH   1  17
TORSDOF 4
ENDMDL
MODEL 3
REMARK VINA RESULT:      -7.6      1.671      2.854
REMARK  Name = 
REMARK  4 active torsions:
REMARK  status: ('A' for Active; 'I' for Inactive)
REMARK    1  A    between atoms: C_2  and  O_3
REMARK    2  A    between atoms: C_2  and  C_4
REMARK    3  A    between atoms: C_7  and  S_8
REMARK    4  A    between atoms: S_8  and  N_11
REMARK                            x       y       z     vdW  Elec       q    Type
REMARK                         _______ _______ _______ _____ _____    ______ ____
ROOT
ATOM      1  S   UNL     1       7.017   5.869  17.178  0.00  0.00    +0.000 S 
ATOM      2  O   UNL     1       7.825   5.045  18.057  0.00  0.00    +0.000 OA
ATOM      3  O   UNL     1       7.477   7.163  16.727  0.00  0.00    +0.000 OA
ENDROOT
BRANCH   1   4
ATOM      4  N   UNL     1       5.523   6.057  17.888  0.00  0.00    +0.000 NA
ATOM      5  C   UNL     1       5.307   5.652  19.288  0.00  0.00    +0.000 C 
ATOM      6  C   UNL     1       3.899   5.063  19.414  0.00  0.00    +0.000 C 
ATOM      7  C   UNL     1       2.987   6.249  19.227  0.00  0.00    +0.000 A 
ATOM      8  C   UNL     1       2.057   6.603  20.204  0.00  0.00    +0.000 A 
ATOM      9  C   UNL     1       1.461   7.856  20.149  0.00  0.00    +0.000 A 
ATOM     10  C   UNL     1       1.755   8.727  19.097  0.00  0.00    +0.000 A 
ATOM     11  C   UNL     1       2.637   8.348  18.078  0.00  0.00    +0.000 A 
ATOM     12  C   UNL     1       3.282   7.113  18.148  0.00  0.00    +0.000 A 
ATOM     13  C   UNL     1       4.382   6.689  17.181  0.00  0.00    +0.000 C 
ENDBRANCH   1   4
BRANCH   1  17
ATOM     14  C   UNL     1       5.988   3.661  13.293  0.00  0.00    +0.000 A 
ATOM     15  C   UNL     1       5.248   3.417  14.460  0.00  0.00    +0.000 A 
ATOM     16  C   UNL     1       5.591   4.047  15.662  0.00  0.00    +0.000 A 
ATOM     17  C   UNL     1       6.693   4.911  15.701  0.00  0.00    +0.000 A 
ATOM     18  C   UNL     1       7.427   5.171  14.539  0.00  0.00    +0.000 A 
ATOM     19  C   UNL     1       7.070   4.553  13.334  0.00  0.00    +0.000 A 
BRANCH  14  21
ATOM     20  O   UNL     1       4.486   3.287  11.484  0.00  0.00    +0.000 OA
ATOM     21  C   UNL     1       5.552   3.018  12.019  0.00  0.00    +0.000 C 
BRANCH  21  22
ATOM     22  O   UNL     1       6.395   2.076  11.570  0.00  0.00    +0.000 OA
ATOM     23  H   UNL     1       7.278   2.390  11.316  0.00  0.00    +0.000 HD
ENDBRANCH  21  22
ENDBRANCH  14  21
ENDBRANCH   1  17
TORSDOF 4
ENDMDL
MODEL 4
REMARK VINA RESULT:      -7.6      1.346      2.319
REMARK  Name = 
REMARK  4 active torsions:
REMARK  status: ('A' for Active; 'I' for Inactive)
REMARK    1  A    between atoms: C_2  and  O_3
REMARK    2  A    between atoms: C_2  and  C_4
REMARK    3  A    between atoms: C_7  and  S_8
REMARK    4  A    between atoms: S_8  and  N_11
REMARK                            x       y       z     vdW  Elec       q    Type
REMARK                         _______ _______ _______ _____ _____    ______ ____
ROOT
ATOM      1  S   UNL     1       6.781   5.962  17.000  0.00  0.00    +0.000 S 
ATOM      2  O   UNL     1       7.786   5.165  17.678  0.00  0.00    +0.000 OA
ATOM      3  O   UNL     1       7.004   7.359  16.702  0.00  0.00    +0.000 OA
ENDROOT
BRANCH   1   4
ATOM      4  N   UNL     1       5.361   5.825  17.857  0.00  0.00    +0.000 NA
ATOM      5  C   UNL     1       5.302   4.999  19.076  0.00  0.00    +0.000 C 
ATOM      6  C   UNL     1       3.937   4.308  19.132  0.00  0.00    +0.000 C 
ATOM      7  C   UNL     1       2.967   5.430  19.400  0.00  0.00    +0.000 A 
ATOM      8  C   UNL     1       2.128   5.407  20.513  0.00  0.00    +0.000 A 
ATOM      9  C   UNL     1       1.484   6.575  20.901  0.00  0.00    +0.000 A 
ATOM     10  C   UNL     1       1.637   7.743  20.149  0.00  0.00    +0.000 A 
ATOM     11  C   UNL     1       2.426   7.753  18.993  0.00  0.00    +0.000 A 
ATOM     12  C   UNL     1       3.120   6.601  18.621  0.00  0.00    +0.000 A 
ATOM     13  C   UNL     1       4.132   6.566  17.480  0.00  0.00    +0.000 C 
ENDBRANCH   1   4
BRANCH   1  17
ATOM     14  C   UNL     1       6.051   3.649  13.109  0.00  0.00    +0.000 A 
ATOM     15  C   UNL     1       7.188   4.459  13.245  0.00  0.00    +0.000 A 
ATOM     16  C   UNL     1       7.389   5.210  14.409  0.00  0.00    +0.000 A 
ATOM     17  C   UNL     1       6.438   5.165  15.435  0.00  0.00    +0.000 A 
ATOM     18  C   UNL     1       5.308   4.348  15.314  0.00  0.00    +0.000 A 
ATOM     19  C   UNL     1       5.119   3.584  14.156  0.00  0.00    +0.000 A 
BRANCH  14  21
ATOM     20  O   UNL     1       4.825   2.641  11.335  0.00  0.00    +0.000 OA
ATOM     21  C   UNL     1       5.905   2.816  11.880  0.00  0.00    +0.000 C 
BRANCH  21  22
ATOM     22  O   UNL     1       7.044   2.225  11.486  0.00  0.00    +0.000 OA
ATOM     23  H   UNL     1       7.594   2.741  10.874  0.00  0.00    +0.000 HD
ENDBRANCH  21  22
ENDBRANCH  14  21
ENDBRANCH   1  17
TORSDOF 4
ENDMDL
MODEL 5
REMARK VINA RESULT:      -7.4      2.765      7.138
REMARK  Name = 
REMARK  4 active torsions:
REMARK  status: ('A' for Active; 'I' for Inactive)
REMARK    1  A    between atoms: C_2  and  O_3
REMARK    2  A    between atoms: C_2  and  C_4
REMARK    3  A    between atoms: C_7  and  S_8
REMARK    4  A    between atoms: S_8  and  N_11
REMARK                            x       y       z     vdW  Elec       q    Type
REMARK                         _______ _______ _______ _____ _____    ______ ____
ROOT
ATOM      1  S   UNL     1       4.531   3.591  18.395  0.00  0.00    +0.000 S 
ATOM      2  O   UNL     1       5.561   3.436  19.404  0.00  0.00    +0.000 OA
ATOM      3  O   UNL     1       3.641   2.504  18.056  0.00  0.00    +0.000 OA
ENDROOT
BRANCH   1   4
ATOM      4  N   UNL     1       5.262   4.131  17.000  0.00  0.00    +0.000 NA
ATOM      5  C   UNL     1       6.696   4.470  16.994  0.00  0.00    +0.000 C 
ATOM      6  C   UNL     1       6.906   5.680  16.080  0.00  0.00    +0.000 C 
ATOM      7  C   UNL     1       6.647   5.145  14.695  0.00  0.00    +0.000 A 
ATOM      8  C   UNL     1       7.616   5.232  13.695  0.00  0.00    +0.000 A 
ATOM      9  C   UNL     1       7.474   4.466  12.545  0.00  0.00    +0.000 A 
ATOM     10  C   UNL     1       6.346   3.659  12.374  0.00  0.00    +0.000 A 
ATOM     11  C   UNL     1       5.339   3.620  13.347  0.00  0.00    +0.000 A 
ATOM     12  C   UNL     1       5.493   4.344  14.529  0.00  0.00    +0.000 A 
ATOM     13  C   UNL     1       4.535   4.229  15.710  0.00  0.00    +0.000 C 
ENDBRANCH   1   4
BRANCH   1  17
ATOM     14  C   UNL     1       2.110   7.188  19.888  0.00  0.00    +0.000 A 
ATOM     15  C   UNL     1       2.042   5.962  20.566  0.00  0.00    +0.000 A 
ATOM     16  C   UNL     1       2.735   4.845  20.084  0.00  0.00    +0.000 A 
ATOM     17  C   UNL     1       3.486   4.951  18.907  0.00  0.00    +0.000 A 
ATOM     18  C   UNL     1       3.572   6.175  18.234  0.00  0.00    +0.000 A 
ATOM     19  C   UNL     1       2.892   7.294  18.728  0.00  0.00    +0.000 A 
BRANCH  14  21
ATOM     20  O   UNL     1       0.903   9.237  19.769  0.00  0.00    +0.000 OA
ATOM     21  C   UNL     1       1.408   8.369  20.467  0.00  0.00    +0.000 C 
BRANCH  21  22
ATOM     22  O   UNL     1       1.453   8.425  21.807  0.00  0.00    +0.000 OA
ATOM     23  H   UNL     1       1.008   7.697  22.272  0.00  0.00    +0.000 HD
ENDBRANCH  21  22
ENDBRANCH  14  21
ENDBRANCH   1  17
TORSDOF 4
ENDMDL
MODEL 6
REMARK VINA RESULT:      -7.3      3.835      5.523
REMARK  Name = 
REMARK  4 active torsions:
REMARK  status: ('A' for Active; 'I' for Inactive)
REMARK    1  A    between atoms: C_2  and  O_3
REMARK    2  A    between atoms: C_2  and  C_4
REMARK    3  A    between atoms: C_7  and  S_8
REMARK    4  A    between atoms: S_8  and  N_11
REMARK                            x       y       z     vdW  Elec       q    Type
REMARK                         _______ _______ _______ _____ _____    ______ ____
ROOT
ATOM      1  S   UNL     1       2.180   5.019  19.743  0.00  0.00    +0.000 S 
ATOM      2  O   UNL     1       1.202   4.287  18.960  0.00  0.00    +0.000 OA
ATOM      3  O   UNL     1       2.340   4.780  21.160  0.00  0.00    +0.000 OA
ENDROOT
BRANCH   1   4
ATOM      4  N   UNL     1       1.907   6.644  19.508  0.00  0.00    +0.000 NA
ATOM      5  C   UNL     1       1.847   7.200  18.145  0.00  0.00    +0.000 C 
ATOM      6  C   UNL     1       2.488   8.591  18.158  0.00  0.00    +0.000 C 
ATOM      7  C   UNL     1       1.518   9.436  18.944  0.00  0.00    +0.000 A 
ATOM      8  C   UNL     1       0.950  10.583  18.391  0.00  0.00    +0.000 A 
ATOM      9  C   UNL     1      -0.157  11.154  19.006  0.00  0.00    +0.000 A 
ATOM     10  C   UNL     1      -0.657  10.613  20.193  0.00  0.00    +0.000 A 
ATOM     11  C   UNL     1      -0.047   9.501  20.786  0.00  0.00    +0.000 A 
ATOM     12  C   UNL     1       1.033   8.886  20.152  0.00  0.00    +0.000 A 
ATOM     13  C   UNL     1       1.648   7.576  20.633  0.00  0.00    +0.000 C 
ENDBRANCH   1   4
BRANCH   1  17
ATOM     14  C   UNL     1       6.244   4.544  17.674  0.00  0.00    +0.000 A 
ATOM     15  C   UNL     1       5.101   3.937  17.131  0.00  0.00    +0.000 A 
ATOM     16  C   UNL     1       3.868   4.032  17.788  0.00  0.00    +0.000 A 
ATOM     17  C   UNL     1       3.782   4.723  19.002  0.00  0.00    +0.000 A 
ATOM     18  C   UNL     1       4.914   5.345  19.541  0.00  0.00    +0.000 A 
ATOM     19  C   UNL     1       6.141   5.263  18.874  0.00  0.00    +0.000 A 
BRANCH  14  21
ATOM     20  O   UNL     1       7.602   4.786  15.733  0.00  0.00    +0.000 OA
ATOM     21  C   UNL     1       7.525   4.472  16.912  0.00  0.00    +0.000 C 
BRANCH  21  22
ATOM     22  O   UNL     1       8.547   3.962  17.616  0.00  0.00    +0.000 OA
ATOM     23  H   UNL     1       8.841   4.494  18.374  0.00  0.00    +0.000 HD
ENDBRANCH  21  22
ENDBRANCH  14  21
ENDBRANCH   1  17
TORSDOF 4
ENDMDL
MODEL 7
REMARK VINA RESULT:      -7.3      2.364      3.575
REMARK  Name = 
REMARK  4 active torsions:
REMARK  status: ('A' for Active; 'I' for Inactive)
REMARK    1  A    between atoms: C_2  and  O_3
REMARK    2  A    between atoms: C_2  and  C_4
REMARK    3  A    between atoms: C_7  and  S_8
REMARK    4  A    between atoms: S_8  and  N_11
REMARK                            x       y       z     vdW  Elec       q    Type
REMARK                         _______ _______ _______ _____ _____    ______ ____
ROOT
ATOM      1  S   UNL     1       4.548   3.631  18.405  0.00  0.00    +0.000 S 
ATOM      2  O   UNL     1       3.723   2.501  18.023  0.00  0.00    +0.000 OA
ATOM      3  O   UNL     1       5.566   3.509  19.423  0.00  0.00    +0.000 OA
ENDROOT
BRANCH   1   4
ATOM      4  N   UNL     1       3.534   4.884  18.820  0.00  0.00    +0.000 NA
ATOM      5  C   UNL     1       3.440   5.335  20.220  0.00  0.00    +0.000 C 
ATOM      6  C   UNL     1       1.988   5.725  20.511  0.00  0.00    +0.000 C 
ATOM      7  C   UNL     1       1.776   6.980  19.704  0.00  0.00    +0.000 A 
ATOM      8  C   UNL     1       1.375   8.169  20.312  0.00  0.00    +0.000 A 
ATOM      9  C   UNL     1       1.490   9.362  19.610  0.00  0.00    +0.000 A 
ATOM     10  C   UNL     1       1.955   9.359  18.292  0.00  0.00    +0.000 A 
ATOM     11  C   UNL     1       2.295   8.159  17.656  0.00  0.00    +0.000 A 
ATOM     12  C   UNL     1       2.233   6.959  18.366  0.00  0.00    +0.000 A 
ATOM     13  C   UNL     1       2.745   5.634  17.812  0.00  0.00    +0.000 C 
ENDBRANCH   1   4
BRANCH   1  17
ATOM     14  C   UNL     1       6.832   4.797  14.604  0.00  0.00    +0.000 A 
ATOM     15  C   UNL     1       7.367   5.093  15.867  0.00  0.00    +0.000 A 
ATOM     16  C   UNL     1       6.650   4.789  17.030  0.00  0.00    +0.000 A 
ATOM     17  C   UNL     1       5.383   4.202  16.928  0.00  0.00    +0.000 A 
ATOM     18  C   UNL     1       4.849   3.890  15.673  0.00  0.00    +0.000 A 
ATOM     19  C   UNL     1       5.576   4.180  14.513  0.00  0.00    +0.000 A 
BRANCH  14  21
ATOM     20  O   UNL     1       8.565   5.895  13.396  0.00  0.00    +0.000 OA
ATOM     21  C   UNL     1       7.654   5.080  13.392  0.00  0.00    +0.000 C 
BRANCH  21  22
ATOM     22  O   UNL     1       7.251   4.419  12.296  0.00  0.00    +0.000 OA
ATOM     23  H   UNL     1       7.492   4.827  11.448  0.00  0.00    +0.000 HD
ENDBRANCH  21  22
ENDBRANCH  14  21
ENDBRANCH   1  17
TORSDOF 4
ENDMDL
MODEL 8
REMARK VINA RESULT:      -7.3      2.550      6.987
REMARK  Name = 
REMARK  4 active torsions:
REMARK  status: ('A' for Active; 'I' for Inactive)
REMARK    1  A    between atoms: C_2  and  O_3
REMARK    2  A    between atoms: C_2  and  C_4
REMARK    3  A    between atoms: C_7  and  S_8
REMARK    4  A    between atoms: S_8  and  N_11
REMARK                            x       y       z     vdW  Elec       q    Type
REMARK                         _______ _______ _______ _____ _____    ______ ____
ROOT
ATOM      1  S   UNL     1       5.786   6.069  17.986  0.00  0.00    +0.000 S 
ATOM      2  O   UNL     1       5.280   7.393  17.675  0.00  0.00    +0.000 OA
ATOM      3  O   UNL     1       6.958   5.887  18.812  0.00  0.00    +0.000 OA
ENDROOT
BRANCH   1   4
ATOM      4  N   UNL     1       6.024   5.265  16.548  0.00  0.00    +0.000 NA
ATOM      5  C   UNL     1       4.887   4.641  15.847  0.00  0.00    +0.000 C 
ATOM      6  C   UNL     1       5.368   3.334  15.209  0.00  0.00    +0.000 C 
ATOM      7  C   UNL     1       6.284   3.782  14.099  0.00  0.00    +0.000 A 
ATOM      8  C   UNL     1       6.052   3.406  12.776  0.00  0.00    +0.000 A 
ATOM      9  C   UNL     1       6.714   4.076  11.755  0.00  0.00    +0.000 A 
ATOM     10  C   UNL     1       7.640   5.078  12.059  0.00  0.00    +0.000 A 
ATOM     11  C   UNL     1       7.925   5.412  13.388  0.00  0.00    +0.000 A 
ATOM     12  C   UNL     1       7.229   4.783  14.422  0.00  0.00    +0.000 A 
ATOM     13  C   UNL     1       7.349   5.200  15.884  0.00  0.00    +0.000 C 
ENDBRANCH   1   4
BRANCH   1  17
ATOM     14  C   UNL     1       2.527   3.856  20.331  0.00  0.00    +0.000 A 
ATOM     15  C   UNL     1       3.686   3.178  19.924  0.00  0.00    +0.000 A 
ATOM     16  C   UNL     1       4.659   3.834  19.161  0.00  0.00    +0.000 A 
ATOM     17  C   UNL     1       4.464   5.169  18.788  0.00  0.00    +0.000 A 
ATOM     18  C   UNL     1       3.318   5.856  19.203  0.00  0.00    +0.000 A 
ATOM     19  C   UNL     1       2.354   5.203  19.981  0.00  0.00    +0.000 A 
BRANCH  14  21
ATOM     20  O   UNL     1       1.824   2.751  22.320  0.00  0.00    +0.000 OA
ATOM     21  C   UNL     1       1.543   3.141  21.195  0.00  0.00    +0.000 C 
BRANCH  21  22
ATOM     22  O   UNL     1       0.366   2.903  20.597  0.00  0.00    +0.000 OA
ATOM     23  H   UNL     1      -0.416   3.240  21.062  0.00  0.00    +0.000 HD
ENDBRANCH  21  22
ENDBRANCH  14  21
ENDBRANCH   1  17
TORSDOF 4
ENDMDL
MODEL 9
REMARK VINA RESULT:      -7.3      2.849      6.933
REMARK  Name = 
REMARK  4 active torsions:
REMARK  status: ('A' for Active; 'I' for Inactive)
REMARK    1  A    between atoms: C_2  and  O_3
REMARK    2  A    between atoms: C_2  and  C_4
REMARK    3  A    between atoms: C_7  and  S_8
REMARK    4  A    between atoms: S_8  and  N_11
REMARK                            x       y       z     vdW  Elec       q    Type
REMARK                         _______ _______ _______ _____ _____    ______ ____
ROOT
ATOM      1  S   UNL     1       4.839   4.133  18.252  0.00  0.00    +0.000 S 
ATOM      2  O   UNL     1       5.930   4.052  19.204  0.00  0.00    +0.000 OA
ATOM      3  O   UNL     1       3.859   3.077  18.140  0.00  0.00    +0.000 OA
ENDROOT
BRANCH   1   4
ATOM      4  N   UNL     1       5.496   4.406  16.747  0.00  0.00    +0.000 NA
ATOM      5  C   UNL     1       6.956   4.526  16.583  0.00  0.00    +0.000 C 
ATOM      6  C   UNL     1       7.240   5.587  15.516  0.00  0.00    +0.000 C 
ATOM      7  C   UNL     1       6.775   4.951  14.231  0.00  0.00    +0.000 A 
ATOM      8  C   UNL     1       7.643   4.787  13.152  0.00  0.00    +0.000 A 
ATOM      9  C   UNL     1       7.285   3.931  12.118  0.00  0.00    +0.000 A 
ATOM     10  C   UNL     1       6.045   3.286  12.139  0.00  0.00    +0.000 A 
ATOM     11  C   UNL     1       5.144   3.501  13.188  0.00  0.00    +0.000 A 
ATOM     12  C   UNL     1       5.511   4.317  14.258  0.00  0.00    +0.000 A 
ATOM     13  C   UNL     1       4.668   4.472  15.519  0.00  0.00    +0.000 C 
ENDBRANCH   1   4
BRANCH   1  17
ATOM     14  C   UNL     1       2.242   7.833  19.023  0.00  0.00    +0.000 A 
ATOM     15  C   UNL     1       3.106   7.796  17.919  0.00  0.00    +0.000 A 
ATOM     16  C   UNL     1       3.941   6.692  17.708  0.00  0.00    +0.000 A 
ATOM     17  C   UNL     1       3.925   5.628  18.618  0.00  0.00    +0.000 A 
ATOM     18  C   UNL     1       3.055   5.651  19.714  0.00  0.00    +0.000 A 
ATOM     19  C   UNL     1       2.209   6.748  19.912  0.00  0.00    +0.000 A 
BRANCH  14  21
ATOM     20  O   UNL     1       1.127   9.798  18.274  0.00  0.00    +0.000 OA
ATOM     21  C   UNL     1       1.324   8.998  19.178  0.00  0.00    +0.000 C 
BRANCH  21  22
ATOM     22  O   UNL     1       0.807   9.123  20.410  0.00  0.00    +0.000 OA
ATOM     23  H   UNL     1       1.449   9.291  21.118  0.00  0.00    +0.000 HD
ENDBRANCH  21  22
ENDBRANCH  14  21
ENDBRANCH   1  17
TORSDOF 4
ENDMDL
