MODEL 1
REMARK VINA RESULT:      -8.2      0.000      0.000
REMARK  Name = 
REMARK  4 active torsions:
REMARK  status: ('A' for Active; 'I' for Inactive)
REMARK    1  A    between atoms: C_1  and  C_2
REMARK    2  A    between atoms: C_5  and  C_6
REMARK    3  A    between atoms: C_8  and  C_9
REMARK    4  A    between atoms: C_15  and  C_16
REMARK                            x       y       z     vdW  Elec       q    Type
REMARK                         _______ _______ _______ _____ _____    ______ ____
ROOT
ATOM      1  C   UNL     1       2.386   6.434  19.663  0.00  0.00    +0.000 A 
ATOM      2  C   UNL     1       3.404   6.184  18.744  0.00  0.00    +0.000 A 
ATOM      3  C   UNL     1       3.883   4.877  18.516  0.00  0.00    +0.000 A 
ATOM      4  C   UNL     1       3.288   3.843  19.274  0.00  0.00    +0.000 A 
ATOM      5  C   UNL     1       2.309   4.181  20.209  0.00  0.00    +0.000 A 
ATOM      6 BR   UNL     1       1.492   2.871  21.337  0.00  0.00    +0.000 Br
ATOM      7  N   UNL     1       1.858   5.440  20.409  0.00  0.00    +0.000 NA
ENDROOT
BRANCH   1  12
ATOM      8  C   UNL     1       0.097  11.715  20.494  0.00  0.00    +0.000 C 
ATOM      9  C   UNL     1       0.702  10.356  20.296  0.00  0.00    +0.000 A 
ATOM     10  C   UNL     1       0.789   9.448  21.352  0.00  0.00    +0.000 A 
ATOM     11  C   UNL     1       1.346   8.179  21.152  0.00  0.00    +0.000 A 
ATOM     12  C   UNL     1       1.824   7.778  19.891  0.00  0.00    +0.000 A 
ATOM     13  C   UNL     1       1.752   8.716  18.847  0.00  0.00    +0.000 A 
ATOM     14  C   UNL     1       1.195   9.986  19.043  0.00  0.00    +0.000 A 
ENDBRANCH   1  12
BRANCH   3  15
ATOM     15  C   UNL     1       4.946   4.659  17.488  0.00  0.00    +0.000 A 
ATOM     16  C   UNL     1       4.644   4.375  16.144  0.00  0.00    +0.000 A 
ATOM     17  C   UNL     1       5.641   4.292  15.165  0.00  0.00    +0.000 A 
ATOM     18  C   UNL     1       6.978   4.415  15.519  0.00  0.00    +0.000 A 
ATOM     19  C   UNL     1       7.317   4.611  16.852  0.00  0.00    +0.000 A 
ATOM     20  C   UNL     1       6.313   4.742  17.821  0.00  0.00    +0.000 A 
ENDBRANCH   3  15
BRANCH   4  21
ATOM     21  C   UNL     1       3.635   2.465  19.099  0.00  0.00    +0.000 C 
ATOM     22  N   UNL     1       3.904   1.345  18.931  0.00  0.00    +0.000 NA
ENDBRANCH   4  21
TORSDOF 3
ENDMDL
MODEL 2
REMARK VINA RESULT:      -8.2      0.077      1.027
REMARK  Name = 
REMARK  4 active torsions:
REMARK  status: ('A' for Active; 'I' for Inactive)
REMARK    1  A    between atoms: C_1  and  C_2
REMARK    2  A    between atoms: C_5  and  C_6
REMARK    3  A    between atoms: C_8  and  C_9
REMARK    4  A    between atoms: C_15  and  C_16
REMARK                            x       y       z     vdW  Elec       q    Type
REMARK                         _______ _______ _______ _____ _____    ______ ____
ROOT
ATOM      1  C   UNL     1       2.355   6.452  19.687  0.00  0.00    +0.000 A 
ATOM      2  C   UNL     1       3.381   6.213  18.774  0.00  0.00    +0.000 A 
ATOM      3  C   UNL     1       3.871   4.910  18.543  0.00  0.00    +0.000 A 
ATOM      4  C   UNL     1       3.275   3.868  19.290  0.00  0.00    +0.000 A 
ATOM      5  C   UNL     1       2.287   4.196  20.220  0.00  0.00    +0.000 A 
ATOM      6 BR   UNL     1       1.469   2.875  21.334  0.00  0.00    +0.000 Br
ATOM      7  N   UNL     1       1.827   5.451  20.423  0.00  0.00    +0.000 NA
ENDROOT
BRANCH   1  12
ATOM      8  C   UNL     1       0.172  11.752  20.664  0.00  0.00    +0.000 C 
ATOM      9  C   UNL     1       0.721  10.382  20.396  0.00  0.00    +0.000 A 
ATOM     10  C   UNL     1       1.160  10.021  19.122  0.00  0.00    +0.000 A 
ATOM     11  C   UNL     1       1.680   8.743  18.887  0.00  0.00    +0.000 A 
ATOM     12  C   UNL     1       1.783   7.792  19.918  0.00  0.00    +0.000 A 
ATOM     13  C   UNL     1       1.310   8.165  21.188  0.00  0.00    +0.000 A 
ATOM     14  C   UNL     1       0.790   9.442  21.427  0.00  0.00    +0.000 A 
ENDBRANCH   1  12
BRANCH   3  15
ATOM     15  C   UNL     1       4.942   4.704  17.522  0.00  0.00    +0.000 A 
ATOM     16  C   UNL     1       4.653   4.476  16.164  0.00  0.00    +0.000 A 
ATOM     17  C   UNL     1       5.661   4.404  15.197  0.00  0.00    +0.000 A 
ATOM     18  C   UNL     1       6.996   4.483  15.573  0.00  0.00    +0.000 A 
ATOM     19  C   UNL     1       7.320   4.622  16.917  0.00  0.00    +0.000 A 
ATOM     20  C   UNL     1       6.306   4.743  17.875  0.00  0.00    +0.000 A 
ENDBRANCH   3  15
BRANCH   4  21
ATOM     21  C   UNL     1       3.632   2.494  19.110  0.00  0.00    +0.000 C 
ATOM     22  N   UNL     1       3.903   1.374  18.942  0.00  0.00    +0.000 NA
ENDBRANCH   4  21
TORSDOF 3
ENDMDL
MODEL 3
REMARK VINA RESULT:      -8.2      0.206      1.042
REMARK  Name = 
REMARK  4 active torsions:
REMARK  status: ('A' for Active; 'I' for Inactive)
REMARK    1  A    between atoms: C_1  and  C_2
REMARK    2  A    between atoms: C_5  and  C_6
REMARK    3  A    between atoms: C_8  and  C_9
REMARK    4  A    between atoms: C_15  and  C_16
REMARK                            x       y       z     vdW  Elec       q    Type
REMARK                         _______ _______ _______ _____ _____    ______ ____
ROOT
ATOM      1  C   UNL     1       2.333   6.466  19.791  0.00  0.00    +0.000 A 
ATOM      2  C   UNL     1       3.381   6.272  18.892  0.00  0.00    +0.000 A 
ATOM      3  C   UNL     1       3.910   4.987  18.647  0.00  0.00    +0.000 A 
ATOM      4  C   UNL     1       3.331   3.916  19.366  0.00  0.00    +0.000 A 
ATOM      5  C   UNL     1       2.318   4.200  20.284  0.00  0.00    +0.000 A 
ATOM      6 BR   UNL     1       1.518   2.838  21.361  0.00  0.00    +0.000 Br
ATOM      7  N   UNL     1       1.820   5.438  20.500  0.00  0.00    +0.000 NA
ENDROOT
BRANCH   1  12
ATOM      8  C   UNL     1      -0.152  11.648  20.681  0.00  0.00    +0.000 C 
ATOM      9  C   UNL     1       0.503  10.315  20.468  0.00  0.00    +0.000 A 
ATOM     10  C   UNL     1       0.578   9.379  21.500  0.00  0.00    +0.000 A 
ATOM     11  C   UNL     1       1.183   8.135  21.286  0.00  0.00    +0.000 A 
ATOM     12  C   UNL     1       1.720   7.786  20.035  0.00  0.00    +0.000 A 
ATOM     13  C   UNL     1       1.658   8.751  19.015  0.00  0.00    +0.000 A 
ATOM     14  C   UNL     1       1.055   9.997  19.225  0.00  0.00    +0.000 A 
ENDBRANCH   1  12
BRANCH   3  15
ATOM     15  C   UNL     1       5.004   4.829  17.642  0.00  0.00    +0.000 A 
ATOM     16  C   UNL     1       6.364   4.867  17.999  0.00  0.00    +0.000 A 
ATOM     17  C   UNL     1       7.377   4.598  17.072  0.00  0.00    +0.000 A 
ATOM     18  C   UNL     1       7.061   4.357  15.742  0.00  0.00    +0.000 A 
ATOM     19  C   UNL     1       5.732   4.397  15.337  0.00  0.00    +0.000 A 
ATOM     20  C   UNL     1       4.718   4.618  16.277  0.00  0.00    +0.000 A 
ENDBRANCH   3  15
BRANCH   4  21
ATOM     21  C   UNL     1       3.729   2.555  19.169  0.00  0.00    +0.000 C 
ATOM     22  N   UNL     1       4.030   1.440  19.025  0.00  0.00    +0.000 NA
ENDBRANCH   4  21
TORSDOF 3
ENDMDL
MODEL 4
REMARK VINA RESULT:      -8.1      0.176      1.458
REMARK  Name = 
REMARK  4 active torsions:
REMARK  status: ('A' for Active; 'I' for Inactive)
REMARK    1  A    between atoms: C_1  and  C_2
REMARK    2  A    between atoms: C_5  and  C_6
REMARK    3  A    between atoms: C_8  and  C_9
REMARK    4  A    between atoms: C_15  and  C_16
REMARK                            x       y       z     vdW  Elec       q    Type
REMARK                         _______ _______ _______ _____ _____    ______ ____
ROOT
ATOM      1  C   UNL     1       2.331   6.504  19.754  0.00  0.00    +0.000 A 
ATOM      2  C   UNL     1       3.379   6.293  18.858  0.00  0.00    +0.000 A 
ATOM      3  C   UNL     1       3.888   5.000  18.616  0.00  0.00    +0.000 A 
ATOM      4  C   UNL     1       3.290   3.938  19.333  0.00  0.00    +0.000 A 
ATOM      5  C   UNL     1       2.279   4.238  20.247  0.00  0.00    +0.000 A 
ATOM      6 BR   UNL     1       1.454   2.890  21.322  0.00  0.00    +0.000 Br
ATOM      7  N   UNL     1       1.800   5.485  20.461  0.00  0.00    +0.000 NA
ENDROOT
BRANCH   1  12
ATOM      8  C   UNL     1       0.066  11.762  20.773  0.00  0.00    +0.000 C 
ATOM      9  C   UNL     1       0.636  10.403  20.494  0.00  0.00    +0.000 A 
ATOM     10  C   UNL     1       1.101  10.066  19.222  0.00  0.00    +0.000 A 
ATOM     11  C   UNL     1       1.640   8.798  18.976  0.00  0.00    +0.000 A 
ATOM     12  C   UNL     1       1.739   7.833  19.995  0.00  0.00    +0.000 A 
ATOM     13  C   UNL     1       1.241   8.181  21.262  0.00  0.00    +0.000 A 
ATOM     14  C   UNL     1       0.702   9.449  21.512  0.00  0.00    +0.000 A 
ENDBRANCH   1  12
BRANCH   3  15
ATOM     15  C   UNL     1       4.983   4.823  17.614  0.00  0.00    +0.000 A 
ATOM     16  C   UNL     1       6.343   4.887  17.968  0.00  0.00    +0.000 A 
ATOM     17  C   UNL     1       7.358   4.601  17.048  0.00  0.00    +0.000 A 
ATOM     18  C   UNL     1       7.044   4.318  15.726  0.00  0.00    +0.000 A 
ATOM     19  C   UNL     1       5.714   4.332  15.322  0.00  0.00    +0.000 A 
ATOM     20  C   UNL     1       4.698   4.570  16.256  0.00  0.00    +0.000 A 
ENDBRANCH   3  15
BRANCH   4  21
ATOM     21  C   UNL     1       3.667   2.571  19.138  0.00  0.00    +0.000 C 
ATOM     22  N   UNL     1       3.970   1.463  18.950  0.00  0.00    +0.000 NA
ENDBRANCH   4  21
TORSDOF 3
ENDMDL
MODEL 5
REMARK VINA RESULT:      -6.8      2.739      4.389
REMARK  Name = 
REMARK  4 active torsions:
REMARK  status: ('A' for Active; 'I' for Inactive)
REMARK    1  A    between atoms: C_1  and  C_2
REMARK    2  A    between atoms: C_5  and  C_6
REMARK    3  A    between atoms: C_8  and  C_9
REMARK    4  A    between atoms: C_15  and  C_16
REMARK                            x       y       z     vdW  Elec       q    Type
REMARK                         _______ _______ _______ _____ _____    ______ ____
ROOT
ATOM      1  C   UNL     1       2.252   8.290  18.147  0.00  0.00    +0.000 A 
ATOM      2  C   UNL     1       1.851   7.195  18.911  0.00  0.00    +0.000 A 
ATOM      3  C   UNL     1       2.483   5.940  18.785  0.00  0.00    +0.000 A 
ATOM      4  C   UNL     1       3.531   5.851  17.840  0.00  0.00    +0.000 A 
ATOM      5  C   UNL     1       3.840   6.979  17.080  0.00  0.00    +0.000 A 
ATOM      6 BR   UNL     1       5.188   6.947  15.724  0.00  0.00    +0.000 Br
ATOM      7  N   UNL     1       3.226   8.176  17.220  0.00  0.00    +0.000 NA
ENDROOT
BRANCH   1  12
ATOM      8  C   UNL     1      -0.147  13.547  18.796  0.00  0.00    +0.000 C 
ATOM      9  C   UNL     1       0.479  12.196  18.609  0.00  0.00    +0.000 A 
ATOM     10  C   UNL     1       1.838  12.069  18.320  0.00  0.00    +0.000 A 
ATOM     11  C   UNL     1       2.413  10.803  18.157  0.00  0.00    +0.000 A 
ATOM     12  C   UNL     1       1.650   9.629  18.288  0.00  0.00    +0.000 A 
ATOM     13  C   UNL     1       0.278   9.778  18.553  0.00  0.00    +0.000 A 
ATOM     14  C   UNL     1      -0.301  11.043  18.716  0.00  0.00    +0.000 A 
ENDBRANCH   1  12
BRANCH   3  15
ATOM     15  C   UNL     1       2.043   4.811  19.659  0.00  0.00    +0.000 A 
ATOM     16  C   UNL     1       1.161   3.811  19.209  0.00  0.00    +0.000 A 
ATOM     17  C   UNL     1       0.850   2.695  19.993  0.00  0.00    +0.000 A 
ATOM     18  C   UNL     1       1.353   2.584  21.282  0.00  0.00    +0.000 A 
ATOM     19  C   UNL     1       2.159   3.596  21.790  0.00  0.00    +0.000 A 
ATOM     20  C   UNL     1       2.507   4.688  20.985  0.00  0.00    +0.000 A 
ENDBRANCH   3  15
BRANCH   4  21
ATOM     21  C   UNL     1       4.298   4.656  17.654  0.00  0.00    +0.000 C 
ATOM     22  N   UNL     1       4.905   3.679  17.480  0.00  0.00    +0.000 NA
ENDBRANCH   4  21
TORSDOF 3
ENDMDL
MODEL 6
REMARK VINA RESULT:      -6.8      2.719      4.332
REMARK  Name = 
REMARK  4 active torsions:
REMARK  status: ('A' for Active; 'I' for Inactive)
REMARK    1  A    between atoms: C_1  and  C_2
REMARK    2  A    between atoms: C_5  and  C_6
REMARK    3  A    between atoms: C_8  and  C_9
REMARK    4  A    between atoms: C_15  and  C_16
REMARK                            x       y       z     vdW  Elec       q    Type
REMARK                         _______ _______ _______ _____ _____    ______ ____
ROOT
ATOM      1  C   UNL     1       2.260   8.295  18.182  0.00  0.00    +0.000 A 
ATOM      2  C   UNL     1       1.858   7.192  18.935  0.00  0.00    +0.000 A 
ATOM      3  C   UNL     1       2.486   5.937  18.792  0.00  0.00    +0.000 A 
ATOM      4  C   UNL     1       3.529   5.855  17.842  0.00  0.00    +0.000 A 
ATOM      5  C   UNL     1       3.839   6.991  17.092  0.00  0.00    +0.000 A 
ATOM      6 BR   UNL     1       5.180   6.970  15.731  0.00  0.00    +0.000 Br
ATOM      7  N   UNL     1       3.229   8.188  17.248  0.00  0.00    +0.000 NA
ENDROOT
BRANCH   1  12
ATOM      8  C   UNL     1      -0.075  13.594  18.708  0.00  0.00    +0.000 C 
ATOM      9  C   UNL     1       0.522  12.223  18.593  0.00  0.00    +0.000 A 
ATOM     10  C   UNL     1      -0.244  11.084  18.845  0.00  0.00    +0.000 A 
ATOM     11  C   UNL     1       0.322   9.809  18.724  0.00  0.00    +0.000 A 
ATOM     12  C   UNL     1       1.663   9.634  18.340  0.00  0.00    +0.000 A 
ATOM     13  C   UNL     1       2.425  10.794  18.116  0.00  0.00    +0.000 A 
ATOM     14  C   UNL     1       1.863  12.071  18.235  0.00  0.00    +0.000 A 
ENDBRANCH   1  12
BRANCH   3  15
ATOM     15  C   UNL     1       2.046   4.799  19.655  0.00  0.00    +0.000 A 
ATOM     16  C   UNL     1       1.170   3.800  19.193  0.00  0.00    +0.000 A 
ATOM     17  C   UNL     1       0.859   2.677  19.967  0.00  0.00    +0.000 A 
ATOM     18  C   UNL     1       1.357   2.558  21.258  0.00  0.00    +0.000 A 
ATOM     19  C   UNL     1       2.156   3.569  21.778  0.00  0.00    +0.000 A 
ATOM     20  C   UNL     1       2.504   4.669  20.982  0.00  0.00    +0.000 A 
ENDBRANCH   3  15
BRANCH   4  21
ATOM     21  C   UNL     1       4.291   4.660  17.639  0.00  0.00    +0.000 C 
ATOM     22  N   UNL     1       4.894   3.682  17.451  0.00  0.00    +0.000 NA
ENDBRANCH   4  21
TORSDOF 3
ENDMDL
MODEL 7
REMARK VINA RESULT:      -6.7      2.744      4.494
REMARK  Name = 
REMARK  4 active torsions:
REMARK  status: ('A' for Active; 'I' for Inactive)
REMARK    1  A    between atoms: C_1  and  C_2
REMARK    2  A    between atoms: C_5  and  C_6
REMARK    3  A    between atoms: C_8  and  C_9
REMARK    4  A    between atoms: C_15  and  C_16
REMARK                            x       y       z     vdW  Elec       q    Type
REMARK                         _______ _______ _______ _____ _____    ______ ____
ROOT
ATOM      1  C   UNL     1       2.277   8.248  18.121  0.00  0.00    +0.000 A 
ATOM      2  C   UNL     1       1.903   7.139  18.878  0.00  0.00    +0.000 A 
ATOM      3  C   UNL     1       2.559   5.898  18.738  0.00  0.00    +0.000 A 
ATOM      4  C   UNL     1       3.603   5.838  17.786  0.00  0.00    +0.000 A 
ATOM      5  C   UNL     1       3.885   6.979  17.034  0.00  0.00    +0.000 A 
ATOM      6 BR   UNL     1       5.225   6.985  15.670  0.00  0.00    +0.000 Br
ATOM      7  N   UNL     1       3.248   8.162  17.187  0.00  0.00    +0.000 NA
ENDROOT
BRANCH   1  12
ATOM      8  C   UNL     1      -0.226  13.449  18.827  0.00  0.00    +0.000 C 
ATOM      9  C   UNL     1       0.428  12.114  18.626  0.00  0.00    +0.000 A 
ATOM     10  C   UNL     1       1.800  12.015  18.390  0.00  0.00    +0.000 A 
ATOM     11  C   UNL     1       2.399  10.762  18.214  0.00  0.00    +0.000 A 
ATOM     12  C   UNL     1       1.650   9.574  18.277  0.00  0.00    +0.000 A 
ATOM     13  C   UNL     1       0.266   9.696  18.488  0.00  0.00    +0.000 A 
ATOM     14  C   UNL     1      -0.338  10.947  18.665  0.00  0.00    +0.000 A 
ENDBRANCH   1  12
BRANCH   3  15
ATOM     15  C   UNL     1       2.147   4.753  19.604  0.00  0.00    +0.000 A 
ATOM     16  C   UNL     1       2.648   4.577  20.907  0.00  0.00    +0.000 A 
ATOM     17  C   UNL     1       2.167   3.572  21.753  0.00  0.00    +0.000 A 
ATOM     18  C   UNL     1       1.222   2.665  21.293  0.00  0.00    +0.000 A 
ATOM     19  C   UNL     1       0.768   2.757  19.983  0.00  0.00    +0.000 A 
ATOM     20  C   UNL     1       1.216   3.794  19.155  0.00  0.00    +0.000 A 
ENDBRANCH   3  15
BRANCH   4  21
ATOM     21  C   UNL     1       4.392   4.660  17.586  0.00  0.00    +0.000 C 
ATOM     22  N   UNL     1       5.041   3.704  17.451  0.00  0.00    +0.000 NA
ENDBRANCH   4  21
TORSDOF 3
ENDMDL
MODEL 8
REMARK VINA RESULT:      -6.6      2.684      4.422
REMARK  Name = 
REMARK  4 active torsions:
REMARK  status: ('A' for Active; 'I' for Inactive)
REMARK    1  A    between atoms: C_1  and  C_2
REMARK    2  A    between atoms: C_5  and  C_6
REMARK    3  A    between atoms: C_8  and  C_9
REMARK    4  A    between atoms: C_15  and  C_16
REMARK                            x       y       z     vdW  Elec       q    Type
REMARK                         _______ _______ _______ _____ _____    ______ ____
ROOT
ATOM      1  C   UNL     1       2.288   8.234  18.227  0.00  0.00    +0.000 A 
ATOM      2  C   UNL     1       1.919   7.119  18.978  0.00  0.00    +0.000 A 
ATOM      3  C   UNL     1       2.555   5.872  18.802  0.00  0.00    +0.000 A 
ATOM      4  C   UNL     1       3.573   5.812  17.821  0.00  0.00    +0.000 A 
ATOM      5  C   UNL     1       3.849   6.960  17.078  0.00  0.00    +0.000 A 
ATOM      6 BR   UNL     1       5.152   6.970  15.679  0.00  0.00    +0.000 Br
ATOM      7  N   UNL     1       3.232   8.149  17.266  0.00  0.00    +0.000 NA
ENDROOT
BRANCH   1  12
ATOM      8  C   UNL     1      -0.091  13.499  18.883  0.00  0.00    +0.000 C 
ATOM      9  C   UNL     1       0.519  12.137  18.734  0.00  0.00    +0.000 A 
ATOM     10  C   UNL     1      -0.196  10.989  19.078  0.00  0.00    +0.000 A 
ATOM     11  C   UNL     1       0.381   9.722  18.925  0.00  0.00    +0.000 A 
ATOM     12  C   UNL     1       1.683   9.565  18.418  0.00  0.00    +0.000 A 
ATOM     13  C   UNL     1       2.397  10.734  18.103  0.00  0.00    +0.000 A 
ATOM     14  C   UNL     1       1.824  12.003  18.254  0.00  0.00    +0.000 A 
ENDBRANCH   1  12
BRANCH   3  15
ATOM     15  C   UNL     1       2.152   4.719  19.663  0.00  0.00    +0.000 A 
ATOM     16  C   UNL     1       2.687   4.517  20.948  0.00  0.00    +0.000 A 
ATOM     17  C   UNL     1       2.216   3.506  21.792  0.00  0.00    +0.000 A 
ATOM     18  C   UNL     1       1.246   2.619  21.346  0.00  0.00    +0.000 A 
ATOM     19  C   UNL     1       0.756   2.736  20.051  0.00  0.00    +0.000 A 
ATOM     20  C   UNL     1       1.195   3.780  19.226  0.00  0.00    +0.000 A 
ENDBRANCH   3  15
BRANCH   4  21
ATOM     21  C   UNL     1       4.341   4.628  17.583  0.00  0.00    +0.000 C 
ATOM     22  N   UNL     1       4.941   3.649  17.390  0.00  0.00    +0.000 NA
ENDBRANCH   4  21
TORSDOF 3
ENDMDL
MODEL 9
REMARK VINA RESULT:      -6.2      1.639      6.822
REMARK  Name = 
REMARK  4 active torsions:
REMARK  status: ('A' for Active; 'I' for Inactive)
REMARK    1  A    between atoms: C_1  and  C_2
REMARK    2  A    between atoms: C_5  and  C_6
REMARK    3  A    between atoms: C_8  and  C_9
REMARK    4  A    between atoms: C_15  and  C_16
REMARK                            x       y       z     vdW  Elec       q    Type
REMARK                         _______ _______ _______ _____ _____    ______ ____
ROOT
ATOM      1  C   UNL     1       4.622   4.694  16.755  0.00  0.00    +0.000 A 
ATOM      2  C   UNL     1       3.917   5.838  17.130  0.00  0.00    +0.000 A 
ATOM      3  C   UNL     1       3.221   5.903  18.355  0.00  0.00    +0.000 A 
ATOM      4  C   UNL     1       3.267   4.749  19.172  0.00  0.00    +0.000 A 
ATOM      5  C   UNL     1       3.953   3.628  18.703  0.00  0.00    +0.000 A 
ATOM      6 BR   UNL     1       4.016   1.994  19.693  0.00  0.00    +0.000 Br
ATOM      7  N   UNL     1       4.620   3.587  17.528  0.00  0.00    +0.000 NA
ENDROOT
BRANCH   1  12
ATOM      8  C   UNL     1       7.629   4.400  11.787  0.00  0.00    +0.000 C 
ATOM      9  C   UNL     1       6.870   4.467  13.079  0.00  0.00    +0.000 A 
ATOM     10  C   UNL     1       7.400   5.125  14.190  0.00  0.00    +0.000 A 
ATOM     11  C   UNL     1       6.677   5.189  15.387  0.00  0.00    +0.000 A 
ATOM     12  C   UNL     1       5.403   4.607  15.507  0.00  0.00    +0.000 A 
ATOM     13  C   UNL     1       4.898   3.926  14.386  0.00  0.00    +0.000 A 
ATOM     14  C   UNL     1       5.617   3.860  13.187  0.00  0.00    +0.000 A 
ENDBRANCH   1  12
BRANCH   3  15
ATOM     15  C   UNL     1       2.518   7.167  18.728  0.00  0.00    +0.000 A 
ATOM     16  C   UNL     1       2.234   8.175  17.788  0.00  0.00    +0.000 A 
ATOM     17  C   UNL     1       1.471   9.300  18.120  0.00  0.00    +0.000 A 
ATOM     18  C   UNL     1       1.033   9.486  19.424  0.00  0.00    +0.000 A 
ATOM     19  C   UNL     1       1.369   8.553  20.398  0.00  0.00    +0.000 A 
ATOM     20  C   UNL     1       2.091   7.404  20.051  0.00  0.00    +0.000 A 
ENDBRANCH   3  15
BRANCH   4  21
ATOM     21  C   UNL     1       2.657   4.700  20.466  0.00  0.00    +0.000 C 
ATOM     22  N   UNL     1       2.135   4.660  21.506  0.00  0.00    +0.000 NA
ENDBRANCH   4  21
TORSDOF 3
ENDMDL
