MODEL 1
REMARK VINA RESULT:      -6.9      0.000      0.000
REMARK  Name = 
REMARK  9 active torsions:
REMARK  status: ('A' for Active; 'I' for Inactive)
REMARK    1  A    between atoms: C_1  and  N_2
REMARK    2  A    between atoms: C_3  and  C_5
REMARK    3  A    between atoms: C_5  and  N_6
REMARK    4  A    between atoms: N_6  and  C_7
REMARK    5  A    between atoms: C_9  and  O_10
REMARK    6  A    between atoms: C_17  and  O_18
REMARK    7  A    between atoms: C_19  and  O_20
REMARK    8  A    between atoms: C_25  and  C_26
REMARK    9  A    between atoms: C_27  and  C_28
REMARK                            x       y       z     vdW  Elec       q    Type
REMARK                         _______ _______ _______ _____ _____    ______ ____
ROOT
ATOM      1  C   UNL     1      -2.920  10.817  15.759  0.00  0.00    +0.000 A 
ATOM      2  C   UNL     1      -2.069  10.291  16.734  0.00  0.00    +0.000 A 
ATOM      3  C   UNL     1      -2.095  10.768  18.160  0.00  0.00    +0.000 A 
ATOM      4  C   UNL     1      -2.999  11.787  18.656  0.00  0.00    +0.000 A 
ATOM      5  C   UNL     1      -4.069  11.727  17.753  0.00  0.00    +0.000 A 
ATOM      6  C   UNL     1      -3.937  11.579  16.309  0.00  0.00    +0.000 A 
ATOM      7  C   UNL     1      -4.943  10.490  18.098  0.00  0.00    +0.000 C 
ATOM      8  C   UNL     1      -6.231  10.798  18.306  0.00  0.00    +0.000 C 
ATOM      9  C   UNL     1      -6.407  11.256  19.716  0.00  0.00    +0.000 C 
ATOM     10  C   UNL     1      -6.739  12.743  19.639  0.00  0.00    +0.000 C 
ATOM     11  C   UNL     1      -6.887  13.284  21.032  0.00  0.00    +0.000 C 
ATOM     12  C   UNL     1      -7.508  14.671  20.875  0.00  0.00    +0.000 C 
ATOM     13  O   UNL     1      -7.472  15.362  19.868  0.00  0.00    +0.000 OA
ATOM     14  C   UNL     1      -7.917  15.257  22.182  0.00  0.00    +0.000 C 
ATOM     15  C   UNL     1      -6.740  15.874  22.391  0.00  0.00    +0.000 C 
ATOM     16  C   UNL     1      -5.468  15.208  22.955  0.00  0.00    +0.000 C 
ATOM     17  C   UNL     1      -5.255  16.208  24.151  0.00  0.00    +0.000 C 
ATOM     18  C   UNL     1      -4.091  14.957  21.863  0.00  0.00    +0.000 C 
ATOM     19  C   UNL     1      -3.881  16.367  21.261  0.00  0.00    +0.000 C 
ATOM     20  O   UNL     1      -3.977  13.820  20.547  0.00  0.00    +0.000 OA
ATOM     21  C   UNL     1      -3.086  12.637  20.217  0.00  0.00    +0.000 C 
ATOM     22  O   UNL     1      -2.319  12.268  21.106  0.00  0.00    +0.000 OA
ENDROOT
BRANCH   1  23
ATOM     23  N   UNL     1      -3.038  10.406  14.396  0.00  0.00    +0.000 N 
ATOM     24  H   UNL     1      -2.154  10.004  14.067  0.00  0.00    +0.000 HD
BRANCH  23  25
ATOM     25  C   UNL     1      -4.167   9.531  13.996  0.00  0.00    +0.000 C 
BRANCH  25  28
ATOM     26  C   UNL     1      -6.558   9.750  10.958  0.00  0.00    +0.000 C 
ATOM     27  N   UNL     1      -6.013   9.871  12.298  0.00  0.00    +0.000 N 
ATOM     28  C   UNL     1      -4.669   9.687  12.524  0.00  0.00    +0.000 C 
ATOM     29  O   UNL     1      -3.882   9.551  11.585  0.00  0.00    +0.000 OA
ATOM     30  H   UNL     1      -6.643   9.896  13.090  0.00  0.00    +0.000 HD
ENDBRANCH  25  28
ENDBRANCH  23  25
ENDBRANCH   1  23
BRANCH   3  31
ATOM     31  O   UNL     1      -1.462   9.902  19.046  0.00  0.00    +0.000 OA
ATOM     32  H   UNL     1      -1.336   9.045  18.562  0.00  0.00    +0.000 HD
ENDBRANCH   3  31
BRANCH  10  33
ATOM     33  O   UNL     1      -5.777  13.487  18.872  0.00  0.00    +0.000 OA
ATOM     34  H   UNL     1      -4.945  13.579  19.380  0.00  0.00    +0.000 HD
ENDBRANCH  10  33
BRANCH  11  35
ATOM     35  O   UNL     1      -7.569  12.409  21.923  0.00  0.00    +0.000 OA
ATOM     36  H   UNL     1      -7.141  12.509  22.849  0.00  0.00    +0.000 HD
ENDBRANCH  11  35
TORSDOF 6
ENDMDL
MODEL 2
REMARK VINA RESULT:      -6.8      7.981     10.316
REMARK  Name = 
REMARK  9 active torsions:
REMARK  status: ('A' for Active; 'I' for Inactive)
REMARK    1  A    between atoms: C_1  and  N_2
REMARK    2  A    between atoms: C_3  and  C_5
REMARK    3  A    between atoms: C_5  and  N_6
REMARK    4  A    between atoms: N_6  and  C_7
REMARK    5  A    between atoms: C_9  and  O_10
REMARK    6  A    between atoms: C_17  and  O_18
REMARK    7  A    between atoms: C_19  and  O_20
REMARK    8  A    between atoms: C_25  and  C_26
REMARK    9  A    between atoms: C_27  and  C_28
REMARK                            x       y       z     vdW  Elec       q    Type
REMARK                         _______ _______ _______ _____ _____    ______ ____
ROOT
ATOM      1  C   UNL     1       0.555  12.830  18.841  0.00  0.00    +0.000 A 
ATOM      2  C   UNL     1       0.295  13.049  20.195  0.00  0.00    +0.000 A 
ATOM      3  C   UNL     1       1.340  13.589  21.133  0.00  0.00    +0.000 A 
ATOM      4  C   UNL     1       2.686  13.942  20.728  0.00  0.00    +0.000 A 
ATOM      5  C   UNL     1       2.545  14.207  19.359  0.00  0.00    +0.000 A 
ATOM      6  C   UNL     1       1.741  13.419  18.434  0.00  0.00    +0.000 A 
ATOM      7  C   UNL     1       1.901  15.611  19.187  0.00  0.00    +0.000 C 
ATOM      8  C   UNL     1       2.628  16.431  18.415  0.00  0.00    +0.000 C 
ATOM      9  C   UNL     1       3.693  17.073  19.242  0.00  0.00    +0.000 C 
ATOM     10  C   UNL     1       5.016  16.496  18.748  0.00  0.00    +0.000 C 
ATOM     11  C   UNL     1       6.136  17.067  19.571  0.00  0.00    +0.000 C 
ATOM     12  C   UNL     1       7.423  16.693  18.837  0.00  0.00    +0.000 C 
ATOM     13  O   UNL     1       7.551  15.775  18.040  0.00  0.00    +0.000 OA
ATOM     14  C   UNL     1       8.617  17.370  19.413  0.00  0.00    +0.000 C 
ATOM     15  C   UNL     1       8.892  16.375  20.277  0.00  0.00    +0.000 C 
ATOM     16  C   UNL     1       8.208  16.164  21.643  0.00  0.00    +0.000 C 
ATOM     17  C   UNL     1       9.525  16.152  22.505  0.00  0.00    +0.000 C 
ATOM     18  C   UNL     1       7.113  14.780  21.834  0.00  0.00    +0.000 C 
ATOM     19  C   UNL     1       7.981  13.596  21.344  0.00  0.00    +0.000 C 
ATOM     20  O   UNL     1       5.532  14.577  21.130  0.00  0.00    +0.000 OA
ATOM     21  C   UNL     1       4.124  14.405  21.668  0.00  0.00    +0.000 C 
ATOM     22  O   UNL     1       3.983  14.555  22.881  0.00  0.00    +0.000 OA
ENDROOT
BRANCH   1  23
ATOM     23  N   UNL     1      -0.364  12.387  17.840  0.00  0.00    +0.000 N 
ATOM     24  H   UNL     1       0.127  11.851  17.117  0.00  0.00    +0.000 HD
BRANCH  23  25
ATOM     25  C   UNL     1      -1.594  11.667  18.252  0.00  0.00    +0.000 C 
BRANCH  25  28
ATOM     26  C   UNL     1      -3.229  10.518  14.936  0.00  0.00    +0.000 C 
ATOM     27  N   UNL     1      -2.398  11.224  15.893  0.00  0.00    +0.000 N 
ATOM     28  C   UNL     1      -2.243  10.742  17.172  0.00  0.00    +0.000 C 
ATOM     29  O   UNL     1      -2.691   9.639  17.491  0.00  0.00    +0.000 OA
ATOM     30  H   UNL     1      -2.093  12.167  15.686  0.00  0.00    +0.000 HD
ENDBRANCH  25  28
ENDBRANCH  23  25
ENDBRANCH   1  23
BRANCH   3  31
ATOM     31  O   UNL     1       0.815  14.081  22.323  0.00  0.00    +0.000 OA
ATOM     32  H   UNL     1       1.356  14.876  22.565  0.00  0.00    +0.000 HD
ENDBRANCH   3  31
BRANCH  10  33
ATOM     33  O   UNL     1       5.028  15.058  18.747  0.00  0.00    +0.000 OA
ATOM     34  H   UNL     1       4.172  14.717  19.081  0.00  0.00    +0.000 HD
ENDBRANCH  10  33
BRANCH  11  35
ATOM     35  O   UNL     1       5.986  18.450  19.870  0.00  0.00    +0.000 OA
ATOM     36  H   UNL     1       6.884  18.909  19.688  0.00  0.00    +0.000 HD
ENDBRANCH  11  35
TORSDOF 6
ENDMDL
MODEL 3
REMARK VINA RESULT:      -6.5      3.658      6.122
REMARK  Name = 
REMARK  9 active torsions:
REMARK  status: ('A' for Active; 'I' for Inactive)
REMARK    1  A    between atoms: C_1  and  N_2
REMARK    2  A    between atoms: C_3  and  C_5
REMARK    3  A    between atoms: C_5  and  N_6
REMARK    4  A    between atoms: N_6  and  C_7
REMARK    5  A    between atoms: C_9  and  O_10
REMARK    6  A    between atoms: C_17  and  O_18
REMARK    7  A    between atoms: C_19  and  O_20
REMARK    8  A    between atoms: C_25  and  C_26
REMARK    9  A    between atoms: C_27  and  C_28
REMARK                            x       y       z     vdW  Elec       q    Type
REMARK                         _______ _______ _______ _____ _____    ______ ____
ROOT
ATOM      1  C   UNL     1      -0.475  10.156  18.119  0.00  0.00    +0.000 A 
ATOM      2  C   UNL     1      -1.698  10.441  17.507  0.00  0.00    +0.000 A 
ATOM      3  C   UNL     1      -2.691  11.396  18.111  0.00  0.00    +0.000 A 
ATOM      4  C   UNL     1      -2.473  12.110  19.354  0.00  0.00    +0.000 A 
ATOM      5  C   UNL     1      -1.076  12.150  19.455  0.00  0.00    +0.000 A 
ATOM      6  C   UNL     1      -0.184  11.041  19.144  0.00  0.00    +0.000 A 
ATOM      7  C   UNL     1      -0.538  13.242  18.491  0.00  0.00    +0.000 C 
ATOM      8  C   UNL     1       0.230  14.153  19.105  0.00  0.00    +0.000 C 
ATOM      9  C   UNL     1      -0.640  15.196  19.724  0.00  0.00    +0.000 C 
ATOM     10  C   UNL     1      -0.505  15.019  21.233  0.00  0.00    +0.000 C 
ATOM     11  C   UNL     1      -1.394  16.013  21.924  0.00  0.00    +0.000 C 
ATOM     12  C   UNL     1      -0.982  15.986  23.396  0.00  0.00    +0.000 C 
ATOM     13  O   UNL     1      -0.404  15.069  23.960  0.00  0.00    +0.000 OA
ATOM     14  C   UNL     1      -1.628  17.073  24.182  0.00  0.00    +0.000 C 
ATOM     15  C   UNL     1      -2.694  16.331  24.529  0.00  0.00    +0.000 C 
ATOM     16  C   UNL     1      -3.932  16.077  23.645  0.00  0.00    +0.000 C 
ATOM     17  C   UNL     1      -5.002  16.591  24.679  0.00  0.00    +0.000 C 
ATOM     18  C   UNL     1      -4.176  14.449  22.981  0.00  0.00    +0.000 C 
ATOM     19  C   UNL     1      -4.075  13.555  24.241  0.00  0.00    +0.000 C 
ATOM     20  O   UNL     1      -3.251  13.667  21.728  0.00  0.00    +0.000 OA
ATOM     21  C   UNL     1      -3.553  13.118  20.346  0.00  0.00    +0.000 C 
ATOM     22  O   UNL     1      -4.673  13.360  19.897  0.00  0.00    +0.000 OA
ENDROOT
BRANCH   1  23
ATOM     23  N   UNL     1       0.574   9.326  17.618  0.00  0.00    +0.000 N 
ATOM     24  H   UNL     1       0.779   9.560  16.641  0.00  0.00    +0.000 HD
BRANCH  23  25
ATOM     25  C   UNL     1       1.839   9.212  18.384  0.00  0.00    +0.000 C 
BRANCH  25  28
ATOM     26  C   UNL     1       3.341   5.793  19.411  0.00  0.00    +0.000 C 
ATOM     27  N   UNL     1       2.468   6.950  19.331  0.00  0.00    +0.000 N 
ATOM     28  C   UNL     1       2.580   7.838  18.287  0.00  0.00    +0.000 C 
ATOM     29  O   UNL     1       3.324   7.603  17.333  0.00  0.00    +0.000 OA
ATOM     30  H   UNL     1       1.913   7.210  20.137  0.00  0.00    +0.000 HD
ENDBRANCH  25  28
ENDBRANCH  23  25
ENDBRANCH   1  23
BRANCH   3  31
ATOM     31  O   UNL     1      -3.658  11.832  17.212  0.00  0.00    +0.000 OA
ATOM     32  H   UNL     1      -3.913  11.044  16.665  0.00  0.00    +0.000 HD
ENDBRANCH   3  31
BRANCH  10  33
ATOM     33  O   UNL     1      -0.770  13.672  21.659  0.00  0.00    +0.000 OA
ATOM     34  H   UNL     1      -1.464  13.273  21.093  0.00  0.00    +0.000 HD
ENDBRANCH  10  33
BRANCH  11  35
ATOM     35  O   UNL     1      -1.403  17.301  21.319  0.00  0.00    +0.000 OA
ATOM     36  H   UNL     1      -0.583  17.812  21.659  0.00  0.00    +0.000 HD
ENDBRANCH  11  35
TORSDOF 6
ENDMDL
MODEL 4
REMARK VINA RESULT:      -6.5      4.202      6.675
REMARK  Name = 
REMARK  9 active torsions:
REMARK  status: ('A' for Active; 'I' for Inactive)
REMARK    1  A    between atoms: C_1  and  N_2
REMARK    2  A    between atoms: C_3  and  C_5
REMARK    3  A    between atoms: C_5  and  N_6
REMARK    4  A    between atoms: N_6  and  C_7
REMARK    5  A    between atoms: C_9  and  O_10
REMARK    6  A    between atoms: C_17  and  O_18
REMARK    7  A    between atoms: C_19  and  O_20
REMARK    8  A    between atoms: C_25  and  C_26
REMARK    9  A    between atoms: C_27  and  C_28
REMARK                            x       y       z     vdW  Elec       q    Type
REMARK                         _______ _______ _______ _____ _____    ______ ____
ROOT
ATOM      1  C   UNL     1       0.905   9.367  18.849  0.00  0.00    +0.000 A 
ATOM      2  C   UNL     1      -0.091   9.618  17.903  0.00  0.00    +0.000 A 
ATOM      3  C   UNL     1      -1.233  10.560  18.174  0.00  0.00    +0.000 A 
ATOM      4  C   UNL     1      -1.397  11.296  19.412  0.00  0.00    +0.000 A 
ATOM      5  C   UNL     1      -0.091  11.366  19.915  0.00  0.00    +0.000 A 
ATOM      6  C   UNL     1       0.871  10.271  19.897  0.00  0.00    +0.000 A 
ATOM      7  C   UNL     1       0.688  12.456  19.127  0.00  0.00    +0.000 C 
ATOM      8  C   UNL     1       1.229  13.391  19.921  0.00  0.00    +0.000 C 
ATOM      9  C   UNL     1       0.200  14.424  20.240  0.00  0.00    +0.000 C 
ATOM     10  C   UNL     1      -0.107  14.270  21.726  0.00  0.00    +0.000 C 
ATOM     11  C   UNL     1      -1.175  15.255  22.110  0.00  0.00    +0.000 C 
ATOM     12  C   UNL     1      -1.208  15.256  23.638  0.00  0.00    +0.000 C 
ATOM     13  O   UNL     1      -0.804  14.360  24.363  0.00  0.00    +0.000 OA
ATOM     14  C   UNL     1      -2.072  16.341  24.181  0.00  0.00    +0.000 C 
ATOM     15  C   UNL     1      -3.181  15.582  24.218  0.00  0.00    +0.000 C 
ATOM     16  C   UNL     1      -4.104  15.290  23.017  0.00  0.00    +0.000 C 
ATOM     17  C   UNL     1      -5.436  15.796  23.685  0.00  0.00    +0.000 C 
ATOM     18  C   UNL     1      -4.119  13.648  22.342  0.00  0.00    +0.000 C 
ATOM     19  C   UNL     1      -4.374  12.774  23.595  0.00  0.00    +0.000 C 
ATOM     20  O   UNL     1      -2.857  12.868  21.428  0.00  0.00    +0.000 OA
ATOM     21  C   UNL     1      -2.734  12.295  20.028  0.00  0.00    +0.000 C 
ATOM     22  O   UNL     1      -3.679  12.506  19.268  0.00  0.00    +0.000 OA
ENDROOT
BRANCH   1  23
ATOM     23  N   UNL     1       2.068   8.552  18.690  0.00  0.00    +0.000 N 
ATOM     24  H   UNL     1       2.908   9.136  18.638  0.00  0.00    +0.000 HD
BRANCH  23  25
ATOM     25  C   UNL     1       2.297   7.424  19.626  0.00  0.00    +0.000 C 
BRANCH  25  28
ATOM     26  C   UNL     1       4.916   4.611  19.155  0.00  0.00    +0.000 C 
ATOM     27  N   UNL     1       4.034   5.588  19.766  0.00  0.00    +0.000 N 
ATOM     28  C   UNL     1       3.030   6.177  19.034  0.00  0.00    +0.000 C 
ATOM     29  O   UNL     1       2.772   5.793  17.891  0.00  0.00    +0.000 OA
ATOM     30  H   UNL     1       4.275   5.980  20.667  0.00  0.00    +0.000 HD
ENDBRANCH  25  28
ENDBRANCH  23  25
ENDBRANCH   1  23
BRANCH   3  31
ATOM     31  O   UNL     1      -1.903  10.963  17.025  0.00  0.00    +0.000 OA
ATOM     32  H   UNL     1      -1.400  10.586  16.256  0.00  0.00    +0.000 HD
ENDBRANCH   3  31
BRANCH  10  33
ATOM     33  O   UNL     1      -0.463  12.924  22.082  0.00  0.00    +0.000 OA
ATOM     34  H   UNL     1      -1.258  12.646  21.581  0.00  0.00    +0.000 HD
ENDBRANCH  10  33
BRANCH  11  35
ATOM     35  O   UNL     1      -1.027  16.534  21.503  0.00  0.00    +0.000 OA
ATOM     36  H   UNL     1      -1.779  17.135  21.853  0.00  0.00    +0.000 HD
ENDBRANCH  11  35
TORSDOF 6
ENDMDL
MODEL 5
REMARK VINA RESULT:      -6.4      0.921      1.035
REMARK  Name = 
REMARK  9 active torsions:
REMARK  status: ('A' for Active; 'I' for Inactive)
REMARK    1  A    between atoms: C_1  and  N_2
REMARK    2  A    between atoms: C_3  and  C_5
REMARK    3  A    between atoms: C_5  and  N_6
REMARK    4  A    between atoms: N_6  and  C_7
REMARK    5  A    between atoms: C_9  and  O_10
REMARK    6  A    between atoms: C_17  and  O_18
REMARK    7  A    between atoms: C_19  and  O_20
REMARK    8  A    between atoms: C_25  and  C_26
REMARK    9  A    between atoms: C_27  and  C_28
REMARK                            x       y       z     vdW  Elec       q    Type
REMARK                         _______ _______ _______ _____ _____    ______ ____
ROOT
ATOM      1  C   UNL     1      -4.038  11.112  16.152  0.00  0.00    +0.000 A 
ATOM      2  C   UNL     1      -2.994  10.558  16.897  0.00  0.00    +0.000 A 
ATOM      3  C   UNL     1      -2.680  11.014  18.295  0.00  0.00    +0.000 A 
ATOM      4  C   UNL     1      -3.425  12.040  18.998  0.00  0.00    +0.000 A 
ATOM      5  C   UNL     1      -4.676  12.010  18.367  0.00  0.00    +0.000 A 
ATOM      6  C   UNL     1      -4.885  11.881  16.931  0.00  0.00    +0.000 A 
ATOM      7  C   UNL     1      -5.469  10.781  18.892  0.00  0.00    +0.000 C 
ATOM      8  C   UNL     1      -6.668  11.106  19.396  0.00  0.00    +0.000 C 
ATOM      9  C   UNL     1      -6.504  11.546  20.814  0.00  0.00    +0.000 C 
ATOM     10  C   UNL     1      -6.817  13.038  20.832  0.00  0.00    +0.000 C 
ATOM     11  C   UNL     1      -6.628  13.561  22.228  0.00  0.00    +0.000 C 
ATOM     12  C   UNL     1      -7.243  14.960  22.235  0.00  0.00    +0.000 C 
ATOM     13  O   UNL     1      -7.428  15.665  21.253  0.00  0.00    +0.000 OA
ATOM     14  C   UNL     1      -7.326  15.532  23.607  0.00  0.00    +0.000 C 
ATOM     15  C   UNL     1      -6.122  16.128  23.543  0.00  0.00    +0.000 C 
ATOM     16  C   UNL     1      -4.767  15.433  23.790  0.00  0.00    +0.000 C 
ATOM     17  C   UNL     1      -4.263  16.411  24.914  0.00  0.00    +0.000 C 
ATOM     18  C   UNL     1      -3.685  15.177  22.406  0.00  0.00    +0.000 C 
ATOM     19  C   UNL     1      -3.594  16.593  21.786  0.00  0.00    +0.000 C 
ATOM     20  O   UNL     1      -3.900  14.059  21.087  0.00  0.00    +0.000 OA
ATOM     21  C   UNL     1      -3.132  12.867  20.546  0.00  0.00    +0.000 C 
ATOM     22  O   UNL     1      -2.187  12.472  21.228  0.00  0.00    +0.000 OA
ENDROOT
BRANCH   1  23
ATOM     23  N   UNL     1      -4.476  10.723  14.848  0.00  0.00    +0.000 N 
ATOM     24  H   UNL     1      -4.873  11.526  14.351  0.00  0.00    +0.000 HD
BRANCH  23  25
ATOM     25  C   UNL     1      -3.543   9.992  13.957  0.00  0.00    +0.000 C 
BRANCH  25  28
ATOM     26  C   UNL     1      -5.927   9.175  11.017  0.00  0.00    +0.000 C 
ATOM     27  N   UNL     1      -5.406   9.685  12.272  0.00  0.00    +0.000 N 
ATOM     28  C   UNL     1      -4.052   9.719  12.504  0.00  0.00    +0.000 C 
ATOM     29  O   UNL     1      -3.249   9.447  11.609  0.00  0.00    +0.000 OA
ATOM     30  H   UNL     1      -6.039   9.833  13.048  0.00  0.00    +0.000 HD
ENDBRANCH  25  28
ENDBRANCH  23  25
ENDBRANCH   1  23
BRANCH   3  31
ATOM     31  O   UNL     1      -1.875  10.125  19.000  0.00  0.00    +0.000 OA
ATOM     32  H   UNL     1      -1.053   9.997  18.459  0.00  0.00    +0.000 HD
ENDBRANCH   3  31
BRANCH  10  33
ATOM     33  O   UNL     1      -6.046  13.778  19.871  0.00  0.00    +0.000 OA
ATOM     34  H   UNL     1      -6.492  14.627  19.667  0.00  0.00    +0.000 HD
ENDBRANCH  10  33
BRANCH  11  35
ATOM     35  O   UNL     1      -7.101  12.683  23.243  0.00  0.00    +0.000 OA
ATOM     36  H   UNL     1      -6.456  11.889  23.296  0.00  0.00    +0.000 HD
ENDBRANCH  11  35
TORSDOF 6
ENDMDL
MODEL 6
REMARK VINA RESULT:      -6.4      4.635      5.716
REMARK  Name = 
REMARK  9 active torsions:
REMARK  status: ('A' for Active; 'I' for Inactive)
REMARK    1  A    between atoms: C_1  and  N_2
REMARK    2  A    between atoms: C_3  and  C_5
REMARK    3  A    between atoms: C_5  and  N_6
REMARK    4  A    between atoms: N_6  and  C_7
REMARK    5  A    between atoms: C_9  and  O_10
REMARK    6  A    between atoms: C_17  and  O_18
REMARK    7  A    between atoms: C_19  and  O_20
REMARK    8  A    between atoms: C_25  and  C_26
REMARK    9  A    between atoms: C_27  and  C_28
REMARK                            x       y       z     vdW  Elec       q    Type
REMARK                         _______ _______ _______ _____ _____    ______ ____
ROOT
ATOM      1  C   UNL     1       0.450  11.021  19.045  0.00  0.00    +0.000 A 
ATOM      2  C   UNL     1       1.093  12.257  19.135  0.00  0.00    +0.000 A 
ATOM      3  C   UNL     1       0.397  13.486  19.652  0.00  0.00    +0.000 A 
ATOM      4  C   UNL     1      -0.977  13.503  20.114  0.00  0.00    +0.000 A 
ATOM      5  C   UNL     1      -1.203  12.171  20.485  0.00  0.00    +0.000 A 
ATOM      6  C   UNL     1      -0.752  11.007  19.733  0.00  0.00    +0.000 A 
ATOM      7  C   UNL     1      -0.525  11.914  21.859  0.00  0.00    +0.000 C 
ATOM      8  C   UNL     1      -1.372  11.435  22.781  0.00  0.00    +0.000 C 
ATOM      9  C   UNL     1      -2.111  12.569  23.410  0.00  0.00    +0.000 C 
ATOM     10  C   UNL     1      -3.560  12.435  22.952  0.00  0.00    +0.000 C 
ATOM     11  C   UNL     1      -4.358  13.577  23.515  0.00  0.00    +0.000 C 
ATOM     12  C   UNL     1      -5.824  13.216  23.277  0.00  0.00    +0.000 C 
ATOM     13  O   UNL     1      -6.240  12.430  22.438  0.00  0.00    +0.000 OA
ATOM     14  C   UNL     1      -6.754  14.150  23.970  0.00  0.00    +0.000 C 
ATOM     15  C   UNL     1      -6.854  14.990  22.924  0.00  0.00    +0.000 C 
ATOM     16  C   UNL     1      -5.835  16.090  22.560  0.00  0.00    +0.000 C 
ATOM     17  C   UNL     1      -6.857  17.287  22.550  0.00  0.00    +0.000 C 
ATOM     18  C   UNL     1      -4.841  15.872  21.105  0.00  0.00    +0.000 C 
ATOM     19  C   UNL     1      -5.901  15.573  20.018  0.00  0.00    +0.000 C 
ATOM     20  O   UNL     1      -3.540  14.736  20.873  0.00  0.00    +0.000 OA
ATOM     21  C   UNL     1      -2.055  14.840  20.577  0.00  0.00    +0.000 C 
ATOM     22  O   UNL     1      -1.571  15.971  20.616  0.00  0.00    +0.000 OA
ENDROOT
BRANCH   1  23
ATOM     23  N   UNL     1       1.016   9.775  18.637  0.00  0.00    +0.000 N 
ATOM     24  H   UNL     1       1.766   9.930  17.955  0.00  0.00    +0.000 HD
BRANCH  23  25
ATOM     25  C   UNL     1       1.467   8.809  19.668  0.00  0.00    +0.000 C 
BRANCH  25  28
ATOM     26  C   UNL     1       3.532   5.533  19.666  0.00  0.00    +0.000 C 
ATOM     27  N   UNL     1       2.582   6.566  20.035  0.00  0.00    +0.000 N 
ATOM     28  C   UNL     1       2.253   7.563  19.146  0.00  0.00    +0.000 C 
ATOM     29  O   UNL     1       2.650   7.526  17.980  0.00  0.00    +0.000 OA
ATOM     30  H   UNL     1       2.310   6.668  21.005  0.00  0.00    +0.000 HD
ENDBRANCH  25  28
ENDBRANCH  23  25
ENDBRANCH   1  23
BRANCH   3  31
ATOM     31  O   UNL     1       1.269  14.508  20.011  0.00  0.00    +0.000 OA
ATOM     32  H   UNL     1       0.861  15.355  19.694  0.00  0.00    +0.000 HD
ENDBRANCH   3  31
BRANCH  10  33
ATOM     33  O   UNL     1      -3.684  12.345  21.523  0.00  0.00    +0.000 OA
ATOM     34  H   UNL     1      -3.854  13.233  21.146  0.00  0.00    +0.000 HD
ENDBRANCH  10  33
BRANCH  11  35
ATOM     35  O   UNL     1      -4.024  13.911  24.857  0.00  0.00    +0.000 OA
ATOM     36  H   UNL     1      -3.358  13.210  25.198  0.00  0.00    +0.000 HD
ENDBRANCH  11  35
TORSDOF 6
ENDMDL
MODEL 7
REMARK VINA RESULT:      -6.3      5.861     10.201
REMARK  Name = 
REMARK  9 active torsions:
REMARK  status: ('A' for Active; 'I' for Inactive)
REMARK    1  A    between atoms: C_1  and  N_2
REMARK    2  A    between atoms: C_3  and  C_5
REMARK    3  A    between atoms: C_5  and  N_6
REMARK    4  A    between atoms: N_6  and  C_7
REMARK    5  A    between atoms: C_9  and  O_10
REMARK    6  A    between atoms: C_17  and  O_18
REMARK    7  A    between atoms: C_19  and  O_20
REMARK    8  A    between atoms: C_25  and  C_26
REMARK    9  A    between atoms: C_27  and  C_28
REMARK                            x       y       z     vdW  Elec       q    Type
REMARK                         _______ _______ _______ _____ _____    ______ ____
ROOT
ATOM      1  C   UNL     1      -0.861  10.986  18.377  0.00  0.00    +0.000 A 
ATOM      2  C   UNL     1      -0.363  11.278  19.649  0.00  0.00    +0.000 A 
ATOM      3  C   UNL     1       0.415  10.272  20.453  0.00  0.00    +0.000 A 
ATOM      4  C   UNL     1       0.730   8.935  19.989  0.00  0.00    +0.000 A 
ATOM      5  C   UNL     1       0.684   9.065  18.595  0.00  0.00    +0.000 A 
ATOM      6  C   UNL     1      -0.322   9.821  17.859  0.00  0.00    +0.000 A 
ATOM      7  C   UNL     1       1.986   9.764  18.116  0.00  0.00    +0.000 C 
ATOM      8  C   UNL     1       2.649   9.060  17.188  0.00  0.00    +0.000 C 
ATOM      9  C   UNL     1       3.502   8.037  17.861  0.00  0.00    +0.000 C 
ATOM     10  C   UNL     1       2.891   6.683  17.514  0.00  0.00    +0.000 C 
ATOM     11  C   UNL     1       3.677   5.601  18.200  0.00  0.00    +0.000 C 
ATOM     12  C   UNL     1       3.209   4.288  17.574  0.00  0.00    +0.000 C 
ATOM     13  O   UNL     1       2.146   4.108  16.998  0.00  0.00    +0.000 OA
ATOM     14  C   UNL     1       4.048   3.132  17.996  0.00  0.00    +0.000 C 
ATOM     15  C   UNL     1       3.280   2.830  19.058  0.00  0.00    +0.000 C 
ATOM     16  C   UNL     1       3.342   3.526  20.433  0.00  0.00    +0.000 C 
ATOM     17  C   UNL     1       3.576   2.224  21.285  0.00  0.00    +0.000 C 
ATOM     18  C   UNL     1       1.986   4.566  20.914  0.00  0.00    +0.000 C 
ATOM     19  C   UNL     1       0.763   3.641  20.701  0.00  0.00    +0.000 C 
ATOM     20  O   UNL     1       1.563   6.125  20.261  0.00  0.00    +0.000 OA
ATOM     21  C   UNL     1       1.451   7.534  20.815  0.00  0.00    +0.000 C 
ATOM     22  O   UNL     1       1.855   7.700  21.965  0.00  0.00    +0.000 OA
ENDROOT
BRANCH   1  23
ATOM     23  N   UNL     1      -1.552  11.870  17.492  0.00  0.00    +0.000 N 
ATOM     24  H   UNL     1      -0.883  12.430  16.953  0.00  0.00    +0.000 HD
BRANCH  23  25
ATOM     25  C   UNL     1      -2.593  11.324  16.588  0.00  0.00    +0.000 C 
BRANCH  25  28
ATOM     26  C   UNL     1      -6.164  12.505  17.513  0.00  0.00    +0.000 C 
ATOM     27  N   UNL     1      -4.905  12.331  16.811  0.00  0.00    +0.000 N 
ATOM     28  C   UNL     1      -4.052  11.308  17.151  0.00  0.00    +0.000 C 
ATOM     29  O   UNL     1      -4.393  10.441  17.959  0.00  0.00    +0.000 OA
ATOM     30  H   UNL     1      -4.566  13.071  16.209  0.00  0.00    +0.000 HD
ENDBRANCH  25  28
ENDBRANCH  23  25
ENDBRANCH   1  23
BRANCH   3  31
ATOM     31  O   UNL     1       1.130  10.836  21.504  0.00  0.00    +0.000 OA
ATOM     32  H   UNL     1       1.157  11.814  21.335  0.00  0.00    +0.000 HD
ENDBRANCH   3  31
BRANCH  10  33
ATOM     33  O   UNL     1       1.490   6.610  17.828  0.00  0.00    +0.000 OA
ATOM     34  H   UNL     1       0.997   6.238  17.068  0.00  0.00    +0.000 HD
ENDBRANCH  10  33
BRANCH  11  35
ATOM     35  O   UNL     1       5.084   5.813  18.188  0.00  0.00    +0.000 OA
ATOM     36  H   UNL     1       5.504   5.101  17.583  0.00  0.00    +0.000 HD
ENDBRANCH  11  35
TORSDOF 6
ENDMDL
MODEL 8
REMARK VINA RESULT:      -6.3      4.002      5.915
REMARK  Name = 
REMARK  9 active torsions:
REMARK  status: ('A' for Active; 'I' for Inactive)
REMARK    1  A    between atoms: C_1  and  N_2
REMARK    2  A    between atoms: C_3  and  C_5
REMARK    3  A    between atoms: C_5  and  N_6
REMARK    4  A    between atoms: N_6  and  C_7
REMARK    5  A    between atoms: C_9  and  O_10
REMARK    6  A    between atoms: C_17  and  O_18
REMARK    7  A    between atoms: C_19  and  O_20
REMARK    8  A    between atoms: C_25  and  C_26
REMARK    9  A    between atoms: C_27  and  C_28
REMARK                            x       y       z     vdW  Elec       q    Type
REMARK                         _______ _______ _______ _____ _____    ______ ____
ROOT
ATOM      1  C   UNL     1       1.126  12.825  19.195  0.00  0.00    +0.000 A 
ATOM      2  C   UNL     1       1.268  11.893  20.226  0.00  0.00    +0.000 A 
ATOM      3  C   UNL     1       0.180  11.646  21.236  0.00  0.00    +0.000 A 
ATOM      4  C   UNL     1      -1.101  12.325  21.227  0.00  0.00    +0.000 A 
ATOM      5  C   UNL     1      -1.247  12.708  19.887  0.00  0.00    +0.000 A 
ATOM      6  C   UNL     1      -0.183  13.252  19.053  0.00  0.00    +0.000 A 
ATOM      7  C   UNL     1      -1.665  11.464  19.055  0.00  0.00    +0.000 C 
ATOM      8  C   UNL     1      -2.794  11.653  18.358  0.00  0.00    +0.000 C 
ATOM      9  C   UNL     1      -3.970  11.399  19.243  0.00  0.00    +0.000 C 
ATOM     10  C   UNL     1      -4.642  12.752  19.452  0.00  0.00    +0.000 C 
ATOM     11  C   UNL     1      -5.814  12.578  20.376  0.00  0.00    +0.000 C 
ATOM     12  C   UNL     1      -6.604  13.884  20.295  0.00  0.00    +0.000 C 
ATOM     13  O   UNL     1      -6.162  14.966  19.937  0.00  0.00    +0.000 OA
ATOM     14  C   UNL     1      -7.916  13.793  20.993  0.00  0.00    +0.000 C 
ATOM     15  C   UNL     1      -7.436  14.227  22.172  0.00  0.00    +0.000 C 
ATOM     16  C   UNL     1      -6.694  13.358  23.208  0.00  0.00    +0.000 C 
ATOM     17  C   UNL     1      -7.641  13.678  24.424  0.00  0.00    +0.000 C 
ATOM     18  C   UNL     1      -4.957  13.633  23.451  0.00  0.00    +0.000 C 
ATOM     19  C   UNL     1      -4.891  15.158  23.705  0.00  0.00    +0.000 C 
ATOM     20  O   UNL     1      -3.661  13.245  22.353  0.00  0.00    +0.000 OA
ATOM     21  C   UNL     1      -2.440  12.344  22.398  0.00  0.00    +0.000 C 
ATOM     22  O   UNL     1      -2.354  11.592  23.369  0.00  0.00    +0.000 OA
ENDROOT
BRANCH   1  23
ATOM     23  N   UNL     1       2.052  13.102  18.143  0.00  0.00    +0.000 N 
ATOM     24  H   UNL     1       1.672  12.793  17.242  0.00  0.00    +0.000 HD
BRANCH  23  25
ATOM     25  C   UNL     1       2.610  14.470  18.009  0.00  0.00    +0.000 C 
BRANCH  25  28
ATOM     26  C   UNL     1       6.475  14.699  17.907  0.00  0.00    +0.000 C 
ATOM     27  N   UNL     1       5.075  14.793  17.533  0.00  0.00    +0.000 N 
ATOM     28  C   UNL     1       4.089  14.658  18.481  0.00  0.00    +0.000 C 
ATOM     29  O   UNL     1       4.368  14.591  19.680  0.00  0.00    +0.000 OA
ATOM     30  H   UNL     1       4.820  14.762  16.554  0.00  0.00    +0.000 HD
ENDBRANCH  25  28
ENDBRANCH  23  25
ENDBRANCH   1  23
BRANCH   3  31
ATOM     31  O   UNL     1       0.339  10.459  21.942  0.00  0.00    +0.000 OA
ATOM     32  H   UNL     1      -0.523  10.285  22.402  0.00  0.00    +0.000 HD
ENDBRANCH   3  31
BRANCH  10  33
ATOM     33  O   UNL     1      -3.729  13.757  19.925  0.00  0.00    +0.000 OA
ATOM     34  H   UNL     1      -3.379  14.271  19.169  0.00  0.00    +0.000 HD
ENDBRANCH  10  33
BRANCH  11  35
ATOM     35  O   UNL     1      -6.569  11.395  20.136  0.00  0.00    +0.000 OA
ATOM     36  H   UNL     1      -7.458  11.484  20.638  0.00  0.00    +0.000 HD
ENDBRANCH  11  35
TORSDOF 6
ENDMDL
MODEL 9
REMARK VINA RESULT:      -6.3      8.079     10.710
REMARK  Name = 
REMARK  9 active torsions:
REMARK  status: ('A' for Active; 'I' for Inactive)
REMARK    1  A    between atoms: C_1  and  N_2
REMARK    2  A    between atoms: C_3  and  C_5
REMARK    3  A    between atoms: C_5  and  N_6
REMARK    4  A    between atoms: N_6  and  C_7
REMARK    5  A    between atoms: C_9  and  O_10
REMARK    6  A    between atoms: C_17  and  O_18
REMARK    7  A    between atoms: C_19  and  O_20
REMARK    8  A    between atoms: C_25  and  C_26
REMARK    9  A    between atoms: C_27  and  C_28
REMARK                            x       y       z     vdW  Elec       q    Type
REMARK                         _______ _______ _______ _____ _____    ______ ____
ROOT
ATOM      1  C   UNL     1       0.577  12.534  19.062  0.00  0.00    +0.000 A 
ATOM      2  C   UNL     1       0.298  12.931  20.372  0.00  0.00    +0.000 A 
ATOM      3  C   UNL     1       1.334  13.576  21.250  0.00  0.00    +0.000 A 
ATOM      4  C   UNL     1       2.692  13.858  20.826  0.00  0.00    +0.000 A 
ATOM      5  C   UNL     1       2.576  13.944  19.432  0.00  0.00    +0.000 A 
ATOM      6  C   UNL     1       1.776  13.051  18.604  0.00  0.00    +0.000 A 
ATOM      7  C   UNL     1       1.955  15.320  19.068  0.00  0.00    +0.000 C 
ATOM      8  C   UNL     1       2.705  16.024  18.208  0.00  0.00    +0.000 C 
ATOM      9  C   UNL     1       3.765  16.756  18.963  0.00  0.00    +0.000 C 
ATOM     10  C   UNL     1       5.088  16.104  18.572  0.00  0.00    +0.000 C 
ATOM     11  C   UNL     1       6.202  16.765  19.333  0.00  0.00    +0.000 C 
ATOM     12  C   UNL     1       7.495  16.284  18.677  0.00  0.00    +0.000 C 
ATOM     13  O   UNL     1       7.624  15.268  18.009  0.00  0.00    +0.000 OA
ATOM     14  C   UNL     1       8.690  17.016  19.182  0.00  0.00    +0.000 C 
ATOM     15  C   UNL     1       8.937  16.140  20.172  0.00  0.00    +0.000 C 
ATOM     16  C   UNL     1       8.229  16.116  21.542  0.00  0.00    +0.000 C 
ATOM     17  C   UNL     1       9.531  16.202  22.421  0.00  0.00    +0.000 C 
ATOM     18  C   UNL     1       7.111  14.782  21.892  0.00  0.00    +0.000 C 
ATOM     19  C   UNL     1       7.971  13.534  21.575  0.00  0.00    +0.000 C 
ATOM     20  O   UNL     1       5.539  14.507  21.192  0.00  0.00    +0.000 OA
ATOM     21  C   UNL     1       4.120  14.423  21.723  0.00  0.00    +0.000 C 
ATOM     22  O   UNL     1       3.962  14.731  22.904  0.00  0.00    +0.000 OA
ENDROOT
BRANCH   1  23
ATOM     23  N   UNL     1      -0.333  11.974  18.112  0.00  0.00    +0.000 N 
ATOM     24  H   UNL     1      -0.114  12.310  17.169  0.00  0.00    +0.000 HD
BRANCH  23  25
ATOM     25  C   UNL     1      -0.544  10.507  18.087  0.00  0.00    +0.000 C 
BRANCH  25  28
ATOM     26  C   UNL     1       2.563   8.211  17.825  0.00  0.00    +0.000 C 
ATOM     27  N   UNL     1       1.576   9.237  17.541  0.00  0.00    +0.000 N 
ATOM     28  C   UNL     1       0.679   9.628  18.506  0.00  0.00    +0.000 C 
ATOM     29  O   UNL     1       0.778   9.220  19.666  0.00  0.00    +0.000 OA
ATOM     30  H   UNL     1       1.419   9.522  16.583  0.00  0.00    +0.000 HD
ENDBRANCH  25  28
ENDBRANCH  23  25
ENDBRANCH   1  23
BRANCH   3  31
ATOM     31  O   UNL     1       0.797  14.224  22.357  0.00  0.00    +0.000 OA
ATOM     32  H   UNL     1       0.120  14.862  22.011  0.00  0.00    +0.000 HD
ENDBRANCH   3  31
BRANCH  10  33
ATOM     33  O   UNL     1       5.080  14.679  18.759  0.00  0.00    +0.000 OA
ATOM     34  H   UNL     1       4.688  14.459  19.629  0.00  0.00    +0.000 HD
ENDBRANCH  10  33
BRANCH  11  35
ATOM     35  O   UNL     1       6.067  18.177  19.448  0.00  0.00    +0.000 OA
ATOM     36  H   UNL     1       7.008  18.579  19.494  0.00  0.00    +0.000 HD
ENDBRANCH  11  35
TORSDOF 6
ENDMDL
