MODEL 1
REMARK VINA RESULT:      -8.2      0.000      0.000
REMARK  Name = 
REMARK  5 active torsions:
REMARK  status: ('A' for Active; 'I' for Inactive)
REMARK    1  A    between atoms: C_1  and  C_2
REMARK    2  A    between atoms: C_19  and  O_20
REMARK    3  A    between atoms: C_19  and  C_21
REMARK    4  A    between atoms: C_22  and  C_23
REMARK    5  A    between atoms: C_23  and  C_24
REMARK                            x       y       z     vdW  Elec       q    Type
REMARK                         _______ _______ _______ _____ _____    ______ ____
ROOT
ATOM      1  C   UNL     1       1.548   4.679  17.940  0.00  0.00    +0.000 C 
ATOM      2  C   UNL     1       2.441   3.938  19.088  0.00  0.00    +0.000 C 
ATOM      3  C   UNL     1       1.993   4.382  20.807  0.00  0.00    +0.000 C 
ATOM      4  C   UNL     1       1.262   5.631  20.669  0.00  0.00    +0.000 C 
ATOM      5  C   UNL     1       2.439   6.537  20.188  0.00  0.00    +0.000 C 
ATOM      6  C   UNL     1       1.791   7.656  19.417  0.00  0.00    +0.000 C 
ATOM      7  C   UNL     1       1.210   8.714  20.359  0.00  0.00    +0.000 C 
ATOM      8  C   UNL     1       0.333   9.609  19.520  0.00  0.00    +0.000 C 
ATOM      9  C   UNL     1       1.233  10.193  18.514  0.00  0.00    +0.000 C 
ATOM     10  O   UNL     1       1.508  11.298  18.532  0.00  0.00    +0.000 OA
ATOM     11  C   UNL     1       2.119   9.344  17.668  0.00  0.00    +0.000 C 
ATOM     12  C   UNL     1       2.564   8.237  18.249  0.00  0.00    +0.000 C 
ATOM     13  C   UNL     1       3.775   7.552  17.643  0.00  0.00    +0.000 C 
ATOM     14  C   UNL     1       4.613   6.645  18.640  0.00  0.00    +0.000 C 
ATOM     15  C   UNL     1       3.601   5.727  19.412  0.00  0.00    +0.000 C 
ATOM     16  C   UNL     1       3.700   3.996  19.830  0.00  0.00    +0.000 C 
ATOM     17  C   UNL     1       2.622   2.348  20.029  0.00  0.00    +0.000 C 
ATOM     18  C   UNL     1       2.230   1.804  18.596  0.00  0.00    +0.000 C 
ATOM     19  C   UNL     1       3.275   2.712  18.259  0.00  0.00    +0.000 C 
ENDROOT
BRANCH  19  20
ATOM     20  O   UNL     1       4.472   1.942  18.580  0.00  0.00    +0.000 OA
ATOM     21  H   UNL     1       5.280   2.474  18.633  0.00  0.00    +0.000 HD
ENDBRANCH  19  20
BRANCH  19  22
ATOM     22  C   UNL     1       3.681   3.252  17.041  0.00  0.00    +0.000 C 
ATOM     23  C   UNL     1       4.428   3.881  16.177  0.00  0.00    +0.000 C 
BRANCH  23  24
ATOM     24  C   UNL     1       5.297   4.616  15.170  0.00  0.00    +0.000 C 
BRANCH  24  25
ATOM     25  C   UNL     1       6.752   4.234  15.377  0.00  0.00    +0.000 C 
ATOM     26 BR   UNL     1       7.301   4.649  17.196  0.00  0.00    +0.000 Br
ENDBRANCH  24  25
ENDBRANCH  23  24
ENDBRANCH  19  22
TORSDOF 4
ENDMDL
MODEL 2
REMARK VINA RESULT:      -7.3      3.168      5.806
REMARK  Name = 
REMARK  5 active torsions:
REMARK  status: ('A' for Active; 'I' for Inactive)
REMARK    1  A    between atoms: C_1  and  C_2
REMARK    2  A    between atoms: C_19  and  O_20
REMARK    3  A    between atoms: C_19  and  C_21
REMARK    4  A    between atoms: C_22  and  C_23
REMARK    5  A    between atoms: C_23  and  C_24
REMARK                            x       y       z     vdW  Elec       q    Type
REMARK                         _______ _______ _______ _____ _____    ______ ____
ROOT
ATOM      1  C   UNL     1       3.790   4.011  20.018  0.00  0.00    +0.000 C 
ATOM      2  C   UNL     1       2.361   3.481  19.437  0.00  0.00    +0.000 C 
ATOM      3  C   UNL     1       2.496   2.231  18.105  0.00  0.00    +0.000 C 
ATOM      4  C   UNL     1       3.853   2.391  17.608  0.00  0.00    +0.000 C 
ATOM      5  C   UNL     1       3.703   3.810  16.976  0.00  0.00    +0.000 C 
ATOM      6  C   UNL     1       5.092   4.395  16.974  0.00  0.00    +0.000 C 
ATOM      7  C   UNL     1       5.923   3.840  15.814  0.00  0.00    +0.000 C 
ATOM      8  C   UNL     1       7.354   4.237  16.077  0.00  0.00    +0.000 C 
ATOM      9  C   UNL     1       7.345   5.707  16.104  0.00  0.00    +0.000 C 
ATOM     10  O   UNL     1       7.839   6.320  15.280  0.00  0.00    +0.000 OA
ATOM     11  C   UNL     1       6.398   6.470  16.964  0.00  0.00    +0.000 C 
ATOM     12  C   UNL     1       5.217   5.895  17.154  0.00  0.00    +0.000 C 
ATOM     13  C   UNL     1       4.072   6.763  17.641  0.00  0.00    +0.000 C 
ATOM     14  C   UNL     1       2.618   6.232  17.289  0.00  0.00    +0.000 C 
ATOM     15  C   UNL     1       2.561   4.712  17.678  0.00  0.00    +0.000 C 
ATOM     16  C   UNL     1       1.281   3.777  18.496  0.00  0.00    +0.000 C 
ATOM     17  C   UNL     1       0.968   2.301  19.778  0.00  0.00    +0.000 C 
ATOM     18  C   UNL     1       1.301   2.801  21.241  0.00  0.00    +0.000 C 
ATOM     19  C   UNL     1       1.209   4.044  20.550  0.00  0.00    +0.000 C 
ENDROOT
BRANCH  19  20
ATOM     20  O   UNL     1      -0.234   4.244  20.461  0.00  0.00    +0.000 OA
ATOM     21  H   UNL     1      -0.739   3.775  21.143  0.00  0.00    +0.000 HD
ENDBRANCH  19  20
BRANCH  19  22
ATOM     22  C   UNL     1       1.588   5.336  20.906  0.00  0.00    +0.000 C 
ATOM     23  C   UNL     1       1.541   6.635  21.002  0.00  0.00    +0.000 C 
BRANCH  23  24
ATOM     24  C   UNL     1       1.486   8.150  21.113  0.00  0.00    +0.000 C 
BRANCH  24  25
ATOM     25  C   UNL     1       0.054   8.594  21.348  0.00  0.00    +0.000 C 
ATOM     26 BR   UNL     1      -0.077   9.579  23.019  0.00  0.00    +0.000 Br
ENDBRANCH  24  25
ENDBRANCH  23  24
ENDBRANCH  19  22
TORSDOF 4
ENDMDL
MODEL 3
REMARK VINA RESULT:      -6.6      9.251     11.467
REMARK  Name = 
REMARK  5 active torsions:
REMARK  status: ('A' for Active; 'I' for Inactive)
REMARK    1  A    between atoms: C_1  and  C_2
REMARK    2  A    between atoms: C_19  and  O_20
REMARK    3  A    between atoms: C_19  and  C_21
REMARK    4  A    between atoms: C_22  and  C_23
REMARK    5  A    between atoms: C_23  and  C_24
REMARK                            x       y       z     vdW  Elec       q    Type
REMARK                         _______ _______ _______ _____ _____    ______ ____
ROOT
ATOM      1  C   UNL     1       8.706  13.229  18.988  0.00  0.00    +0.000 C 
ATOM      2  C   UNL     1      10.316  13.063  19.197  0.00  0.00    +0.000 C 
ATOM      3  C   UNL     1      10.805  11.654  20.260  0.00  0.00    +0.000 C 
ATOM      4  C   UNL     1       9.597  11.340  21.006  0.00  0.00    +0.000 C 
ATOM      5  C   UNL     1       9.514  12.639  21.869  0.00  0.00    +0.000 C 
ATOM      6  C   UNL     1       8.058  12.787  22.227  0.00  0.00    +0.000 C 
ATOM      7  C   UNL     1       7.676  11.857  23.382  0.00  0.00    +0.000 C 
ATOM      8  C   UNL     1       6.170  11.852  23.455  0.00  0.00    +0.000 C 
ATOM      9  C   UNL     1       5.794  13.250  23.716  0.00  0.00    +0.000 C 
ATOM     10  O   UNL     1       5.355  13.570  24.718  0.00  0.00    +0.000 OA
ATOM     11  C   UNL     1       6.298  14.368  22.871  0.00  0.00    +0.000 C 
ATOM     12  C   UNL     1       7.515  14.195  22.370  0.00  0.00    +0.000 C 
ATOM     13  C   UNL     1       8.261  15.418  21.871  0.00  0.00    +0.000 C 
ATOM     14  C   UNL     1       9.843  15.290  21.854  0.00  0.00    +0.000 C 
ATOM     15  C   UNL     1      10.201  13.923  21.170  0.00  0.00    +0.000 C 
ATOM     16  C   UNL     1      11.464  13.526  19.975  0.00  0.00    +0.000 C 
ATOM     17  C   UNL     1      11.853  12.400  18.394  0.00  0.00    +0.000 C 
ATOM     18  C   UNL     1      11.088  12.981  17.138  0.00  0.00    +0.000 C 
ATOM     19  C   UNL     1      11.008  14.087  18.032  0.00  0.00    +0.000 C 
ENDROOT
BRANCH  19  20
ATOM     20  O   UNL     1      12.333  14.685  17.907  0.00  0.00    +0.000 OA
ATOM     21  H   UNL     1      12.448  15.224  17.109  0.00  0.00    +0.000 HD
ENDBRANCH  19  20
BRANCH  19  22
ATOM     22  C   UNL     1      10.240  15.249  18.009  0.00  0.00    +0.000 C 
ATOM     23  C   UNL     1       9.931  16.507  18.157  0.00  0.00    +0.000 C 
BRANCH  23  24
ATOM     24  C   UNL     1       9.571  17.973  18.331  0.00  0.00    +0.000 C 
BRANCH  24  25
ATOM     25  C   UNL     1       8.475  18.110  19.372  0.00  0.00    +0.000 C 
ATOM     26 BR   UNL     1       6.921  17.062  18.850  0.00  0.00    +0.000 Br
ENDBRANCH  24  25
ENDBRANCH  23  24
ENDBRANCH  19  22
TORSDOF 4
ENDMDL
MODEL 4
REMARK VINA RESULT:      -6.5      3.319      5.324
REMARK  Name = 
REMARK  5 active torsions:
REMARK  status: ('A' for Active; 'I' for Inactive)
REMARK    1  A    between atoms: C_1  and  C_2
REMARK    2  A    between atoms: C_19  and  O_20
REMARK    3  A    between atoms: C_19  and  C_21
REMARK    4  A    between atoms: C_22  and  C_23
REMARK    5  A    between atoms: C_23  and  C_24
REMARK                            x       y       z     vdW  Elec       q    Type
REMARK                         _______ _______ _______ _____ _____    ______ ____
ROOT
ATOM      1  C   UNL     1       3.252   2.785  18.496  0.00  0.00    +0.000 C 
ATOM      2  C   UNL     1       2.534   3.880  19.469  0.00  0.00    +0.000 C 
ATOM      3  C   UNL     1       1.821   5.324  18.597  0.00  0.00    +0.000 C 
ATOM      4  C   UNL     1       2.496   5.326  17.309  0.00  0.00    +0.000 C 
ATOM      5  C   UNL     1       3.936   5.675  17.803  0.00  0.00    +0.000 C 
ATOM      6  C   UNL     1       4.863   5.123  16.751  0.00  0.00    +0.000 C 
ATOM      7  C   UNL     1       4.931   6.049  15.534  0.00  0.00    +0.000 C 
ATOM      8  C   UNL     1       5.621   5.275  14.439  0.00  0.00    +0.000 C 
ATOM      9  C   UNL     1       6.954   4.958  14.974  0.00  0.00    +0.000 C 
ATOM     10  O   UNL     1       7.895   5.444  14.553  0.00  0.00    +0.000 OA
ATOM     11  C   UNL     1       7.130   4.305  16.301  0.00  0.00    +0.000 C 
ATOM     12  C   UNL     1       6.216   4.616  17.211  0.00  0.00    +0.000 C 
ATOM     13  C   UNL     1       6.541   4.350  18.668  0.00  0.00    +0.000 C 
ATOM     14  C   UNL     1       5.749   5.240  19.717  0.00  0.00    +0.000 C 
ATOM     15  C   UNL     1       4.231   5.202  19.320  0.00  0.00    +0.000 C 
ATOM     16  C   UNL     1       2.775   5.034  20.336  0.00  0.00    +0.000 C 
ATOM     17  C   UNL     1       0.963   4.238  20.392  0.00  0.00    +0.000 C 
ATOM     18  C   UNL     1       1.084   2.676  20.605  0.00  0.00    +0.000 C 
ATOM     19  C   UNL     1       2.396   3.096  20.970  0.00  0.00    +0.000 C 
ENDROOT
BRANCH  19  20
ATOM     20  O   UNL     1       2.197   3.593  22.328  0.00  0.00    +0.000 OA
ATOM     21  H   UNL     1       1.299   3.915  22.502  0.00  0.00    +0.000 HD
ENDBRANCH  19  20
BRANCH  19  22
ATOM     22  C   UNL     1       3.579   2.388  21.166  0.00  0.00    +0.000 C 
ATOM     23  C   UNL     1       4.491   1.472  20.997  0.00  0.00    +0.000 C 
BRANCH  23  24
ATOM     24  C   UNL     1       5.554   0.404  20.801  0.00  0.00    +0.000 C 
BRANCH  24  25
ATOM     25  C   UNL     1       6.238   0.114  22.125  0.00  0.00    +0.000 C 
ATOM     26 BR   UNL     1       7.118  -1.619  22.058  0.00  0.00    +0.000 Br
ENDBRANCH  24  25
ENDBRANCH  23  24
ENDBRANCH  19  22
TORSDOF 4
ENDMDL
MODEL 5
REMARK VINA RESULT:      -6.2      8.231     10.339
REMARK  Name = 
REMARK  5 active torsions:
REMARK  status: ('A' for Active; 'I' for Inactive)
REMARK    1  A    between atoms: C_1  and  C_2
REMARK    2  A    between atoms: C_19  and  O_20
REMARK    3  A    between atoms: C_19  and  C_21
REMARK    4  A    between atoms: C_22  and  C_23
REMARK    5  A    between atoms: C_23  and  C_24
REMARK                            x       y       z     vdW  Elec       q    Type
REMARK                         _______ _______ _______ _____ _____    ______ ____
ROOT
ATOM      1  C   UNL     1       9.217  13.072  20.437  0.00  0.00    +0.000 C 
ATOM      2  C   UNL     1      10.507  13.341  19.476  0.00  0.00    +0.000 C 
ATOM      3  C   UNL     1      11.253  15.005  19.649  0.00  0.00    +0.000 C 
ATOM      4  C   UNL     1      10.204  15.798  20.269  0.00  0.00    +0.000 C 
ATOM      5  C   UNL     1       9.187  15.804  19.084  0.00  0.00    +0.000 C 
ATOM      6  C   UNL     1       7.837  16.019  19.717  0.00  0.00    +0.000 C 
ATOM      7  C   UNL     1       7.618  17.494  20.065  0.00  0.00    +0.000 C 
ATOM      8  C   UNL     1       6.402  17.554  20.954  0.00  0.00    +0.000 C 
ATOM      9  C   UNL     1       5.306  17.003  20.143  0.00  0.00    +0.000 C 
ATOM     10  O   UNL     1       4.457  17.662  19.763  0.00  0.00    +0.000 OA
ATOM     11  C   UNL     1       5.422  15.683  19.462  0.00  0.00    +0.000 C 
ATOM     12  C   UNL     1       6.643  15.363  19.053  0.00  0.00    +0.000 C 
ATOM     13  C   UNL     1       6.781  14.275  18.004  0.00  0.00    +0.000 C 
ATOM     14  C   UNL     1       8.106  14.334  17.132  0.00  0.00    +0.000 C 
ATOM     15  C   UNL     1       9.315  14.516  18.117  0.00  0.00    +0.000 C 
ATOM     16  C   UNL     1      10.920  13.740  18.130  0.00  0.00    +0.000 C 
ATOM     17  C   UNL     1      12.333  13.039  19.326  0.00  0.00    +0.000 C 
ATOM     18  C   UNL     1      11.854  11.668  19.954  0.00  0.00    +0.000 C 
ATOM     19  C   UNL     1      10.928  11.807  18.880  0.00  0.00    +0.000 C 
ENDROOT
BRANCH  19  20
ATOM     20  O   UNL     1      11.717  11.377  17.731  0.00  0.00    +0.000 OA
ATOM     21  H   UNL     1      11.280  10.708  17.181  0.00  0.00    +0.000 HD
ENDBRANCH  19  20
BRANCH  19  22
ATOM     22  C   UNL     1       9.737  11.147  18.589  0.00  0.00    +0.000 C 
ATOM     23  C   UNL     1       8.938  10.200  18.181  0.00  0.00    +0.000 C 
BRANCH  23  24
ATOM     24  C   UNL     1       8.008   9.097  17.705  0.00  0.00    +0.000 C 
BRANCH  24  25
ATOM     25  C   UNL     1       8.286   7.822  18.481  0.00  0.00    +0.000 C 
ATOM     26 BR   UNL     1       7.317   6.333  17.691  0.00  0.00    +0.000 Br
ENDBRANCH  24  25
ENDBRANCH  23  24
ENDBRANCH  19  22
TORSDOF 4
ENDMDL
MODEL 6
REMARK VINA RESULT:      -5.9     10.251     12.646
REMARK  Name = 
REMARK  5 active torsions:
REMARK  status: ('A' for Active; 'I' for Inactive)
REMARK    1  A    between atoms: C_1  and  C_2
REMARK    2  A    between atoms: C_19  and  O_20
REMARK    3  A    between atoms: C_19  and  C_21
REMARK    4  A    between atoms: C_22  and  C_23
REMARK    5  A    between atoms: C_23  and  C_24
REMARK                            x       y       z     vdW  Elec       q    Type
REMARK                         _______ _______ _______ _____ _____    ______ ____
ROOT
ATOM      1  C   UNL     1      11.510  15.740  19.914  0.00  0.00    +0.000 C 
ATOM      2  C   UNL     1      10.709  16.572  18.761  0.00  0.00    +0.000 C 
ATOM      3  C   UNL     1       9.850  18.073  19.363  0.00  0.00    +0.000 C 
ATOM      4  C   UNL     1       9.735  17.862  20.797  0.00  0.00    +0.000 C 
ATOM      5  C   UNL     1       8.734  16.664  20.775  0.00  0.00    +0.000 C 
ATOM      6  C   UNL     1       8.972  15.924  22.066  0.00  0.00    +0.000 C 
ATOM      7  C   UNL     1       8.285  16.626  23.240  0.00  0.00    +0.000 C 
ATOM      8  C   UNL     1       8.829  15.998  24.499  0.00  0.00    +0.000 C 
ATOM      9  C   UNL     1       8.462  14.576  24.407  0.00  0.00    +0.000 C 
ATOM     10  O   UNL     1       7.681  14.117  25.098  0.00  0.00    +0.000 OA
ATOM     11  C   UNL     1       8.785  13.759  23.203  0.00  0.00    +0.000 C 
ATOM     12  C   UNL     1       8.776  14.420  22.053  0.00  0.00    +0.000 C 
ATOM     13  C   UNL     1       8.671  13.616  20.770  0.00  0.00    +0.000 C 
ATOM     14  C   UNL     1       8.075  14.397  19.524  0.00  0.00    +0.000 C 
ATOM     15  C   UNL     1       8.819  15.776  19.428  0.00  0.00    +0.000 C 
ATOM     16  C   UNL     1       9.457  16.648  18.009  0.00  0.00    +0.000 C 
ATOM     17  C   UNL     1      10.940  17.806  17.393  0.00  0.00    +0.000 C 
ATOM     18  C   UNL     1      12.251  16.936  17.234  0.00  0.00    +0.000 C 
ATOM     19  C   UNL     1      11.260  15.914  17.295  0.00  0.00    +0.000 C 
ENDROOT
BRANCH  19  20
ATOM     20  O   UNL     1      10.715  15.927  15.941  0.00  0.00    +0.000 OA
ATOM     21  H   UNL     1      10.068  15.226  15.770  0.00  0.00    +0.000 HD
ENDBRANCH  19  20
BRANCH  19  22
ATOM     22  C   UNL     1      11.354  14.537  17.480  0.00  0.00    +0.000 C 
ATOM     23  C   UNL     1      10.991  13.284  17.505  0.00  0.00    +0.000 C 
BRANCH  23  24
ATOM     24  C   UNL     1      10.569  11.825  17.535  0.00  0.00    +0.000 C 
BRANCH  24  25
ATOM     25  C   UNL     1      10.672  11.292  18.952  0.00  0.00    +0.000 C 
ATOM     26 BR   UNL     1      12.324  11.901  19.778  0.00  0.00    +0.000 Br
ENDBRANCH  24  25
ENDBRANCH  23  24
ENDBRANCH  19  22
TORSDOF 4
ENDMDL
MODEL 7
REMARK VINA RESULT:      -5.6      7.986     10.234
REMARK  Name = 
REMARK  5 active torsions:
REMARK  status: ('A' for Active; 'I' for Inactive)
REMARK    1  A    between atoms: C_1  and  C_2
REMARK    2  A    between atoms: C_19  and  O_20
REMARK    3  A    between atoms: C_19  and  C_21
REMARK    4  A    between atoms: C_22  and  C_23
REMARK    5  A    between atoms: C_23  and  C_24
REMARK                            x       y       z     vdW  Elec       q    Type
REMARK                         _______ _______ _______ _____ _____    ______ ____
ROOT
ATOM      1  C   UNL     1      -2.567  14.702  20.802  0.00  0.00    +0.000 C 
ATOM      2  C   UNL     1      -2.883  13.771  22.104  0.00  0.00    +0.000 C 
ATOM      3  C   UNL     1      -1.651  13.902  23.453  0.00  0.00    +0.000 C 
ATOM      4  C   UNL     1      -0.476  14.457  22.803  0.00  0.00    +0.000 C 
ATOM      5  C   UNL     1      -0.120  13.243  21.890  0.00  0.00    +0.000 C 
ATOM      6  C   UNL     1       0.648  13.826  20.732  0.00  0.00    +0.000 C 
ATOM      7  C   UNL     1       2.102  14.108  21.119  0.00  0.00    +0.000 C 
ATOM      8  C   UNL     1       2.687  14.957  20.019  0.00  0.00    +0.000 C 
ATOM      9  C   UNL     1       2.583  14.135  18.804  0.00  0.00    +0.000 C 
ATOM     10  O   UNL     1       3.507  13.704  18.296  0.00  0.00    +0.000 OA
ATOM     11  C   UNL     1       1.296  13.510  18.388  0.00  0.00    +0.000 C 
ATOM     12  C   UNL     1       0.494  13.151  19.383  0.00  0.00    +0.000 C 
ATOM     13  C   UNL     1      -0.607  12.150  19.086  0.00  0.00    +0.000 C 
ATOM     14  C   UNL     1      -1.126  11.318  20.333  0.00  0.00    +0.000 C 
ATOM     15  C   UNL     1      -1.396  12.331  21.501  0.00  0.00    +0.000 C 
ATOM     16  C   UNL     1      -2.749  12.425  22.659  0.00  0.00    +0.000 C 
ATOM     17  C   UNL     1      -3.899  13.690  23.657  0.00  0.00    +0.000 C 
ATOM     18  C   UNL     1      -4.931  14.355  22.660  0.00  0.00    +0.000 C 
ATOM     19  C   UNL     1      -4.484  13.250  21.880  0.00  0.00    +0.000 C 
ENDROOT
BRANCH  19  20
ATOM     20  O   UNL     1      -5.250  12.143  22.444  0.00  0.00    +0.000 OA
ATOM     21  H   UNL     1      -5.432  12.233  23.392  0.00  0.00    +0.000 HD
ENDBRANCH  19  20
BRANCH  19  22
ATOM     22  C   UNL     1      -4.626  12.947  20.528  0.00  0.00    +0.000 C 
ATOM     23  C   UNL     1      -4.950  12.276  19.458  0.00  0.00    +0.000 C 
BRANCH  23  24
ATOM     24  C   UNL     1      -5.327  11.494  18.211  0.00  0.00    +0.000 C 
BRANCH  24  25
ATOM     25  C   UNL     1      -4.166  11.499  17.234  0.00  0.00    +0.000 C 
ATOM     26 BR   UNL     1      -3.139   9.856  17.405  0.00  0.00    +0.000 Br
ENDBRANCH  24  25
ENDBRANCH  23  24
ENDBRANCH  19  22
TORSDOF 4
ENDMDL
MODEL 8
REMARK VINA RESULT:      -5.6      4.229      8.865
REMARK  Name = 
REMARK  5 active torsions:
REMARK  status: ('A' for Active; 'I' for Inactive)
REMARK    1  A    between atoms: C_1  and  C_2
REMARK    2  A    between atoms: C_19  and  O_20
REMARK    3  A    between atoms: C_19  and  C_21
REMARK    4  A    between atoms: C_22  and  C_23
REMARK    5  A    between atoms: C_23  and  C_24
REMARK                            x       y       z     vdW  Elec       q    Type
REMARK                         _______ _______ _______ _____ _____    ______ ____
ROOT
ATOM      1  C   UNL     1       0.995  12.321  21.419  0.00  0.00    +0.000 C 
ATOM      2  C   UNL     1      -0.547  12.376  21.948  0.00  0.00    +0.000 C 
ATOM      3  C   UNL     1      -1.065  10.927  22.941  0.00  0.00    +0.000 C 
ATOM      4  C   UNL     1      -0.094   9.900  22.599  0.00  0.00    +0.000 C 
ATOM      5  C   UNL     1      -0.503   9.683  21.108  0.00  0.00    +0.000 C 
ATOM      6  C   UNL     1       0.732   9.149  20.430  0.00  0.00    +0.000 C 
ATOM      7  C   UNL     1       0.919   7.657  20.718  0.00  0.00    +0.000 C 
ATOM      8  C   UNL     1       2.313   7.299  20.266  0.00  0.00    +0.000 C 
ATOM      9  C   UNL     1       2.337   7.597  18.826  0.00  0.00    +0.000 C 
ATOM     10  O   UNL     1       2.398   6.768  18.047  0.00  0.00    +0.000 OA
ATOM     11  C   UNL     1       1.911   8.922  18.292  0.00  0.00    +0.000 C 
ATOM     12  C   UNL     1       0.947   9.524  18.977  0.00  0.00    +0.000 C 
ATOM     13  C   UNL     1       0.173  10.634  18.292  0.00  0.00    +0.000 C 
ATOM     14  C   UNL     1      -1.284  10.901  18.862  0.00  0.00    +0.000 C 
ATOM     15  C   UNL     1      -1.174  10.984  20.426  0.00  0.00    +0.000 C 
ATOM     16  C   UNL     1      -1.937  12.111  21.579  0.00  0.00    +0.000 C 
ATOM     17  C   UNL     1      -1.636  13.096  23.269  0.00  0.00    +0.000 C 
ATOM     18  C   UNL     1      -0.653  14.306  23.001  0.00  0.00    +0.000 C 
ATOM     19  C   UNL     1      -1.040  13.977  21.669  0.00  0.00    +0.000 C 
ENDROOT
BRANCH  19  20
ATOM     20  O   UNL     1      -2.355  14.602  21.565  0.00  0.00    +0.000 OA
ATOM     21  H   UNL     1      -2.590  15.154  22.326  0.00  0.00    +0.000 HD
ENDBRANCH  19  20
BRANCH  19  22
ATOM     22  C   UNL     1      -0.521  14.350  20.431  0.00  0.00    +0.000 C 
ATOM     23  C   UNL     1       0.113  15.062  19.541  0.00  0.00    +0.000 C 
BRANCH  23  24
ATOM     24  C   UNL     1       0.849  15.893  18.504  0.00  0.00    +0.000 C 
BRANCH  24  25
ATOM     25  C   UNL     1       2.318  15.510  18.493  0.00  0.00    +0.000 C 
ATOM     26 BR   UNL     1       2.509  13.593  18.227  0.00  0.00    +0.000 Br
ENDBRANCH  24  25
ENDBRANCH  23  24
ENDBRANCH  19  22
TORSDOF 4
ENDMDL
MODEL 9
REMARK VINA RESULT:      -5.5      9.754     11.426
REMARK  Name = 
REMARK  5 active torsions:
REMARK  status: ('A' for Active; 'I' for Inactive)
REMARK    1  A    between atoms: C_1  and  C_2
REMARK    2  A    between atoms: C_19  and  O_20
REMARK    3  A    between atoms: C_19  and  C_21
REMARK    4  A    between atoms: C_22  and  C_23
REMARK    5  A    between atoms: C_23  and  C_24
REMARK                            x       y       z     vdW  Elec       q    Type
REMARK                         _______ _______ _______ _____ _____    ______ ____
ROOT
ATOM      1  C   UNL     1       8.255  13.586  19.424  0.00  0.00    +0.000 C 
ATOM      2  C   UNL     1       9.493  12.587  19.785  0.00  0.00    +0.000 C 
ATOM      3  C   UNL     1       9.347  11.745  21.404  0.00  0.00    +0.000 C 
ATOM      4  C   UNL     1       8.384  12.553  22.135  0.00  0.00    +0.000 C 
ATOM      5  C   UNL     1       9.242  13.846  22.298  0.00  0.00    +0.000 C 
ATOM      6  C   UNL     1       8.248  14.967  22.457  0.00  0.00    +0.000 C 
ATOM      7  C   UNL     1       7.695  15.016  23.884  0.00  0.00    +0.000 C 
ATOM      8  C   UNL     1       6.509  15.947  23.858  0.00  0.00    +0.000 C 
ATOM      9  C   UNL     1       7.049  17.244  23.424  0.00  0.00    +0.000 C 
ATOM     10  O   UNL     1       7.111  18.131  24.137  0.00  0.00    +0.000 OA
ATOM     11  C   UNL     1       7.877  17.376  22.192  0.00  0.00    +0.000 C 
ATOM     12  C   UNL     1       8.633  16.325  21.903  0.00  0.00    +0.000 C 
ATOM     13  C   UNL     1       9.793  16.522  20.946  0.00  0.00    +0.000 C 
ATOM     14  C   UNL     1      10.978  15.477  21.086  0.00  0.00    +0.000 C 
ATOM     15  C   UNL     1      10.343  14.042  21.131  0.00  0.00    +0.000 C 
ATOM     16  C   UNL     1      10.848  12.530  20.333  0.00  0.00    +0.000 C 
ATOM     17  C   UNL     1      10.163  10.883  19.473  0.00  0.00    +0.000 C 
ATOM     18  C   UNL     1       9.583  11.242  18.046  0.00  0.00    +0.000 C 
ATOM     19  C   UNL     1      10.344  12.414  18.325  0.00  0.00    +0.000 C 
ENDROOT
BRANCH  19  20
ATOM     20  O   UNL     1      11.704  11.980  18.021  0.00  0.00    +0.000 OA
ATOM     21  H   UNL     1      12.026  11.264  18.590  0.00  0.00    +0.000 HD
ENDBRANCH  19  20
BRANCH  19  22
ATOM     22  C   UNL     1      10.374  13.669  17.723  0.00  0.00    +0.000 C 
ATOM     23  C   UNL     1      10.864  14.783  17.254  0.00  0.00    +0.000 C 
BRANCH  23  24
ATOM     24  C   UNL     1      11.435  16.082  16.709  0.00  0.00    +0.000 C 
BRANCH  24  25
ATOM     25  C   UNL     1      11.745  17.025  17.857  0.00  0.00    +0.000 C 
ATOM     26 BR   UNL     1      10.611  18.602  17.753  0.00  0.00    +0.000 Br
ENDBRANCH  24  25
ENDBRANCH  23  24
ENDBRANCH  19  22
TORSDOF 4
ENDMDL
