MODEL 1
REMARK VINA RESULT:      -5.8      0.000      0.000
REMARK  Name = 
REMARK  2 active torsions:
REMARK  status: ('A' for Active; 'I' for Inactive)
REMARK    1  A    between atoms: N_1  and  C_2
REMARK    2  A    between atoms: C_8  and  O_9
REMARK                            x       y       z     vdW  Elec       q    Type
REMARK                         _______ _______ _______ _____ _____    ______ ____
ROOT
ATOM      1  C   UNL     1       6.224   4.614  18.128  0.00  0.00    +0.000 A 
ATOM      2  N   UNL     1       6.740   5.681  18.781  0.00  0.00    +0.000 NA
ATOM      3  C   UNL     1       7.398   6.618  18.063  0.00  0.00    +0.000 A 
ATOM      4  N   UNL     1       7.628   6.649  16.731  0.00  0.00    +0.000 NA
ATOM      5  C   UNL     1       7.097   5.570  16.140  0.00  0.00    +0.000 A 
ATOM      6  N   UNL     1       7.126   5.257  14.810  0.00  0.00    +0.000 N 
ATOM      7  C   UNL     1       6.458   4.068  14.660  0.00  0.00    +0.000 A 
ATOM      8  N   UNL     1       6.008   3.602  15.799  0.00  0.00    +0.000 NA
ATOM      9  C   UNL     1       6.400   4.534  16.737  0.00  0.00    +0.000 A 
ATOM     10  H   UNL     1       7.562   5.814  14.095  0.00  0.00    +0.000 HD
ENDROOT
BRANCH   1  11
ATOM     11  N   UNL     1       5.551   3.655  18.848  0.00  0.00    +0.000 N 
ATOM     12  H   UNL     1       5.880   2.704  18.815  0.00  0.00    +0.000 HD
ATOM     13  H   UNL     1       4.743   3.932  19.388  0.00  0.00    +0.000 HD
ENDBRANCH   1  11
BRANCH   7  14
ATOM     14  O   UNL     1       6.277   3.445  13.510  0.00  0.00    +0.000 OA
ATOM     15  H   UNL     1       6.357   4.075  12.779  0.00  0.00    +0.000 HD
ENDBRANCH   7  14
TORSDOF 2
ENDMDL
MODEL 2
REMARK VINA RESULT:      -5.6      4.994      6.573
REMARK  Name = 
REMARK  2 active torsions:
REMARK  status: ('A' for Active; 'I' for Inactive)
REMARK    1  A    between atoms: N_1  and  C_2
REMARK    2  A    between atoms: C_8  and  O_9
REMARK                            x       y       z     vdW  Elec       q    Type
REMARK                         _______ _______ _______ _____ _____    ______ ____
ROOT
ATOM      1  C   UNL     1       3.988   3.192  18.904  0.00  0.00    +0.000 A 
ATOM      2  N   UNL     1       3.728   3.476  17.607  0.00  0.00    +0.000 NA
ATOM      3  C   UNL     1       2.437   3.584  17.219  0.00  0.00    +0.000 A 
ATOM      4  N   UNL     1       1.320   3.444  17.966  0.00  0.00    +0.000 NA
ATOM      5  C   UNL     1       1.639   3.163  19.237  0.00  0.00    +0.000 A 
ATOM      6  N   UNL     1       0.781   2.955  20.279  0.00  0.00    +0.000 N 
ATOM      7  C   UNL     1       1.546   2.702  21.389  0.00  0.00    +0.000 A 
ATOM      8  N   UNL     1       2.830   2.733  21.127  0.00  0.00    +0.000 NA
ATOM      9  C   UNL     1       2.905   3.022  19.780  0.00  0.00    +0.000 A 
ATOM     10  H   UNL     1      -0.223   2.989  20.216  0.00  0.00    +0.000 HD
ENDROOT
BRANCH   1  11
ATOM     11  N   UNL     1       5.297   3.080  19.311  0.00  0.00    +0.000 N 
ATOM     12  H   UNL     1       5.506   3.139  20.294  0.00  0.00    +0.000 HD
ATOM     13  H   UNL     1       6.013   2.946  18.610  0.00  0.00    +0.000 HD
ENDBRANCH   1  11
BRANCH   7  14
ATOM     14  O   UNL     1       1.068   2.453  22.595  0.00  0.00    +0.000 OA
ATOM     15  H   UNL     1       0.674   3.257  22.964  0.00  0.00    +0.000 HD
ENDBRANCH   7  14
TORSDOF 2
ENDMDL
MODEL 3
REMARK VINA RESULT:      -5.5      2.595      3.604
REMARK  Name = 
REMARK  2 active torsions:
REMARK  status: ('A' for Active; 'I' for Inactive)
REMARK    1  A    between atoms: N_1  and  C_2
REMARK    2  A    between atoms: C_8  and  O_9
REMARK                            x       y       z     vdW  Elec       q    Type
REMARK                         _______ _______ _______ _____ _____    ______ ____
ROOT
ATOM      1  C   UNL     1       5.317   3.993  16.921  0.00  0.00    +0.000 A 
ATOM      2  N   UNL     1       5.342   4.298  15.603  0.00  0.00    +0.000 NA
ATOM      3  C   UNL     1       6.234   5.220  15.174  0.00  0.00    +0.000 A 
ATOM      4  N   UNL     1       7.143   5.912  15.898  0.00  0.00    +0.000 NA
ATOM      5  C   UNL     1       7.070   5.568  17.192  0.00  0.00    +0.000 A 
ATOM      6  N   UNL     1       7.827   6.053  18.220  0.00  0.00    +0.000 N 
ATOM      7  C   UNL     1       7.410   5.419  19.362  0.00  0.00    +0.000 A 
ATOM      8  N   UNL     1       6.441   4.567  19.135  0.00  0.00    +0.000 NA
ATOM      9  C   UNL     1       6.216   4.648  17.776  0.00  0.00    +0.000 A 
ATOM     10  H   UNL     1       8.551   6.745  18.128  0.00  0.00    +0.000 HD
ENDROOT
BRANCH   1  11
ATOM     11  N   UNL     1       4.415   3.055  17.368  0.00  0.00    +0.000 N 
ATOM     12  H   UNL     1       3.772   3.311  18.099  0.00  0.00    +0.000 HD
ATOM     13  H   UNL     1       4.426   2.134  16.952  0.00  0.00    +0.000 HD
ENDBRANCH   1  11
BRANCH   7  14
ATOM     14  O   UNL     1       7.912   5.626  20.566  0.00  0.00    +0.000 OA
ATOM     15  H   UNL     1       7.309   5.275  21.238  0.00  0.00    +0.000 HD
ENDBRANCH   7  14
TORSDOF 2
ENDMDL
MODEL 4
REMARK VINA RESULT:      -5.4      3.702      4.832
REMARK  Name = 
REMARK  2 active torsions:
REMARK  status: ('A' for Active; 'I' for Inactive)
REMARK    1  A    between atoms: N_1  and  C_2
REMARK    2  A    between atoms: C_8  and  O_9
REMARK                            x       y       z     vdW  Elec       q    Type
REMARK                         _______ _______ _______ _____ _____    ______ ____
ROOT
ATOM      1  C   UNL     1       3.295   2.478  18.207  0.00  0.00    +0.000 A 
ATOM      2  N   UNL     1       2.057   2.743  17.731  0.00  0.00    +0.000 NA
ATOM      3  C   UNL     1       1.654   4.032  17.667  0.00  0.00    +0.000 A 
ATOM      4  N   UNL     1       2.335   5.144  18.023  0.00  0.00    +0.000 NA
ATOM      5  C   UNL     1       3.551   4.820  18.487  0.00  0.00    +0.000 A 
ATOM      6  N   UNL     1       4.518   5.672  18.938  0.00  0.00    +0.000 N 
ATOM      7  C   UNL     1       5.592   4.904  19.309  0.00  0.00    +0.000 A 
ATOM      8  N   UNL     1       5.376   3.625  19.128  0.00  0.00    +0.000 NA
ATOM      9  C   UNL     1       4.099   3.555  18.612  0.00  0.00    +0.000 A 
ATOM     10  H   UNL     1       4.432   6.674  18.978  0.00  0.00    +0.000 HD
ENDROOT
BRANCH   1  11
ATOM     11  N   UNL     1       3.716   1.171  18.276  0.00  0.00    +0.000 N 
ATOM     12  H   UNL     1       3.585   0.664  19.136  0.00  0.00    +0.000 HD
ATOM     13  H   UNL     1       4.148   0.756  17.461  0.00  0.00    +0.000 HD
ENDBRANCH   1  11
BRANCH   7  14
ATOM     14  O   UNL     1       6.725   5.377  19.796  0.00  0.00    +0.000 OA
ATOM     15  H   UNL     1       7.409   4.692  19.761  0.00  0.00    +0.000 HD
ENDBRANCH   7  14
TORSDOF 2
ENDMDL
MODEL 5
REMARK VINA RESULT:      -5.4      2.405      2.887
REMARK  Name = 
REMARK  2 active torsions:
REMARK  status: ('A' for Active; 'I' for Inactive)
REMARK    1  A    between atoms: N_1  and  C_2
REMARK    2  A    between atoms: C_8  and  O_9
REMARK                            x       y       z     vdW  Elec       q    Type
REMARK                         _______ _______ _______ _____ _____    ______ ____
ROOT
ATOM      1  C   UNL     1       7.693   5.899  19.155  0.00  0.00    +0.000 A 
ATOM      2  N   UNL     1       8.171   7.029  18.584  0.00  0.00    +0.000 NA
ATOM      3  C   UNL     1       7.529   7.524  17.502  0.00  0.00    +0.000 A 
ATOM      4  N   UNL     1       6.433   7.037  16.879  0.00  0.00    +0.000 NA
ATOM      5  C   UNL     1       6.006   5.921  17.487  0.00  0.00    +0.000 A 
ATOM      6  N   UNL     1       4.931   5.151  17.144  0.00  0.00    +0.000 N 
ATOM      7  C   UNL     1       4.873   4.115  18.041  0.00  0.00    +0.000 A 
ATOM      8  N   UNL     1       5.836   4.169  18.928  0.00  0.00    +0.000 NA
ATOM      9  C   UNL     1       6.555   5.298  18.595  0.00  0.00    +0.000 A 
ATOM     10  H   UNL     1       4.312   5.335  16.373  0.00  0.00    +0.000 HD
ENDROOT
BRANCH   1  11
ATOM     11  N   UNL     1       8.337   5.387  20.257  0.00  0.00    +0.000 N 
ATOM     12  H   UNL     1       8.577   6.009  21.012  0.00  0.00    +0.000 HD
ATOM     13  H   UNL     1       8.556   4.400  20.276  0.00  0.00    +0.000 HD
ENDBRANCH   1  11
BRANCH   7  14
ATOM     14  O   UNL     1       3.961   3.159  18.031  0.00  0.00    +0.000 OA
ATOM     15  H   UNL     1       3.300   3.331  18.717  0.00  0.00    +0.000 HD
ENDBRANCH   7  14
TORSDOF 2
ENDMDL
MODEL 6
REMARK VINA RESULT:      -5.3      4.645      5.785
REMARK  Name = 
REMARK  2 active torsions:
REMARK  status: ('A' for Active; 'I' for Inactive)
REMARK    1  A    between atoms: N_1  and  C_2
REMARK    2  A    between atoms: C_8  and  O_9
REMARK                            x       y       z     vdW  Elec       q    Type
REMARK                         _______ _______ _______ _____ _____    ______ ____
ROOT
ATOM      1  C   UNL     1       1.597   3.486  19.433  0.00  0.00    +0.000 A 
ATOM      2  N   UNL     1       1.407   3.996  18.195  0.00  0.00    +0.000 NA
ATOM      3  C   UNL     1       2.436   3.958  17.319  0.00  0.00    +0.000 A 
ATOM      4  N   UNL     1       3.681   3.464  17.505  0.00  0.00    +0.000 NA
ATOM      5  C   UNL     1       3.809   2.975  18.747  0.00  0.00    +0.000 A 
ATOM      6  N   UNL     1       4.917   2.398  19.298  0.00  0.00    +0.000 N 
ATOM      7  C   UNL     1       4.593   2.046  20.584  0.00  0.00    +0.000 A 
ATOM      8  N   UNL     1       3.359   2.361  20.890  0.00  0.00    +0.000 NA
ATOM      9  C   UNL     1       2.853   2.945  19.748  0.00  0.00    +0.000 A 
ATOM     10  H   UNL     1       5.795   2.265  18.825  0.00  0.00    +0.000 HD
ENDROOT
BRANCH   1  11
ATOM     11  N   UNL     1       0.556   3.519  20.332  0.00  0.00    +0.000 N 
ATOM     12  H   UNL     1       0.727   3.236  21.283  0.00  0.00    +0.000 HD
ATOM     13  H   UNL     1      -0.353   3.824  20.012  0.00  0.00    +0.000 HD
ENDBRANCH   1  11
BRANCH   7  14
ATOM     14  O   UNL     1       5.413   1.457  21.435  0.00  0.00    +0.000 OA
ATOM     15  H   UNL     1       6.279   1.329  21.021  0.00  0.00    +0.000 HD
ENDBRANCH   7  14
TORSDOF 2
ENDMDL
MODEL 7
REMARK VINA RESULT:      -5.3      3.962      5.570
REMARK  Name = 
REMARK  2 active torsions:
REMARK  status: ('A' for Active; 'I' for Inactive)
REMARK    1  A    between atoms: N_1  and  C_2
REMARK    2  A    between atoms: C_8  and  O_9
REMARK                            x       y       z     vdW  Elec       q    Type
REMARK                         _______ _______ _______ _____ _____    ______ ____
ROOT
ATOM      1  C   UNL     1       2.129   5.031  20.354  0.00  0.00    +0.000 A 
ATOM      2  N   UNL     1       1.049   4.244  20.561  0.00  0.00    +0.000 NA
ATOM      3  C   UNL     1       1.123   2.943  20.200  0.00  0.00    +0.000 A 
ATOM      4  N   UNL     1       2.161   2.284  19.638  0.00  0.00    +0.000 NA
ATOM      5  C   UNL     1       3.198   3.114  19.456  0.00  0.00    +0.000 A 
ATOM      6  N   UNL     1       4.416   2.810  18.917  0.00  0.00    +0.000 N 
ATOM      7  C   UNL     1       5.162   3.960  18.930  0.00  0.00    +0.000 A 
ATOM      8  N   UNL     1       4.506   4.975  19.436  0.00  0.00    +0.000 NA
ATOM      9  C   UNL     1       3.271   4.459  19.773  0.00  0.00    +0.000 A 
ATOM     10  H   UNL     1       4.688   1.901  18.582  0.00  0.00    +0.000 HD
ENDROOT
BRANCH   1  11
ATOM     11  N   UNL     1       2.065   6.356  20.718  0.00  0.00    +0.000 N 
ATOM     12  H   UNL     1       1.586   7.003  20.114  0.00  0.00    +0.000 HD
ATOM     13  H   UNL     1       2.505   6.644  21.582  0.00  0.00    +0.000 HD
ENDBRANCH   1  11
BRANCH   7  14
ATOM     14  O   UNL     1       6.402   4.060  18.487  0.00  0.00    +0.000 OA
ATOM     15  H   UNL     1       6.700   4.979  18.550  0.00  0.00    +0.000 HD
ENDBRANCH   7  14
TORSDOF 2
ENDMDL
MODEL 8
REMARK VINA RESULT:      -5.3      1.409      2.553
REMARK  Name = 
REMARK  2 active torsions:
REMARK  status: ('A' for Active; 'I' for Inactive)
REMARK    1  A    between atoms: N_1  and  C_2
REMARK    2  A    between atoms: C_8  and  O_9
REMARK                            x       y       z     vdW  Elec       q    Type
REMARK                         _______ _______ _______ _____ _____    ______ ____
ROOT
ATOM      1  C   UNL     1       6.353   4.749  18.722  0.00  0.00    +0.000 A 
ATOM      2  N   UNL     1       5.285   4.121  19.265  0.00  0.00    +0.000 NA
ATOM      3  C   UNL     1       4.391   3.539  18.435  0.00  0.00    +0.000 A 
ATOM      4  N   UNL     1       4.406   3.490  17.084  0.00  0.00    +0.000 NA
ATOM      5  C   UNL     1       5.483   4.128  16.604  0.00  0.00    +0.000 A 
ATOM      6  N   UNL     1       5.836   4.286  15.294  0.00  0.00    +0.000 N 
ATOM      7  C   UNL     1       7.007   4.999  15.275  0.00  0.00    +0.000 A 
ATOM      8  N   UNL     1       7.424   5.308  16.478  0.00  0.00    +0.000 NA
ATOM      9  C   UNL     1       6.478   4.767  17.324  0.00  0.00    +0.000 A 
ATOM     10  H   UNL     1       5.315   3.932  14.509  0.00  0.00    +0.000 HD
ENDROOT
BRANCH   1  11
ATOM     11  N   UNL     1       7.270   5.344  19.557  0.00  0.00    +0.000 N 
ATOM     12  H   UNL     1       8.248   5.281  19.327  0.00  0.00    +0.000 HD
ATOM     13  H   UNL     1       6.936   5.826  20.381  0.00  0.00    +0.000 HD
ENDBRANCH   1  11
BRANCH   7  14
ATOM     14  O   UNL     1       7.660   5.348  14.180  0.00  0.00    +0.000 OA
ATOM     15  H   UNL     1       7.555   6.297  14.024  0.00  0.00    +0.000 HD
ENDBRANCH   7  14
TORSDOF 2
ENDMDL
MODEL 9
REMARK VINA RESULT:      -5.3      2.373      3.477
REMARK  Name = 
REMARK  2 active torsions:
REMARK  status: ('A' for Active; 'I' for Inactive)
REMARK    1  A    between atoms: N_1  and  C_2
REMARK    2  A    between atoms: C_8  and  O_9
REMARK                            x       y       z     vdW  Elec       q    Type
REMARK                         _______ _______ _______ _____ _____    ______ ____
ROOT
ATOM      1  C   UNL     1       5.635   4.212  17.791  0.00  0.00    +0.000 A 
ATOM      2  N   UNL     1       5.089   3.851  16.607  0.00  0.00    +0.000 NA
ATOM      3  C   UNL     1       5.404   4.573  15.507  0.00  0.00    +0.000 A 
ATOM      4  N   UNL     1       6.218   5.648  15.412  0.00  0.00    +0.000 NA
ATOM      5  C   UNL     1       6.727   5.957  16.612  0.00  0.00    +0.000 A 
ATOM      6  N   UNL     1       7.587   6.976  16.909  0.00  0.00    +0.000 N 
ATOM      7  C   UNL     1       7.841   6.912  18.255  0.00  0.00    +0.000 A 
ATOM      8  N   UNL     1       7.203   5.927  18.837  0.00  0.00    +0.000 NA
ATOM      9  C   UNL     1       6.500   5.317  17.819  0.00  0.00    +0.000 A 
ATOM     10  H   UNL     1       7.952   7.636  16.242  0.00  0.00    +0.000 HD
ENDROOT
BRANCH   1  11
ATOM     11  N   UNL     1       5.323   3.484  18.916  0.00  0.00    +0.000 N 
ATOM     12  H   UNL     1       4.395   3.105  19.006  0.00  0.00    +0.000 HD
ATOM     13  H   UNL     1       6.035   3.354  19.622  0.00  0.00    +0.000 HD
ENDBRANCH   1  11
BRANCH   7  14
ATOM     14  O   UNL     1       8.634   7.738  18.913  0.00  0.00    +0.000 OA
ATOM     15  H   UNL     1       8.156   8.553  19.126  0.00  0.00    +0.000 HD
ENDBRANCH   7  14
TORSDOF 2
ENDMDL
