MODEL 1
REMARK VINA RESULT:      -7.9      0.000      0.000
REMARK  Name = 
REMARK  4 active torsions:
REMARK  status: ('A' for Active; 'I' for Inactive)
REMARK    1  A    between atoms: C_2  and  C_3
REMARK    2  A    between atoms: C_6  and  S_7
REMARK    3  A    between atoms: S_7  and  N_10
REMARK    4  A    between atoms: N_10  and  C_11
REMARK                            x       y       z     vdW  Elec       q    Type
REMARK                         _______ _______ _______ _____ _____    ______ ____
ROOT
ATOM      1  C   UNL     1       2.621   6.935  18.753  0.00  0.00    +0.000 A 
ATOM      2  C   UNL     1       2.386   8.044  17.925  0.00  0.00    +0.000 A 
ATOM      3  C   UNL     1       1.706   9.162  18.421  0.00  0.00    +0.000 A 
ATOM      4  C   UNL     1       1.225   9.154  19.733  0.00  0.00    +0.000 A 
ATOM      5  C   UNL     1       1.508   8.085  20.583  0.00  0.00    +0.000 A 
ATOM      6  C   UNL     1       2.242   7.001  20.098  0.00  0.00    +0.000 A 
ENDROOT
BRANCH   1   8
ATOM      7  O   UNL     1       4.315   5.951  17.480  0.00  0.00    +0.000 OA
ATOM      8  C   UNL     1       3.326   5.748  18.185  0.00  0.00    +0.000 C 
ATOM      9  N   UNL     1       2.833   4.470  18.422  0.00  0.00    +0.000 N 
ATOM     10  C   UNL     1       3.493   3.305  17.854  0.00  0.00    +0.000 C 
ATOM     11  C   UNL     1       2.370   2.302  17.634  0.00  0.00    +0.000 C 
ATOM     12  C   UNL     1       1.415   2.598  18.779  0.00  0.00    +0.000 C 
ATOM     13  C   UNL     1       1.527   4.103  18.962  0.00  0.00    +0.000 C 
ENDBRANCH   1   8
BRANCH   4  14
ATOM     14  S   UNL     1       0.361  10.571  20.369  0.00  0.00    +0.000 S 
ATOM     15  O   UNL     1      -0.834  10.091  21.023  0.00  0.00    +0.000 OA
ATOM     16  O   UNL     1       1.318  11.399  21.071  0.00  0.00    +0.000 OA
BRANCH  14  17
ATOM     17  N   UNL     1      -0.170  11.362  18.960  0.00  0.00    +0.000 N 
ATOM     18  H   UNL     1       0.537  11.228  18.233  0.00  0.00    +0.000 HD
BRANCH  17  19
ATOM     19  C   UNL     1      -1.520  11.105  18.552  0.00  0.00    +0.000 A 
ATOM     20  C   UNL     1      -1.743  10.085  17.626  0.00  0.00    +0.000 A 
ATOM     21  C   UNL     1      -3.028   9.855  17.132  0.00  0.00    +0.000 A 
ATOM     22  C   UNL     1      -4.094  10.646  17.560  0.00  0.00    +0.000 A 
ATOM     23  C   UNL     1      -3.880  11.661  18.495  0.00  0.00    +0.000 A 
ATOM     24  C   UNL     1      -2.596  11.892  18.993  0.00  0.00    +0.000 A 
ATOM     25 CL   UNL     1      -2.379  13.129  20.178  0.00  0.00    +0.000 Cl
ENDBRANCH  17  19
ENDBRANCH  14  17
ENDBRANCH   4  14
TORSDOF 4
ENDMDL
MODEL 2
REMARK VINA RESULT:      -7.9      0.297      1.030
REMARK  Name = 
REMARK  4 active torsions:
REMARK  status: ('A' for Active; 'I' for Inactive)
REMARK    1  A    between atoms: C_2  and  C_3
REMARK    2  A    between atoms: C_6  and  S_7
REMARK    3  A    between atoms: S_7  and  N_10
REMARK    4  A    between atoms: N_10  and  C_11
REMARK                            x       y       z     vdW  Elec       q    Type
REMARK                         _______ _______ _______ _____ _____    ______ ____
ROOT
ATOM      1  C   UNL     1       2.736   6.832  18.751  0.00  0.00    +0.000 A 
ATOM      2  C   UNL     1       2.231   6.940  20.055  0.00  0.00    +0.000 A 
ATOM      3  C   UNL     1       1.531   8.086  20.447  0.00  0.00    +0.000 A 
ATOM      4  C   UNL     1       1.372   9.142  19.546  0.00  0.00    +0.000 A 
ATOM      5  C   UNL     1       1.814   9.020  18.229  0.00  0.00    +0.000 A 
ATOM      6  C   UNL     1       2.456   7.846  17.829  0.00  0.00    +0.000 A 
ENDROOT
BRANCH   1   8
ATOM      7  O   UNL     1       4.631   5.759  17.904  0.00  0.00    +0.000 OA
ATOM      8  C   UNL     1       3.502   5.607  18.372  0.00  0.00    +0.000 C 
ATOM      9  N   UNL     1       2.917   4.354  18.511  0.00  0.00    +0.000 N 
ATOM     10  C   UNL     1       3.641   3.153  18.122  0.00  0.00    +0.000 C 
ATOM     11  C   UNL     1       2.557   2.187  17.669  0.00  0.00    +0.000 C 
ATOM     12  C   UNL     1       1.382   2.542  18.567  0.00  0.00    +0.000 C 
ATOM     13  C   UNL     1       1.511   4.046  18.749  0.00  0.00    +0.000 C 
ENDBRANCH   1   8
BRANCH   4  14
ATOM     14  S   UNL     1       0.483  10.601  20.037  0.00  0.00    +0.000 S 
ATOM     15  O   UNL     1      -0.703  10.168  20.740  0.00  0.00    +0.000 OA
ATOM     16  O   UNL     1       1.425  11.513  20.649  0.00  0.00    +0.000 OA
BRANCH  14  17
ATOM     17  N   UNL     1      -0.065  11.234  18.557  0.00  0.00    +0.000 N 
ATOM     18  H   UNL     1       0.601  10.964  17.828  0.00  0.00    +0.000 HD
BRANCH  17  19
ATOM     19  C   UNL     1      -1.444  11.011  18.235  0.00  0.00    +0.000 A 
ATOM     20  C   UNL     1      -1.752   9.980  17.346  0.00  0.00    +0.000 A 
ATOM     21  C   UNL     1      -3.070   9.780  16.934  0.00  0.00    +0.000 A 
ATOM     22  C   UNL     1      -4.085  10.612  17.408  0.00  0.00    +0.000 A 
ATOM     23  C   UNL     1      -3.785  11.638  18.307  0.00  0.00    +0.000 A 
ATOM     24  C   UNL     1      -2.467  11.838  18.722  0.00  0.00    +0.000 A 
ATOM     25 CL   UNL     1      -2.144  13.091  19.866  0.00  0.00    +0.000 Cl
ENDBRANCH  17  19
ENDBRANCH  14  17
ENDBRANCH   4  14
TORSDOF 4
ENDMDL
MODEL 3
REMARK VINA RESULT:      -7.8      4.009      7.652
REMARK  Name = 
REMARK  4 active torsions:
REMARK  status: ('A' for Active; 'I' for Inactive)
REMARK    1  A    between atoms: C_2  and  C_3
REMARK    2  A    between atoms: C_6  and  S_7
REMARK    3  A    between atoms: S_7  and  N_10
REMARK    4  A    between atoms: N_10  and  C_11
REMARK                            x       y       z     vdW  Elec       q    Type
REMARK                         _______ _______ _______ _____ _____    ______ ____
ROOT
ATOM      1  C   UNL     1       2.347   7.843  18.744  0.00  0.00    +0.000 A 
ATOM      2  C   UNL     1       3.120   7.847  17.574  0.00  0.00    +0.000 A 
ATOM      3  C   UNL     1       4.120   6.887  17.385  0.00  0.00    +0.000 A 
ATOM      4  C   UNL     1       4.375   5.948  18.388  0.00  0.00    +0.000 A 
ATOM      5  C   UNL     1       3.572   5.894  19.527  0.00  0.00    +0.000 A 
ATOM      6  C   UNL     1       2.535   6.817  19.677  0.00  0.00    +0.000 A 
ENDROOT
BRANCH   1   8
ATOM      7  O   UNL     1       0.984   9.561  17.940  0.00  0.00    +0.000 OA
ATOM      8  C   UNL     1       1.306   8.897  18.926  0.00  0.00    +0.000 C 
ATOM      9  N   UNL     1       0.769   9.132  20.186  0.00  0.00    +0.000 N 
ATOM     10  C   UNL     1      -0.228  10.174  20.384  0.00  0.00    +0.000 C 
ATOM     11  C   UNL     1       0.005  10.656  21.808  0.00  0.00    +0.000 C 
ATOM     12  C   UNL     1       0.464   9.398  22.527  0.00  0.00    +0.000 C 
ATOM     13  C   UNL     1       1.265   8.652  21.472  0.00  0.00    +0.000 C 
ENDBRANCH   1   8
BRANCH   4  14
ATOM     14  S   UNL     1       5.644   4.725  18.155  0.00  0.00    +0.000 S 
ATOM     15  O   UNL     1       6.478   5.171  17.064  0.00  0.00    +0.000 OA
ATOM     16  O   UNL     1       6.207   4.414  19.451  0.00  0.00    +0.000 OA
BRANCH  14  17
ATOM     17  N   UNL     1       4.782   3.385  17.559  0.00  0.00    +0.000 N 
ATOM     18  H   UNL     1       5.410   2.577  17.555  0.00  0.00    +0.000 HD
BRANCH  17  19
ATOM     19  C   UNL     1       3.489   3.149  18.130  0.00  0.00    +0.000 A 
ATOM     20  C   UNL     1       2.372   3.647  17.454  0.00  0.00    +0.000 A 
ATOM     21  C   UNL     1       1.100   3.519  18.013  0.00  0.00    +0.000 A 
ATOM     22  C   UNL     1       0.940   2.896  19.251  0.00  0.00    +0.000 A 
ATOM     23  C   UNL     1       2.051   2.387  19.927  0.00  0.00    +0.000 A 
ATOM     24  C   UNL     1       3.324   2.511  19.368  0.00  0.00    +0.000 A 
ATOM     25 CL   UNL     1       4.667   1.831  20.215  0.00  0.00    +0.000 Cl
ENDBRANCH  17  19
ENDBRANCH  14  17
ENDBRANCH   4  14
TORSDOF 4
ENDMDL
MODEL 4
REMARK VINA RESULT:      -7.8      1.650      2.356
REMARK  Name = 
REMARK  4 active torsions:
REMARK  status: ('A' for Active; 'I' for Inactive)
REMARK    1  A    between atoms: C_2  and  C_3
REMARK    2  A    between atoms: C_6  and  S_7
REMARK    3  A    between atoms: S_7  and  N_10
REMARK    4  A    between atoms: N_10  and  C_11
REMARK                            x       y       z     vdW  Elec       q    Type
REMARK                         _______ _______ _______ _____ _____    ______ ____
ROOT
ATOM      1  C   UNL     1       2.909   6.708  18.310  0.00  0.00    +0.000 A 
ATOM      2  C   UNL     1       2.623   7.877  17.590  0.00  0.00    +0.000 A 
ATOM      3  C   UNL     1       1.913   8.921  18.194  0.00  0.00    +0.000 A 
ATOM      4  C   UNL     1       1.453   8.777  19.505  0.00  0.00    +0.000 A 
ATOM      5  C   UNL     1       1.785   7.646  20.251  0.00  0.00    +0.000 A 
ATOM      6  C   UNL     1       2.548   6.637  19.660  0.00  0.00    +0.000 A 
ENDROOT
BRANCH   1   8
ATOM      7  O   UNL     1       3.048   4.540  17.451  0.00  0.00    +0.000 OA
ATOM      8  C   UNL     1       3.645   5.602  17.628  0.00  0.00    +0.000 C 
ATOM      9  N   UNL     1       4.974   5.778  17.260  0.00  0.00    +0.000 N 
ATOM     10  C   UNL     1       5.713   4.701  16.618  0.00  0.00    +0.000 C 
ATOM     11  C   UNL     1       7.151   4.908  17.067  0.00  0.00    +0.000 C 
ATOM     12  C   UNL     1       7.260   6.419  17.188  0.00  0.00    +0.000 C 
ATOM     13  C   UNL     1       5.883   6.841  17.675  0.00  0.00    +0.000 C 
ENDBRANCH   1   8
BRANCH   4  14
ATOM     14  S   UNL     1       0.551  10.100  20.278  0.00  0.00    +0.000 S 
ATOM     15  O   UNL     1      -0.676   9.540  20.796  0.00  0.00    +0.000 OA
ATOM     16  O   UNL     1       1.466  10.822  21.136  0.00  0.00    +0.000 OA
BRANCH  14  17
ATOM     17  N   UNL     1       0.094  11.074  18.962  0.00  0.00    +0.000 N 
ATOM     18  H   UNL     1       0.824  11.009  18.247  0.00  0.00    +0.000 HD
BRANCH  17  19
ATOM     19  C   UNL     1      -1.247  10.913  18.480  0.00  0.00    +0.000 A 
ATOM     20  C   UNL     1      -1.472   9.976  17.469  0.00  0.00    +0.000 A 
ATOM     21  C   UNL     1      -2.742   9.844  16.906  0.00  0.00    +0.000 A 
ATOM     22  C   UNL     1      -3.791  10.650  17.351  0.00  0.00    +0.000 A 
ATOM     23  C   UNL     1      -3.575  11.580  18.369  0.00  0.00    +0.000 A 
ATOM     24  C   UNL     1      -2.306  11.712  18.936  0.00  0.00    +0.000 A 
ATOM     25 CL   UNL     1      -2.089  12.845  20.222  0.00  0.00    +0.000 Cl
ENDBRANCH  17  19
ENDBRANCH  14  17
ENDBRANCH   4  14
TORSDOF 4
ENDMDL
MODEL 5
REMARK VINA RESULT:      -7.8      1.080      1.160
REMARK  Name = 
REMARK  4 active torsions:
REMARK  status: ('A' for Active; 'I' for Inactive)
REMARK    1  A    between atoms: C_2  and  C_3
REMARK    2  A    between atoms: C_6  and  S_7
REMARK    3  A    between atoms: S_7  and  N_10
REMARK    4  A    between atoms: N_10  and  C_11
REMARK                            x       y       z     vdW  Elec       q    Type
REMARK                         _______ _______ _______ _____ _____    ______ ____
ROOT
ATOM      1  C   UNL     1       2.706   7.226  18.663  0.00  0.00    +0.000 A 
ATOM      2  C   UNL     1       2.516   8.187  17.659  0.00  0.00    +0.000 A 
ATOM      3  C   UNL     1       1.733   9.319  17.905  0.00  0.00    +0.000 A 
ATOM      4  C   UNL     1       1.105   9.470  19.144  0.00  0.00    +0.000 A 
ATOM      5  C   UNL     1       1.337   8.555  20.171  0.00  0.00    +0.000 A 
ATOM      6  C   UNL     1       2.171   7.460  19.935  0.00  0.00    +0.000 A 
ENDROOT
BRANCH   1   8
ATOM      7  O   UNL     1       4.693   6.188  18.008  0.00  0.00    +0.000 OA
ATOM      8  C   UNL     1       3.525   6.016  18.360  0.00  0.00    +0.000 C 
ATOM      9  N   UNL     1       2.951   4.752  18.434  0.00  0.00    +0.000 N 
ATOM     10  C   UNL     1       3.729   3.565  18.115  0.00  0.00    +0.000 C 
ATOM     11  C   UNL     1       2.712   2.584  17.553  0.00  0.00    +0.000 C 
ATOM     12  C   UNL     1       1.448   2.916  18.329  0.00  0.00    +0.000 C 
ATOM     13  C   UNL     1       1.532   4.421  18.529  0.00  0.00    +0.000 C 
ENDBRANCH   1   8
BRANCH   4  14
ATOM     14  S   UNL     1       0.109  10.908  19.464  0.00  0.00    +0.000 S 
ATOM     15  O   UNL     1       0.369  11.320  20.824  0.00  0.00    +0.000 OA
ATOM     16  O   UNL     1       0.279  11.824  18.357  0.00  0.00    +0.000 OA
BRANCH  14  17
ATOM     17  N   UNL     1      -1.474  10.285  19.467  0.00  0.00    +0.000 N 
ATOM     18  H   UNL     1      -1.934  10.585  20.331  0.00  0.00    +0.000 HD
BRANCH  17  19
ATOM     19  C   UNL     1      -2.240  10.477  18.271  0.00  0.00    +0.000 A 
ATOM     20  C   UNL     1      -1.866   9.763  17.130  0.00  0.00    +0.000 A 
ATOM     21  C   UNL     1      -2.525   9.981  15.920  0.00  0.00    +0.000 A 
ATOM     22  C   UNL     1      -3.559  10.914  15.844  0.00  0.00    +0.000 A 
ATOM     23  C   UNL     1      -3.946  11.623  16.984  0.00  0.00    +0.000 A 
ATOM     24  C   UNL     1      -3.290  11.405  18.197  0.00  0.00    +0.000 A 
ATOM     25 CL   UNL     1      -3.825  12.271  19.592  0.00  0.00    +0.000 Cl
ENDBRANCH  17  19
ENDBRANCH  14  17
ENDBRANCH   4  14
TORSDOF 4
ENDMDL
MODEL 6
REMARK VINA RESULT:      -7.8      3.578      7.565
REMARK  Name = 
REMARK  4 active torsions:
REMARK  status: ('A' for Active; 'I' for Inactive)
REMARK    1  A    between atoms: C_2  and  C_3
REMARK    2  A    between atoms: C_6  and  S_7
REMARK    3  A    between atoms: S_7  and  N_10
REMARK    4  A    between atoms: N_10  and  C_11
REMARK                            x       y       z     vdW  Elec       q    Type
REMARK                         _______ _______ _______ _____ _____    ______ ____
ROOT
ATOM      1  C   UNL     1       2.372   7.935  18.715  0.00  0.00    +0.000 A 
ATOM      2  C   UNL     1       3.025   7.714  17.493  0.00  0.00    +0.000 A 
ATOM      3  C   UNL     1       3.902   6.634  17.346  0.00  0.00    +0.000 A 
ATOM      4  C   UNL     1       4.157   5.797  18.435  0.00  0.00    +0.000 A 
ATOM      5  C   UNL     1       3.467   5.968  19.635  0.00  0.00    +0.000 A 
ATOM      6  C   UNL     1       2.546   7.012  19.752  0.00  0.00    +0.000 A 
ENDROOT
BRANCH   1   8
ATOM      7  O   UNL     1       1.447   9.929  17.925  0.00  0.00    +0.000 OA
ATOM      8  C   UNL     1       1.463   9.112  18.846  0.00  0.00    +0.000 C 
ATOM      9  N   UNL     1       0.709   9.279  20.001  0.00  0.00    +0.000 N 
ATOM     10  C   UNL     1      -0.161  10.435  20.156  0.00  0.00    +0.000 C 
ATOM     11  C   UNL     1      -0.172  10.705  21.653  0.00  0.00    +0.000 C 
ATOM     12  C   UNL     1      -0.044   9.315  22.254  0.00  0.00    +0.000 C 
ATOM     13  C   UNL     1       0.856   8.580  21.274  0.00  0.00    +0.000 C 
ENDBRANCH   1   8
BRANCH   4  14
ATOM     14  S   UNL     1       5.269   4.422  18.256  0.00  0.00    +0.000 S 
ATOM     15  O   UNL     1       5.843   4.501  16.932  0.00  0.00    +0.000 OA
ATOM     16  O   UNL     1       6.108   4.370  19.434  0.00  0.00    +0.000 OA
BRANCH  14  17
ATOM     17  N   UNL     1       4.223   3.082  18.225  0.00  0.00    +0.000 N 
ATOM     18  H   UNL     1       4.790   2.235  18.134  0.00  0.00    +0.000 HD
BRANCH  17  19
ATOM     19  C   UNL     1       3.214   3.033  19.243  0.00  0.00    +0.000 A 
ATOM     20  C   UNL     1       3.588   2.598  20.516  0.00  0.00    +0.000 A 
ATOM     21  C   UNL     1       2.626   2.450  21.516  0.00  0.00    +0.000 A 
ATOM     22  C   UNL     1       1.287   2.734  21.246  0.00  0.00    +0.000 A 
ATOM     23  C   UNL     1       0.909   3.181  19.978  0.00  0.00    +0.000 A 
ATOM     24  C   UNL     1       1.870   3.333  18.977  0.00  0.00    +0.000 A 
ATOM     25 CL   UNL     1       1.368   3.927  17.435  0.00  0.00    +0.000 Cl
ENDBRANCH  17  19
ENDBRANCH  14  17
ENDBRANCH   4  14
TORSDOF 4
ENDMDL
MODEL 7
REMARK VINA RESULT:      -7.7      2.503      3.108
REMARK  Name = 
REMARK  4 active torsions:
REMARK  status: ('A' for Active; 'I' for Inactive)
REMARK    1  A    between atoms: C_2  and  C_3
REMARK    2  A    between atoms: C_6  and  S_7
REMARK    3  A    between atoms: S_7  and  N_10
REMARK    4  A    between atoms: N_10  and  C_11
REMARK                            x       y       z     vdW  Elec       q    Type
REMARK                         _______ _______ _______ _____ _____    ______ ____
ROOT
ATOM      1  C   UNL     1       2.827   6.741  19.054  0.00  0.00    +0.000 A 
ATOM      2  C   UNL     1       2.175   7.107  20.242  0.00  0.00    +0.000 A 
ATOM      3  C   UNL     1       1.449   8.301  20.309  0.00  0.00    +0.000 A 
ATOM      4  C   UNL     1       1.410   9.150  19.200  0.00  0.00    +0.000 A 
ATOM      5  C   UNL     1       2.000   8.769  17.995  0.00  0.00    +0.000 A 
ATOM      6  C   UNL     1       2.669   7.545  17.920  0.00  0.00    +0.000 A 
ENDROOT
BRANCH   1   8
ATOM      7  O   UNL     1       4.843   5.562  19.027  0.00  0.00    +0.000 OA
ATOM      8  C   UNL     1       3.615   5.474  19.024  0.00  0.00    +0.000 C 
ATOM      9  N   UNL     1       2.959   4.251  18.947  0.00  0.00    +0.000 N 
ATOM     10  C   UNL     1       3.713   3.008  18.890  0.00  0.00    +0.000 C 
ATOM     11  C   UNL     1       2.840   2.071  18.070  0.00  0.00    +0.000 C 
ATOM     12  C   UNL     1       1.430   2.506  18.436  0.00  0.00    +0.000 C 
ATOM     13  C   UNL     1       1.555   4.009  18.628  0.00  0.00    +0.000 C 
ENDBRANCH   1   8
BRANCH   4  14
ATOM     14  S   UNL     1       0.489  10.669  19.278  0.00  0.00    +0.000 S 
ATOM     15  O   UNL     1       1.188  11.640  18.469  0.00  0.00    +0.000 OA
ATOM     16  O   UNL     1      -0.904  10.358  19.040  0.00  0.00    +0.000 OA
BRANCH  14  17
ATOM     17  N   UNL     1       0.708  11.168  20.889  0.00  0.00    +0.000 N 
ATOM     18  H   UNL     1       1.537  11.767  20.928  0.00  0.00    +0.000 HD
BRANCH  17  19
ATOM     19  C   UNL     1      -0.448  11.683  21.563  0.00  0.00    +0.000 A 
ATOM     20  C   UNL     1      -0.983  12.894  21.117  0.00  0.00    +0.000 A 
ATOM     21  C   UNL     1      -2.053  13.479  21.795  0.00  0.00    +0.000 A 
ATOM     22  C   UNL     1      -2.591  12.858  22.922  0.00  0.00    +0.000 A 
ATOM     23  C   UNL     1      -2.068  11.642  23.367  0.00  0.00    +0.000 A 
ATOM     24  C   UNL     1      -0.999  11.052  22.689  0.00  0.00    +0.000 A 
ATOM     25 CL   UNL     1      -0.408   9.528  23.245  0.00  0.00    +0.000 Cl
ENDBRANCH  17  19
ENDBRANCH  14  17
ENDBRANCH   4  14
TORSDOF 4
ENDMDL
MODEL 8
REMARK VINA RESULT:      -7.7      1.655      2.576
REMARK  Name = 
REMARK  4 active torsions:
REMARK  status: ('A' for Active; 'I' for Inactive)
REMARK    1  A    between atoms: C_2  and  C_3
REMARK    2  A    between atoms: C_6  and  S_7
REMARK    3  A    between atoms: S_7  and  N_10
REMARK    4  A    between atoms: N_10  and  C_11
REMARK                            x       y       z     vdW  Elec       q    Type
REMARK                         _______ _______ _______ _____ _____    ______ ____
ROOT
ATOM      1  C   UNL     1       2.935   6.700  18.351  0.00  0.00    +0.000 A 
ATOM      2  C   UNL     1       2.487   6.606  19.678  0.00  0.00    +0.000 A 
ATOM      3  C   UNL     1       1.765   7.657  20.254  0.00  0.00    +0.000 A 
ATOM      4  C   UNL     1       1.527   8.820  19.517  0.00  0.00    +0.000 A 
ATOM      5  C   UNL     1       1.912   8.899  18.178  0.00  0.00    +0.000 A 
ATOM      6  C   UNL     1       2.576   7.819  17.593  0.00  0.00    +0.000 A 
ENDROOT
BRANCH   1   8
ATOM      7  O   UNL     1       3.185   4.467  17.712  0.00  0.00    +0.000 OA
ATOM      8  C   UNL     1       3.725   5.572  17.775  0.00  0.00    +0.000 C 
ATOM      9  N   UNL     1       5.039   5.780  17.374  0.00  0.00    +0.000 N 
ATOM     10  C   UNL     1       5.831   4.685  16.834  0.00  0.00    +0.000 C 
ATOM     11  C   UNL     1       7.259   5.013  17.242  0.00  0.00    +0.000 C 
ATOM     12  C   UNL     1       7.286   6.532  17.210  0.00  0.00    +0.000 C 
ATOM     13  C   UNL     1       5.892   6.927  17.669  0.00  0.00    +0.000 C 
ENDBRANCH   1   8
BRANCH   4  14
ATOM     14  S   UNL     1       0.610  10.158  20.243  0.00  0.00    +0.000 S 
ATOM     15  O   UNL     1      -0.597   9.600  20.806  0.00  0.00    +0.000 OA
ATOM     16  O   UNL     1       1.524  10.938  21.050  0.00  0.00    +0.000 OA
BRANCH  14  17
ATOM     17  N   UNL     1       0.112  11.061  18.891  0.00  0.00    +0.000 N 
ATOM     18  H   UNL     1       0.788  10.907  18.137  0.00  0.00    +0.000 HD
BRANCH  17  19
ATOM     19  C   UNL     1      -1.264  10.939  18.510  0.00  0.00    +0.000 A 
ATOM     20  C   UNL     1      -1.599   9.966  17.565  0.00  0.00    +0.000 A 
ATOM     21  C   UNL     1      -2.910   9.866  17.098  0.00  0.00    +0.000 A 
ATOM     22  C   UNL     1      -3.890  10.739  17.570  0.00  0.00    +0.000 A 
ATOM     23  C   UNL     1      -3.564  11.707  18.523  0.00  0.00    +0.000 A 
ATOM     24  C   UNL     1      -2.254  11.807  18.995  0.00  0.00    +0.000 A 
ATOM     25 CL   UNL     1      -1.899  12.989  20.203  0.00  0.00    +0.000 Cl
ENDBRANCH  17  19
ENDBRANCH  14  17
ENDBRANCH   4  14
TORSDOF 4
ENDMDL
MODEL 9
REMARK VINA RESULT:      -7.7      3.616      7.649
REMARK  Name = 
REMARK  4 active torsions:
REMARK  status: ('A' for Active; 'I' for Inactive)
REMARK    1  A    between atoms: C_2  and  C_3
REMARK    2  A    between atoms: C_6  and  S_7
REMARK    3  A    between atoms: S_7  and  N_10
REMARK    4  A    between atoms: N_10  and  C_11
REMARK                            x       y       z     vdW  Elec       q    Type
REMARK                         _______ _______ _______ _____ _____    ______ ____
ROOT
ATOM      1  C   UNL     1       2.547   7.931  18.447  0.00  0.00    +0.000 A 
ATOM      2  C   UNL     1       2.641   7.061  19.544  0.00  0.00    +0.000 A 
ATOM      3  C   UNL     1       3.493   5.952  19.494  0.00  0.00    +0.000 A 
ATOM      4  C   UNL     1       4.220   5.691  18.330  0.00  0.00    +0.000 A 
ATOM      5  C   UNL     1       4.184   6.582  17.258  0.00  0.00    +0.000 A 
ATOM      6  C   UNL     1       3.378   7.720  17.342  0.00  0.00    +0.000 A 
ENDROOT
BRANCH   1   8
ATOM      7  O   UNL     1       1.543   9.838  17.547  0.00  0.00    +0.000 OA
ATOM      8  C   UNL     1       1.609   9.089  18.523  0.00  0.00    +0.000 C 
ATOM      9  N   UNL     1       0.882   9.318  19.685  0.00  0.00    +0.000 N 
ATOM     10  C   UNL     1      -0.017  10.458  19.784  0.00  0.00    +0.000 C 
ATOM     11  C   UNL     1       0.006  10.832  21.258  0.00  0.00    +0.000 C 
ATOM     12  C   UNL     1       0.190   9.492  21.951  0.00  0.00    +0.000 C 
ATOM     13  C   UNL     1       1.084   8.715  20.999  0.00  0.00    +0.000 C 
ENDBRANCH   1   8
BRANCH   4  14
ATOM     14  S   UNL     1       5.305   4.284  18.260  0.00  0.00    +0.000 S 
ATOM     15  O   UNL     1       5.926   4.282  16.955  0.00  0.00    +0.000 OA
ATOM     16  O   UNL     1       6.100   4.273  19.469  0.00  0.00    +0.000 OA
BRANCH  14  17
ATOM     17  N   UNL     1       4.228   2.968  18.258  0.00  0.00    +0.000 N 
ATOM     18  H   UNL     1       4.777   2.106  18.195  0.00  0.00    +0.000 HD
BRANCH  17  19
ATOM     19  C   UNL     1       3.212   2.970  19.269  0.00  0.00    +0.000 A 
ATOM     20  C   UNL     1       3.567   2.569  20.558  0.00  0.00    +0.000 A 
ATOM     21  C   UNL     1       2.595   2.471  21.555  0.00  0.00    +0.000 A 
ATOM     22  C   UNL     1       1.264   2.771  21.266  0.00  0.00    +0.000 A 
ATOM     23  C   UNL     1       0.904   3.184  19.981  0.00  0.00    +0.000 A 
ATOM     24  C   UNL     1       1.875   3.286  18.983  0.00  0.00    +0.000 A 
ATOM     25 CL   UNL     1       1.396   3.840  17.419  0.00  0.00    +0.000 Cl
ENDBRANCH  17  19
ENDBRANCH  14  17
ENDBRANCH   4  14
TORSDOF 4
ENDMDL
