MODEL 1
REMARK VINA RESULT:      -6.3      0.000      0.000
REMARK  Name = 
REMARK  15 active torsions:
REMARK  status: ('A' for Active; 'I' for Inactive)
REMARK    1  A    between atoms: C_1  and  C_2
REMARK    2  A    between atoms: C_2  and  O_3
REMARK    3  A    between atoms: O_3  and  C_4
REMARK    4  A    between atoms: C_4  and  C_6
REMARK    5  A    between atoms: C_6  and  N_7
REMARK    6  A    between atoms: C_11  and  O_12
REMARK    7  A    between atoms: O_12  and  C_13
REMARK    8  A    between atoms: C_16  and  C_17
REMARK    9  A    between atoms: C_21  and  C_22
REMARK   10  A    between atoms: C_24  and  O_25
REMARK   11  A    between atoms: O_25  and  C_26
REMARK   12  A    between atoms: C_27  and  O_28
REMARK   13  A    between atoms: O_28  and  C_29
REMARK   14  A    between atoms: C_30  and  O_31
REMARK   15  A    between atoms: O_31  and  C_32
REMARK                            x       y       z     vdW  Elec       q    Type
REMARK                         _______ _______ _______ _____ _____    ______ ____
ROOT
ATOM      1  N   UNL     1       0.722  10.084  21.314  0.00  0.00    +0.000 N 
ATOM      2  C   UNL     1       0.780   8.915  22.027  0.00  0.00    +0.000 A 
ATOM      3  N   UNL     1       1.202   7.921  21.295  0.00  0.00    +0.000 NA
ATOM      4  C   UNL     1       1.485   8.468  20.062  0.00  0.00    +0.000 A 
ATOM      5  C   UNL     1       1.973   7.801  18.914  0.00  0.00    +0.000 A 
ATOM      6  C   UNL     1       2.198   8.563  17.767  0.00  0.00    +0.000 A 
ATOM      7  C   UNL     1       1.969   9.936  17.769  0.00  0.00    +0.000 A 
ATOM      8  C   UNL     1       1.447  10.623  18.884  0.00  0.00    +0.000 A 
ATOM      9  C   UNL     1       1.214   9.847  20.043  0.00  0.00    +0.000 A 
ENDROOT
BRANCH   8  10
ATOM     10  C   UNL     1       1.147  12.042  18.787  0.00  0.00    +0.000 A 
ATOM     11  O   UNL     1       2.223  12.890  18.699  0.00  0.00    +0.000 OA
ATOM     12  C   UNL     1       1.680  14.130  18.557  0.00  0.00    +0.000 A 
ATOM     13  N   UNL     1       0.371  14.162  18.513  0.00  0.00    +0.000 NA
ATOM     14  C   UNL     1       0.012  12.835  18.637  0.00  0.00    +0.000 A 
BRANCH  14  15
ATOM     15  C   UNL     1      -1.365  12.393  18.508  0.00  0.00    +0.000 A 
ATOM     16  C   UNL     1      -1.687  11.510  17.476  0.00  0.00    +0.000 A 
ATOM     17  C   UNL     1      -2.966  10.954  17.380  0.00  0.00    +0.000 A 
ATOM     18  C   UNL     1      -3.933  11.237  18.369  0.00  0.00    +0.000 A 
ATOM     19  C   UNL     1      -3.632  12.174  19.378  0.00  0.00    +0.000 A 
ATOM     20  C   UNL     1      -2.358  12.763  19.419  0.00  0.00    +0.000 A 
BRANCH  17  21
ATOM     21  O   UNL     1      -3.315  10.073  16.383  0.00  0.00    +0.000 OA
ATOM     22  C   UNL     1      -3.175  10.566  15.052  0.00  0.00    +0.000 C 
ENDBRANCH  17  21
BRANCH  18  23
ATOM     23  O   UNL     1      -5.156  10.632  18.185  0.00  0.00    +0.000 OA
ATOM     24  C   UNL     1      -6.249  11.459  17.803  0.00  0.00    +0.000 C 
ENDBRANCH  18  23
BRANCH  19  25
ATOM     25  O   UNL     1      -4.584  12.451  20.323  0.00  0.00    +0.000 OA
ATOM     26  C   UNL     1      -4.802  13.818  20.648  0.00  0.00    +0.000 C 
ENDBRANCH  19  25
ENDBRANCH  14  15
ENDBRANCH   8  10
BRANCH   5  27
ATOM     27  O   UNL     1       2.192   6.451  19.009  0.00  0.00    +0.000 OA
ATOM     28  C   UNL     1       3.535   6.015  19.162  0.00  0.00    +0.000 C 
ENDBRANCH   5  27
BRANCH   1  29
ATOM     29  C   UNL     1       0.172  11.294  21.892  0.00  0.00    +0.000 C 
BRANCH  29  30
ATOM     30  C   UNL     1      -1.024  11.021  22.767  0.00  0.00    +0.000 C 
ATOM     31  O   UNL     1      -1.127  10.128  23.598  0.00  0.00    +0.000 OA
BRANCH  30  32
ATOM     32  O   UNL     1      -2.038  11.865  22.408  0.00  0.00    +0.000 OA
BRANCH  32  34
ATOM     33  C   UNL     1      -3.726  12.460  23.992  0.00  0.00    +0.000 C 
ATOM     34  C   UNL     1      -2.386  12.850  23.393  0.00  0.00    +0.000 C 
ENDBRANCH  32  34
ENDBRANCH  30  32
ENDBRANCH  29  30
ENDBRANCH   1  29
TORSDOF 10
ENDMDL
MODEL 2
REMARK VINA RESULT:      -6.2      2.494      6.063
REMARK  Name = 
REMARK  15 active torsions:
REMARK  status: ('A' for Active; 'I' for Inactive)
REMARK    1  A    between atoms: C_1  and  C_2
REMARK    2  A    between atoms: C_2  and  O_3
REMARK    3  A    between atoms: O_3  and  C_4
REMARK    4  A    between atoms: C_4  and  C_6
REMARK    5  A    between atoms: C_6  and  N_7
REMARK    6  A    between atoms: C_11  and  O_12
REMARK    7  A    between atoms: O_12  and  C_13
REMARK    8  A    between atoms: C_16  and  C_17
REMARK    9  A    between atoms: C_21  and  C_22
REMARK   10  A    between atoms: C_24  and  O_25
REMARK   11  A    between atoms: O_25  and  C_26
REMARK   12  A    between atoms: C_27  and  O_28
REMARK   13  A    between atoms: O_28  and  C_29
REMARK   14  A    between atoms: C_30  and  O_31
REMARK   15  A    between atoms: O_31  and  C_32
REMARK                            x       y       z     vdW  Elec       q    Type
REMARK                         _______ _______ _______ _____ _____    ______ ____
ROOT
ATOM      1  N   UNL     1      -3.462  12.219  19.746  0.00  0.00    +0.000 N 
ATOM      2  C   UNL     1      -4.673  12.489  19.165  0.00  0.00    +0.000 A 
ATOM      3  N   UNL     1      -4.753  11.996  17.960  0.00  0.00    +0.000 NA
ATOM      4  C   UNL     1      -3.565  11.328  17.758  0.00  0.00    +0.000 A 
ATOM      5  C   UNL     1      -3.159  10.621  16.601  0.00  0.00    +0.000 A 
ATOM      6  C   UNL     1      -1.906  10.008  16.621  0.00  0.00    +0.000 A 
ATOM      7  C   UNL     1      -1.100  10.074  17.755  0.00  0.00    +0.000 A 
ATOM      8  C   UNL     1      -1.459  10.802  18.908  0.00  0.00    +0.000 A 
ATOM      9  C   UNL     1      -2.727  11.427  18.882  0.00  0.00    +0.000 A 
ENDROOT
BRANCH   8  10
ATOM     10  C   UNL     1      -0.530  10.904  20.020  0.00  0.00    +0.000 A 
ATOM     11  O   UNL     1      -0.426   9.803  20.834  0.00  0.00    +0.000 OA
ATOM     12  C   UNL     1       0.536  10.127  21.741  0.00  0.00    +0.000 A 
ATOM     13  N   UNL     1       1.081  11.307  21.574  0.00  0.00    +0.000 NA
ATOM     14  C   UNL     1       0.428  11.810  20.467  0.00  0.00    +0.000 A 
BRANCH  14  15
ATOM     15  C   UNL     1       0.817  13.064  19.846  0.00  0.00    +0.000 A 
ATOM     16  C   UNL     1      -0.054  14.150  19.939  0.00  0.00    +0.000 A 
ATOM     17  C   UNL     1       0.321  15.413  19.472  0.00  0.00    +0.000 A 
ATOM     18  C   UNL     1       1.619  15.615  18.953  0.00  0.00    +0.000 A 
ATOM     19  C   UNL     1       2.480  14.509  18.802  0.00  0.00    +0.000 A 
ATOM     20  C   UNL     1       2.056  13.239  19.225  0.00  0.00    +0.000 A 
BRANCH  17  21
ATOM     21  O   UNL     1      -0.506  16.508  19.556  0.00  0.00    +0.000 OA
ATOM     22  C   UNL     1      -1.639  16.357  20.410  0.00  0.00    +0.000 C 
ENDBRANCH  17  21
BRANCH  18  23
ATOM     23  O   UNL     1       1.890  16.897  18.529  0.00  0.00    +0.000 OA
ATOM     24  C   UNL     1       1.875  17.144  17.128  0.00  0.00    +0.000 C 
ENDBRANCH  18  23
BRANCH  19  25
ATOM     25  O   UNL     1       3.730  14.715  18.282  0.00  0.00    +0.000 OA
ATOM     26  C   UNL     1       4.785  14.968  19.202  0.00  0.00    +0.000 C 
ENDBRANCH  19  25
ENDBRANCH  14  15
ENDBRANCH   8  10
BRANCH   5  27
ATOM     27  O   UNL     1      -4.027  10.588  15.540  0.00  0.00    +0.000 OA
ATOM     28  C   UNL     1      -3.519  10.137  14.294  0.00  0.00    +0.000 C 
ENDBRANCH   5  27
BRANCH   1  29
ATOM     29  C   UNL     1      -3.106  12.768  21.039  0.00  0.00    +0.000 C 
BRANCH  29  30
ATOM     30  C   UNL     1      -4.296  13.335  21.771  0.00  0.00    +0.000 C 
ATOM     31  O   UNL     1      -4.624  14.513  21.819  0.00  0.00    +0.000 OA
BRANCH  30  32
ATOM     32  O   UNL     1      -4.899  12.333  22.479  0.00  0.00    +0.000 OA
BRANCH  32  34
ATOM     33  C   UNL     1      -4.184  12.628  24.741  0.00  0.00    +0.000 C 
ATOM     34  C   UNL     1      -5.362  12.706  23.786  0.00  0.00    +0.000 C 
ENDBRANCH  32  34
ENDBRANCH  30  32
ENDBRANCH  29  30
ENDBRANCH   1  29
TORSDOF 10
ENDMDL
MODEL 3
REMARK VINA RESULT:      -6.2      0.801      2.312
REMARK  Name = 
REMARK  15 active torsions:
REMARK  status: ('A' for Active; 'I' for Inactive)
REMARK    1  A    between atoms: C_1  and  C_2
REMARK    2  A    between atoms: C_2  and  O_3
REMARK    3  A    between atoms: O_3  and  C_4
REMARK    4  A    between atoms: C_4  and  C_6
REMARK    5  A    between atoms: C_6  and  N_7
REMARK    6  A    between atoms: C_11  and  O_12
REMARK    7  A    between atoms: O_12  and  C_13
REMARK    8  A    between atoms: C_16  and  C_17
REMARK    9  A    between atoms: C_21  and  C_22
REMARK   10  A    between atoms: C_24  and  O_25
REMARK   11  A    between atoms: O_25  and  C_26
REMARK   12  A    between atoms: C_27  and  O_28
REMARK   13  A    between atoms: O_28  and  C_29
REMARK   14  A    between atoms: C_30  and  O_31
REMARK   15  A    between atoms: O_31  and  C_32
REMARK                            x       y       z     vdW  Elec       q    Type
REMARK                         _______ _______ _______ _____ _____    ______ ____
ROOT
ATOM      1  N   UNL     1       0.777  10.088  21.380  0.00  0.00    +0.000 N 
ATOM      2  C   UNL     1       0.884   8.951  22.137  0.00  0.00    +0.000 A 
ATOM      3  N   UNL     1       1.289   7.933  21.429  0.00  0.00    +0.000 NA
ATOM      4  C   UNL     1       1.510   8.432  20.164  0.00  0.00    +0.000 A 
ATOM      5  C   UNL     1       1.959   7.724  19.023  0.00  0.00    +0.000 A 
ATOM      6  C   UNL     1       2.122   8.440  17.837  0.00  0.00    +0.000 A 
ATOM      7  C   UNL     1       1.872   9.810  17.793  0.00  0.00    +0.000 A 
ATOM      8  C   UNL     1       1.388  10.535  18.900  0.00  0.00    +0.000 A 
ATOM      9  C   UNL     1       1.218   9.805  20.099  0.00  0.00    +0.000 A 
ENDROOT
BRANCH   8  10
ATOM     10  C   UNL     1       1.061  11.944  18.758  0.00  0.00    +0.000 A 
ATOM     11  O   UNL     1       2.120  12.803  18.594  0.00  0.00    +0.000 OA
ATOM     12  C   UNL     1       1.552  14.029  18.424  0.00  0.00    +0.000 A 
ATOM     13  N   UNL     1       0.242  14.041  18.430  0.00  0.00    +0.000 NA
ATOM     14  C   UNL     1      -0.091  12.714  18.621  0.00  0.00    +0.000 A 
BRANCH  14  15
ATOM     15  C   UNL     1      -1.464  12.248  18.564  0.00  0.00    +0.000 A 
ATOM     16  C   UNL     1      -2.323  12.576  19.614  0.00  0.00    +0.000 A 
ATOM     17  C   UNL     1      -3.684  12.263  19.554  0.00  0.00    +0.000 A 
ATOM     18  C   UNL     1      -4.218  11.661  18.393  0.00  0.00    +0.000 A 
ATOM     19  C   UNL     1      -3.345  11.274  17.355  0.00  0.00    +0.000 A 
ATOM     20  C   UNL     1      -1.972  11.547  17.467  0.00  0.00    +0.000 A 
BRANCH  17  21
ATOM     21  O   UNL     1      -4.561  12.580  20.565  0.00  0.00    +0.000 OA
ATOM     22  C   UNL     1      -4.660  13.968  20.878  0.00  0.00    +0.000 C 
ENDBRANCH  17  21
BRANCH  18  23
ATOM     23  O   UNL     1      -5.569  11.404  18.432  0.00  0.00    +0.000 OA
ATOM     24  C   UNL     1      -5.981  10.107  18.848  0.00  0.00    +0.000 C 
ENDBRANCH  18  23
BRANCH  19  25
ATOM     25  O   UNL     1      -3.872  10.677  16.242  0.00  0.00    +0.000 OA
ATOM     26  C   UNL     1      -3.036  10.578  15.096  0.00  0.00    +0.000 C 
ENDBRANCH  19  25
ENDBRANCH  14  15
ENDBRANCH   8  10
BRANCH   5  27
ATOM     27  O   UNL     1       2.203   6.383  19.164  0.00  0.00    +0.000 OA
ATOM     28  C   UNL     1       3.558   5.973  19.278  0.00  0.00    +0.000 C 
ENDBRANCH   5  27
BRANCH   1  29
ATOM     29  C   UNL     1       0.233  11.313  21.931  0.00  0.00    +0.000 C 
BRANCH  29  30
ATOM     30  C   UNL     1      -0.843  11.056  22.954  0.00  0.00    +0.000 C 
ATOM     31  O   UNL     1      -1.294   9.964  23.274  0.00  0.00    +0.000 OA
BRANCH  30  32
ATOM     32  O   UNL     1      -1.329  12.255  23.396  0.00  0.00    +0.000 OA
BRANCH  32  34
ATOM     33  C   UNL     1      -1.348  14.645  23.428  0.00  0.00    +0.000 C 
ATOM     34  C   UNL     1      -0.752  13.412  22.772  0.00  0.00    +0.000 C 
ENDBRANCH  32  34
ENDBRANCH  30  32
ENDBRANCH  29  30
ENDBRANCH   1  29
TORSDOF 10
ENDMDL
MODEL 4
REMARK VINA RESULT:      -6.1      2.488      6.975
REMARK  Name = 
REMARK  15 active torsions:
REMARK  status: ('A' for Active; 'I' for Inactive)
REMARK    1  A    between atoms: C_1  and  C_2
REMARK    2  A    between atoms: C_2  and  O_3
REMARK    3  A    between atoms: O_3  and  C_4
REMARK    4  A    between atoms: C_4  and  C_6
REMARK    5  A    between atoms: C_6  and  N_7
REMARK    6  A    between atoms: C_11  and  O_12
REMARK    7  A    between atoms: O_12  and  C_13
REMARK    8  A    between atoms: C_16  and  C_17
REMARK    9  A    between atoms: C_21  and  C_22
REMARK   10  A    between atoms: C_24  and  O_25
REMARK   11  A    between atoms: O_25  and  C_26
REMARK   12  A    between atoms: C_27  and  O_28
REMARK   13  A    between atoms: O_28  and  C_29
REMARK   14  A    between atoms: C_30  and  O_31
REMARK   15  A    between atoms: O_31  and  C_32
REMARK                            x       y       z     vdW  Elec       q    Type
REMARK                         _______ _______ _______ _____ _____    ______ ____
ROOT
ATOM      1  N   UNL     1      -3.278  12.226  19.628  0.00  0.00    +0.000 N 
ATOM      2  C   UNL     1      -4.503  12.756  19.934  0.00  0.00    +0.000 A 
ATOM      3  N   UNL     1      -4.607  13.036  21.204  0.00  0.00    +0.000 NA
ATOM      4  C   UNL     1      -3.380  12.727  21.748  0.00  0.00    +0.000 A 
ATOM      5  C   UNL     1      -2.980  12.852  23.100  0.00  0.00    +0.000 A 
ATOM      6  C   UNL     1      -1.674  12.485  23.427  0.00  0.00    +0.000 A 
ATOM      7  C   UNL     1      -0.794  12.036  22.446  0.00  0.00    +0.000 A 
ATOM      8  C   UNL     1      -1.173  11.864  21.099  0.00  0.00    +0.000 A 
ATOM      9  C   UNL     1      -2.499  12.231  20.772  0.00  0.00    +0.000 A 
ENDROOT
BRANCH   8  10
ATOM     10  C   UNL     1      -0.231  11.304  20.145  0.00  0.00    +0.000 A 
ATOM     11  O   UNL     1      -0.308   9.950  19.932  0.00  0.00    +0.000 OA
ATOM     12  C   UNL     1       0.618   9.693  18.968  0.00  0.00    +0.000 A 
ATOM     13  N   UNL     1       1.258  10.745  18.519  0.00  0.00    +0.000 NA
ATOM     14  C   UNL     1       0.714  11.787  19.243  0.00  0.00    +0.000 A 
BRANCH  14  15
ATOM     15  C   UNL     1       1.048  13.173  18.970  0.00  0.00    +0.000 A 
ATOM     16  C   UNL     1       0.009  14.096  18.841  0.00  0.00    +0.000 A 
ATOM     17  C   UNL     1       0.274  15.461  18.704  0.00  0.00    +0.000 A 
ATOM     18  C   UNL     1       1.605  15.929  18.757  0.00  0.00    +0.000 A 
ATOM     19  C   UNL     1       2.660  14.997  18.827  0.00  0.00    +0.000 A 
ATOM     20  C   UNL     1       2.368  13.625  18.904  0.00  0.00    +0.000 A 
BRANCH  17  21
ATOM     21  O   UNL     1      -0.725  16.399  18.585  0.00  0.00    +0.000 OA
ATOM     22  C   UNL     1      -1.468  16.658  19.774  0.00  0.00    +0.000 C 
ENDBRANCH  17  21
BRANCH  18  23
ATOM     23  O   UNL     1       1.756  17.291  18.622  0.00  0.00    +0.000 OA
ATOM     24  C   UNL     1       1.863  17.814  17.303  0.00  0.00    +0.000 C 
ENDBRANCH  18  23
BRANCH  19  25
ATOM     25  O   UNL     1       3.948  15.462  18.861  0.00  0.00    +0.000 OA
ATOM     26  C   UNL     1       4.809  15.078  17.797  0.00  0.00    +0.000 C 
ENDBRANCH  19  25
ENDBRANCH  14  15
ENDBRANCH   8  10
BRANCH   5  27
ATOM     27  O   UNL     1      -3.904  13.326  23.995  0.00  0.00    +0.000 OA
ATOM     28  C   UNL     1      -4.560  12.376  24.822  0.00  0.00    +0.000 C 
ENDBRANCH   5  27
BRANCH   1  29
ATOM     29  C   UNL     1      -2.980  11.732  18.299  0.00  0.00    +0.000 C 
BRANCH  29  30
ATOM     30  C   UNL     1      -4.173  11.083  17.645  0.00  0.00    +0.000 C 
ATOM     31  O   UNL     1      -5.016  10.389  18.199  0.00  0.00    +0.000 OA
BRANCH  30  32
ATOM     32  O   UNL     1      -4.109  11.295  16.296  0.00  0.00    +0.000 OA
BRANCH  32  34
ATOM     33  C   UNL     1      -3.137  10.049  14.502  0.00  0.00    +0.000 C 
ATOM     34  C   UNL     1      -2.853  10.956  15.687  0.00  0.00    +0.000 C 
ENDBRANCH  32  34
ENDBRANCH  30  32
ENDBRANCH  29  30
ENDBRANCH   1  29
TORSDOF 10
ENDMDL
MODEL 5
REMARK VINA RESULT:      -6.1      2.218      4.367
REMARK  Name = 
REMARK  15 active torsions:
REMARK  status: ('A' for Active; 'I' for Inactive)
REMARK    1  A    between atoms: C_1  and  C_2
REMARK    2  A    between atoms: C_2  and  O_3
REMARK    3  A    between atoms: O_3  and  C_4
REMARK    4  A    between atoms: C_4  and  C_6
REMARK    5  A    between atoms: C_6  and  N_7
REMARK    6  A    between atoms: C_11  and  O_12
REMARK    7  A    between atoms: O_12  and  C_13
REMARK    8  A    between atoms: C_16  and  C_17
REMARK    9  A    between atoms: C_21  and  C_22
REMARK   10  A    between atoms: C_24  and  O_25
REMARK   11  A    between atoms: O_25  and  C_26
REMARK   12  A    between atoms: C_27  and  O_28
REMARK   13  A    between atoms: O_28  and  C_29
REMARK   14  A    between atoms: C_30  and  O_31
REMARK   15  A    between atoms: O_31  and  C_32
REMARK                            x       y       z     vdW  Elec       q    Type
REMARK                         _______ _______ _______ _____ _____    ______ ____
ROOT
ATOM      1  N   UNL     1       0.279  12.663  19.714  0.00  0.00    +0.000 N 
ATOM      2  C   UNL     1       0.933  12.094  18.654  0.00  0.00    +0.000 A 
ATOM      3  N   UNL     1       1.247  10.850  18.889  0.00  0.00    +0.000 NA
ATOM      4  C   UNL     1       0.731  10.571  20.135  0.00  0.00    +0.000 A 
ATOM      5  C   UNL     1       0.805   9.349  20.845  0.00  0.00    +0.000 A 
ATOM      6  C   UNL     1       0.198   9.289  22.100  0.00  0.00    +0.000 A 
ATOM      7  C   UNL     1      -0.477  10.393  22.617  0.00  0.00    +0.000 A 
ATOM      8  C   UNL     1      -0.535  11.634  21.952  0.00  0.00    +0.000 A 
ATOM      9  C   UNL     1       0.086  11.693  20.683  0.00  0.00    +0.000 A 
ENDROOT
BRANCH   8  10
ATOM     10  C   UNL     1      -1.178  12.770  22.590  0.00  0.00    +0.000 A 
ATOM     11  O   UNL     1      -0.376  13.569  23.367  0.00  0.00    +0.000 OA
ATOM     12  C   UNL     1      -1.189  14.577  23.789  0.00  0.00    +0.000 A 
ATOM     13  N   UNL     1      -2.418  14.525  23.338  0.00  0.00    +0.000 NA
ATOM     14  C   UNL     1      -2.425  13.389  22.552  0.00  0.00    +0.000 A 
BRANCH  14  15
ATOM     15  C   UNL     1      -3.572  13.018  21.744  0.00  0.00    +0.000 A 
ATOM     16  C   UNL     1      -3.373  12.748  20.389  0.00  0.00    +0.000 A 
ATOM     17  C   UNL     1      -4.414  12.265  19.592  0.00  0.00    +0.000 A 
ATOM     18  C   UNL     1      -5.673  11.986  20.170  0.00  0.00    +0.000 A 
ATOM     19  C   UNL     1      -5.896  12.313  21.523  0.00  0.00    +0.000 A 
ATOM     20  C   UNL     1      -4.849  12.853  22.287  0.00  0.00    +0.000 A 
BRANCH  17  21
ATOM     21  O   UNL     1      -4.251  11.979  18.257  0.00  0.00    +0.000 OA
ATOM     22  C   UNL     1      -2.943  11.557  17.875  0.00  0.00    +0.000 C 
ENDBRANCH  17  21
BRANCH  18  23
ATOM     23  O   UNL     1      -6.625  11.506  19.300  0.00  0.00    +0.000 OA
ATOM     24  C   UNL     1      -7.518  12.447  18.716  0.00  0.00    +0.000 C 
ENDBRANCH  18  23
BRANCH  19  25
ATOM     25  O   UNL     1      -7.125  12.053  22.067  0.00  0.00    +0.000 OA
ATOM     26  C   UNL     1      -7.424  12.653  23.322  0.00  0.00    +0.000 C 
ENDBRANCH  19  25
ENDBRANCH  14  15
ENDBRANCH   8  10
BRANCH   5  27
ATOM     27  O   UNL     1       1.468   8.307  20.250  0.00  0.00    +0.000 OA
ATOM     28  C   UNL     1       1.548   7.086  20.969  0.00  0.00    +0.000 C 
ENDBRANCH   5  27
BRANCH   1  29
ATOM     29  C   UNL     1      -0.063  14.071  19.724  0.00  0.00    +0.000 C 
BRANCH  29  30
ATOM     30  C   UNL     1       1.125  14.949  20.020  0.00  0.00    +0.000 C 
ATOM     31  O   UNL     1       1.558  15.233  21.129  0.00  0.00    +0.000 OA
BRANCH  30  32
ATOM     32  O   UNL     1       1.585  15.483  18.848  0.00  0.00    +0.000 OA
BRANCH  32  34
ATOM     33  C   UNL     1       0.418  17.453  18.162  0.00  0.00    +0.000 C 
ATOM     34  C   UNL     1       1.673  16.915  18.826  0.00  0.00    +0.000 C 
ENDBRANCH  32  34
ENDBRANCH  30  32
ENDBRANCH  29  30
ENDBRANCH   1  29
TORSDOF 10
ENDMDL
MODEL 6
REMARK VINA RESULT:      -6.1      3.049      6.078
REMARK  Name = 
REMARK  15 active torsions:
REMARK  status: ('A' for Active; 'I' for Inactive)
REMARK    1  A    between atoms: C_1  and  C_2
REMARK    2  A    between atoms: C_2  and  O_3
REMARK    3  A    between atoms: O_3  and  C_4
REMARK    4  A    between atoms: C_4  and  C_6
REMARK    5  A    between atoms: C_6  and  N_7
REMARK    6  A    between atoms: C_11  and  O_12
REMARK    7  A    between atoms: O_12  and  C_13
REMARK    8  A    between atoms: C_16  and  C_17
REMARK    9  A    between atoms: C_21  and  C_22
REMARK   10  A    between atoms: C_24  and  O_25
REMARK   11  A    between atoms: O_25  and  C_26
REMARK   12  A    between atoms: C_27  and  O_28
REMARK   13  A    between atoms: O_28  and  C_29
REMARK   14  A    between atoms: C_30  and  O_31
REMARK   15  A    between atoms: O_31  and  C_32
REMARK                            x       y       z     vdW  Elec       q    Type
REMARK                         _______ _______ _______ _____ _____    ______ ____
ROOT
ATOM      1  N   UNL     1      -4.458  12.493  19.318  0.00  0.00    +0.000 N 
ATOM      2  C   UNL     1      -5.365  12.175  18.343  0.00  0.00    +0.000 A 
ATOM      3  N   UNL     1      -4.850  11.391  17.437  0.00  0.00    +0.000 NA
ATOM      4  C   UNL     1      -3.564  11.139  17.861  0.00  0.00    +0.000 A 
ATOM      5  C   UNL     1      -2.586  10.338  17.222  0.00  0.00    +0.000 A 
ATOM      6  C   UNL     1      -1.342  10.215  17.841  0.00  0.00    +0.000 A 
ATOM      7  C   UNL     1      -1.088  10.842  19.059  0.00  0.00    +0.000 A 
ATOM      8  C   UNL     1      -2.027  11.676  19.700  0.00  0.00    +0.000 A 
ATOM      9  C   UNL     1      -3.284  11.804  19.067  0.00  0.00    +0.000 A 
ENDROOT
BRANCH   8  10
ATOM     10  C   UNL     1      -1.663  12.372  20.923  0.00  0.00    +0.000 A 
ATOM     11  O   UNL     1      -1.698  11.634  22.080  0.00  0.00    +0.000 OA
ATOM     12  C   UNL     1      -1.262  12.483  23.050  0.00  0.00    +0.000 A 
ATOM     13  N   UNL     1      -0.921  13.677  22.631  0.00  0.00    +0.000 NA
ATOM     14  C   UNL     1      -1.150  13.619  21.271  0.00  0.00    +0.000 A 
BRANCH  14  15
ATOM     15  C   UNL     1      -0.779  14.703  20.379  0.00  0.00    +0.000 A 
ATOM     16  C   UNL     1      -1.568  15.854  20.368  0.00  0.00    +0.000 A 
ATOM     17  C   UNL     1      -1.190  16.976  19.626  0.00  0.00    +0.000 A 
ATOM     18  C   UNL     1       0.036  16.976  18.923  0.00  0.00    +0.000 A 
ATOM     19  C   UNL     1       0.805  15.795  18.882  0.00  0.00    +0.000 A 
ATOM     20  C   UNL     1       0.372  14.662  19.590  0.00  0.00    +0.000 A 
BRANCH  17  21
ATOM     21  O   UNL     1      -1.936  18.131  19.600  0.00  0.00    +0.000 OA
ATOM     22  C   UNL     1      -3.260  17.995  19.086  0.00  0.00    +0.000 C 
ENDBRANCH  17  21
BRANCH  18  23
ATOM     23  O   UNL     1       0.318  18.133  18.232  0.00  0.00    +0.000 OA
ATOM     24  C   UNL     1      -0.116  18.215  16.880  0.00  0.00    +0.000 C 
ENDBRANCH  18  23
BRANCH  19  25
ATOM     25  O   UNL     1       1.983  15.803  18.184  0.00  0.00    +0.000 OA
ATOM     26  C   UNL     1       2.723  14.589  18.140  0.00  0.00    +0.000 C 
ENDBRANCH  19  25
ENDBRANCH  14  15
ENDBRANCH   8  10
BRANCH   5  27
ATOM     27  O   UNL     1      -2.931   9.740  16.038  0.00  0.00    +0.000 OA
ATOM     28  C   UNL     1      -2.960  10.556  14.876  0.00  0.00    +0.000 C 
ENDBRANCH   5  27
BRANCH   1  29
ATOM     29  C   UNL     1      -4.775  13.445  20.364  0.00  0.00    +0.000 C 
BRANCH  29  30
ATOM     30  C   UNL     1      -5.257  12.775  21.624  0.00  0.00    +0.000 C 
ATOM     31  O   UNL     1      -6.108  11.898  21.700  0.00  0.00    +0.000 OA
BRANCH  30  32
ATOM     32  O   UNL     1      -4.673  13.383  22.701  0.00  0.00    +0.000 OA
BRANCH  32  34
ATOM     33  C   UNL     1      -5.863  15.184  23.727  0.00  0.00    +0.000 C 
ATOM     34  C   UNL     1      -5.565  13.695  23.781  0.00  0.00    +0.000 C 
ENDBRANCH  32  34
ENDBRANCH  30  32
ENDBRANCH  29  30
ENDBRANCH   1  29
TORSDOF 10
ENDMDL
MODEL 7
REMARK VINA RESULT:      -6.0      2.220      5.269
REMARK  Name = 
REMARK  15 active torsions:
REMARK  status: ('A' for Active; 'I' for Inactive)
REMARK    1  A    between atoms: C_1  and  C_2
REMARK    2  A    between atoms: C_2  and  O_3
REMARK    3  A    between atoms: O_3  and  C_4
REMARK    4  A    between atoms: C_4  and  C_6
REMARK    5  A    between atoms: C_6  and  N_7
REMARK    6  A    between atoms: C_11  and  O_12
REMARK    7  A    between atoms: O_12  and  C_13
REMARK    8  A    between atoms: C_16  and  C_17
REMARK    9  A    between atoms: C_21  and  C_22
REMARK   10  A    between atoms: C_24  and  O_25
REMARK   11  A    between atoms: O_25  and  C_26
REMARK   12  A    between atoms: C_27  and  O_28
REMARK   13  A    between atoms: O_28  and  C_29
REMARK   14  A    between atoms: C_30  and  O_31
REMARK   15  A    between atoms: O_31  and  C_32
REMARK                            x       y       z     vdW  Elec       q    Type
REMARK                         _______ _______ _______ _____ _____    ______ ____
ROOT
ATOM      1  N   UNL     1      -0.392  13.415  21.908  0.00  0.00    +0.000 N 
ATOM      2  C   UNL     1      -0.704  14.365  22.843  0.00  0.00    +0.000 A 
ATOM      3  N   UNL     1      -0.660  15.569  22.344  0.00  0.00    +0.000 NA
ATOM      4  C   UNL     1      -0.359  15.402  21.010  0.00  0.00    +0.000 A 
ATOM      5  C   UNL     1      -0.198  16.410  20.029  0.00  0.00    +0.000 A 
ATOM      6  C   UNL     1       0.100  16.006  18.727  0.00  0.00    +0.000 A 
ATOM      7  C   UNL     1       0.208  14.655  18.408  0.00  0.00    +0.000 A 
ATOM      8  C   UNL     1       0.091  13.630  19.369  0.00  0.00    +0.000 A 
ATOM      9  C   UNL     1      -0.204  14.043  20.689  0.00  0.00    +0.000 A 
ENDROOT
BRANCH   8  10
ATOM     10  C   UNL     1       0.306  12.246  18.984  0.00  0.00    +0.000 A 
ATOM     11  O   UNL     1       1.548  11.723  19.250  0.00  0.00    +0.000 OA
ATOM     12  C   UNL     1       1.471  10.421  18.860  0.00  0.00    +0.000 A 
ATOM     13  N   UNL     1       0.301  10.046  18.403  0.00  0.00    +0.000 NA
ATOM     14  C   UNL     1      -0.463  11.193  18.495  0.00  0.00    +0.000 A 
BRANCH  14  15
ATOM     15  C   UNL     1      -1.886  11.196  18.208  0.00  0.00    +0.000 A 
ATOM     16  C   UNL     1      -2.762  11.650  19.195  0.00  0.00    +0.000 A 
ATOM     17  C   UNL     1      -4.127  11.794  18.932  0.00  0.00    +0.000 A 
ATOM     18  C   UNL     1      -4.626  11.537  17.636  0.00  0.00    +0.000 A 
ATOM     19  C   UNL     1      -3.756  11.022  16.654  0.00  0.00    +0.000 A 
ATOM     20  C   UNL     1      -2.399  10.831  16.962  0.00  0.00    +0.000 A 
BRANCH  17  21
ATOM     21  O   UNL     1      -5.018  12.248  19.877  0.00  0.00    +0.000 OA
ATOM     22  C   UNL     1      -4.732  13.535  20.422  0.00  0.00    +0.000 C 
ENDBRANCH  17  21
BRANCH  18  23
ATOM     23  O   UNL     1      -5.982  11.719  17.481  0.00  0.00    +0.000 OA
ATOM     24  C   UNL     1      -6.423  12.958  16.939  0.00  0.00    +0.000 C 
ENDBRANCH  18  23
BRANCH  19  25
ATOM     25  O   UNL     1      -4.255  10.762  15.405  0.00  0.00    +0.000 OA
ATOM     26  C   UNL     1      -3.361  10.208  14.448  0.00  0.00    +0.000 C 
ENDBRANCH  19  25
ENDBRANCH  14  15
ENDBRANCH   8  10
BRANCH   5  27
ATOM     27  O   UNL     1      -0.346  17.713  20.427  0.00  0.00    +0.000 OA
ATOM     28  C   UNL     1      -0.920  18.620  19.497  0.00  0.00    +0.000 C 
ENDBRANCH   5  27
BRANCH   1  29
ATOM     29  C   UNL     1      -0.264  12.016  22.266  0.00  0.00    +0.000 C 
BRANCH  29  30
ATOM     30  C   UNL     1      -1.535  11.452  22.847  0.00  0.00    +0.000 C 
ATOM     31  O   UNL     1      -2.609  12.032  22.942  0.00  0.00    +0.000 OA
BRANCH  30  32
ATOM     32  O   UNL     1      -1.275  10.214  23.364  0.00  0.00    +0.000 OA
BRANCH  32  34
ATOM     33  C   UNL     1      -0.388   8.576  21.865  0.00  0.00    +0.000 C 
ATOM     34  C   UNL     1      -0.048   9.616  22.919  0.00  0.00    +0.000 C 
ENDBRANCH  32  34
ENDBRANCH  30  32
ENDBRANCH  29  30
ENDBRANCH   1  29
TORSDOF 10
ENDMDL
MODEL 8
REMARK VINA RESULT:      -6.0      2.382      4.514
REMARK  Name = 
REMARK  15 active torsions:
REMARK  status: ('A' for Active; 'I' for Inactive)
REMARK    1  A    between atoms: C_1  and  C_2
REMARK    2  A    between atoms: C_2  and  O_3
REMARK    3  A    between atoms: O_3  and  C_4
REMARK    4  A    between atoms: C_4  and  C_6
REMARK    5  A    between atoms: C_6  and  N_7
REMARK    6  A    between atoms: C_11  and  O_12
REMARK    7  A    between atoms: O_12  and  C_13
REMARK    8  A    between atoms: C_16  and  C_17
REMARK    9  A    between atoms: C_21  and  C_22
REMARK   10  A    between atoms: C_24  and  O_25
REMARK   11  A    between atoms: O_25  and  C_26
REMARK   12  A    between atoms: C_27  and  O_28
REMARK   13  A    between atoms: O_28  and  C_29
REMARK   14  A    between atoms: C_30  and  O_31
REMARK   15  A    between atoms: O_31  and  C_32
REMARK                            x       y       z     vdW  Elec       q    Type
REMARK                         _______ _______ _______ _____ _____    ______ ____
ROOT
ATOM      1  N   UNL     1       0.099  12.543  19.757  0.00  0.00    +0.000 N 
ATOM      2  C   UNL     1       0.914  11.681  19.075  0.00  0.00    +0.000 A 
ATOM      3  N   UNL     1       1.146  10.592  19.755  0.00  0.00    +0.000 NA
ATOM      4  C   UNL     1       0.410  10.720  20.912  0.00  0.00    +0.000 A 
ATOM      5  C   UNL     1       0.322   9.800  21.985  0.00  0.00    +0.000 A 
ATOM      6  C   UNL     1      -0.500  10.135  23.061  0.00  0.00    +0.000 A 
ATOM      7  C   UNL     1      -1.224  11.325  23.061  0.00  0.00    +0.000 A 
ATOM      8  C   UNL     1      -1.128  12.278  22.027  0.00  0.00    +0.000 A 
ATOM      9  C   UNL     1      -0.290  11.938  20.940  0.00  0.00    +0.000 A 
ENDROOT
BRANCH   8  10
ATOM     10  C   UNL     1      -1.841  13.539  22.134  0.00  0.00    +0.000 A 
ATOM     11  O   UNL     1      -1.101  14.629  22.521  0.00  0.00    +0.000 OA
ATOM     12  C   UNL     1      -1.971  15.675  22.482  0.00  0.00    +0.000 A 
ATOM     13  N   UNL     1      -3.182  15.376  22.080  0.00  0.00    +0.000 NA
ATOM     14  C   UNL     1      -3.113  14.020  21.832  0.00  0.00    +0.000 A 
BRANCH  14  15
ATOM     15  C   UNL     1      -4.216  13.288  21.236  0.00  0.00    +0.000 A 
ATOM     16  C   UNL     1      -4.062  12.789  19.942  0.00  0.00    +0.000 A 
ATOM     17  C   UNL     1      -5.039  11.971  19.367  0.00  0.00    +0.000 A 
ATOM     18  C   UNL     1      -6.171  11.590  20.120  0.00  0.00    +0.000 A 
ATOM     19  C   UNL     1      -6.360  12.139  21.405  0.00  0.00    +0.000 A 
ATOM     20  C   UNL     1      -5.391  13.006  21.937  0.00  0.00    +0.000 A 
BRANCH  17  21
ATOM     21  O   UNL     1      -4.916  11.453  18.099  0.00  0.00    +0.000 OA
ATOM     22  C   UNL     1      -5.518  12.224  17.060  0.00  0.00    +0.000 C 
ENDBRANCH  17  21
BRANCH  18  23
ATOM     23  O   UNL     1      -7.067  10.776  19.464  0.00  0.00    +0.000 OA
ATOM     24  C   UNL     1      -7.070   9.394  19.802  0.00  0.00    +0.000 C 
ENDBRANCH  18  23
BRANCH  19  25
ATOM     25  O   UNL     1      -7.470  11.774  22.119  0.00  0.00    +0.000 OA
ATOM     26  C   UNL     1      -7.666  12.395  23.383  0.00  0.00    +0.000 C 
ENDBRANCH  19  25
ENDBRANCH  14  15
ENDBRANCH   8  10
BRANCH   5  27
ATOM     27  O   UNL     1       1.051   8.643  21.890  0.00  0.00    +0.000 OA
ATOM     28  C   UNL     1       0.435   7.532  21.256  0.00  0.00    +0.000 C 
ENDBRANCH   5  27
BRANCH   1  29
ATOM     29  C   UNL     1      -0.200  13.866  19.244  0.00  0.00    +0.000 C 
BRANCH  29  30
ATOM     30  C   UNL     1       0.864  14.873  19.598  0.00  0.00    +0.000 C 
ATOM     31  O   UNL     1       1.681  14.778  20.504  0.00  0.00    +0.000 OA
BRANCH  30  32
ATOM     32  O   UNL     1       0.703  15.981  18.813  0.00  0.00    +0.000 OA
BRANCH  32  34
ATOM     33  C   UNL     1      -0.670  17.624  17.749  0.00  0.00    +0.000 C 
ATOM     34  C   UNL     1      -0.623  16.531  18.803  0.00  0.00    +0.000 C 
ENDBRANCH  32  34
ENDBRANCH  30  32
ENDBRANCH  29  30
ENDBRANCH   1  29
TORSDOF 10
ENDMDL
MODEL 9
REMARK VINA RESULT:      -6.0      1.898      4.564
REMARK  Name = 
REMARK  15 active torsions:
REMARK  status: ('A' for Active; 'I' for Inactive)
REMARK    1  A    between atoms: C_1  and  C_2
REMARK    2  A    between atoms: C_2  and  O_3
REMARK    3  A    between atoms: O_3  and  C_4
REMARK    4  A    between atoms: C_4  and  C_6
REMARK    5  A    between atoms: C_6  and  N_7
REMARK    6  A    between atoms: C_11  and  O_12
REMARK    7  A    between atoms: O_12  and  C_13
REMARK    8  A    between atoms: C_16  and  C_17
REMARK    9  A    between atoms: C_21  and  C_22
REMARK   10  A    between atoms: C_24  and  O_25
REMARK   11  A    between atoms: O_25  and  C_26
REMARK   12  A    between atoms: C_27  and  O_28
REMARK   13  A    between atoms: O_28  and  C_29
REMARK   14  A    between atoms: C_30  and  O_31
REMARK   15  A    between atoms: O_31  and  C_32
REMARK                            x       y       z     vdW  Elec       q    Type
REMARK                         _______ _______ _______ _____ _____    ______ ____
ROOT
ATOM      1  N   UNL     1       1.235  11.613  18.870  0.00  0.00    +0.000 N 
ATOM      2  C   UNL     1       1.876  10.825  17.951  0.00  0.00    +0.000 A 
ATOM      3  N   UNL     1       2.046   9.609  18.391  0.00  0.00    +0.000 NA
ATOM      4  C   UNL     1       1.444   9.580  19.630  0.00  0.00    +0.000 A 
ATOM      5  C   UNL     1       1.355   8.483  20.520  0.00  0.00    +0.000 A 
ATOM      6  C   UNL     1       0.686   8.680  21.728  0.00  0.00    +0.000 A 
ATOM      7  C   UNL     1       0.107   9.910  22.028  0.00  0.00    +0.000 A 
ATOM      8  C   UNL     1       0.211  11.032  21.180  0.00  0.00    +0.000 A 
ATOM      9  C   UNL     1       0.896  10.831  19.960  0.00  0.00    +0.000 A 
ENDROOT
BRANCH   8  10
ATOM     10  C   UNL     1      -0.338  12.311  21.597  0.00  0.00    +0.000 A 
ATOM     11  O   UNL     1       0.521  13.163  22.245  0.00  0.00    +0.000 OA
ATOM     12  C   UNL     1      -0.207  14.292  22.467  0.00  0.00    +0.000 A 
ATOM     13  N   UNL     1      -1.431  14.264  22.001  0.00  0.00    +0.000 NA
ATOM     14  C   UNL     1      -1.527  13.014  21.422  0.00  0.00    +0.000 A 
BRANCH  14  15
ATOM     15  C   UNL     1      -2.693  12.605  20.661  0.00  0.00    +0.000 A 
ATOM     16  C   UNL     1      -3.958  12.901  21.170  0.00  0.00    +0.000 A 
ATOM     17  C   UNL     1      -5.111  12.644  20.423  0.00  0.00    +0.000 A 
ATOM     18  C   UNL     1      -5.002  12.134  19.111  0.00  0.00    +0.000 A 
ATOM     19  C   UNL     1      -3.731  11.777  18.615  0.00  0.00    +0.000 A 
ATOM     20  C   UNL     1      -2.592  11.991  19.410  0.00  0.00    +0.000 A 
BRANCH  17  21
ATOM     21  O   UNL     1      -6.373  12.933  20.889  0.00  0.00    +0.000 OA
ATOM     22  C   UNL     1      -6.560  12.775  22.294  0.00  0.00    +0.000 C 
ENDBRANCH  17  21
BRANCH  18  23
ATOM     23  O   UNL     1      -6.196  11.926  18.459  0.00  0.00    +0.000 OA
ATOM     24  C   UNL     1      -6.772  10.627  18.538  0.00  0.00    +0.000 C 
ENDBRANCH  18  23
BRANCH  19  25
ATOM     25  O   UNL     1      -3.639  11.268  17.347  0.00  0.00    +0.000 OA
ATOM     26  C   UNL     1      -3.114   9.954  17.208  0.00  0.00    +0.000 C 
ENDBRANCH  19  25
ENDBRANCH  14  15
ENDBRANCH   8  10
BRANCH   5  27
ATOM     27  O   UNL     1       1.934   7.302  20.132  0.00  0.00    +0.000 OA
ATOM     28  C   UNL     1       1.481   6.113  20.763  0.00  0.00    +0.000 C 
ENDBRANCH   5  27
BRANCH   1  29
ATOM     29  C   UNL     1       1.043  13.032  18.644  0.00  0.00    +0.000 C 
BRANCH  29  30
ATOM     30  C   UNL     1       2.261  13.842  19.006  0.00  0.00    +0.000 C 
ATOM     31  O   UNL     1       2.639  14.118  20.137  0.00  0.00    +0.000 OA
BRANCH  30  32
ATOM     32  O   UNL     1       2.827  14.327  17.859  0.00  0.00    +0.000 OA
BRANCH  32  34
ATOM     33  C   UNL     1       5.190  14.687  17.853  0.00  0.00    +0.000 C 
ATOM     34  C   UNL     1       3.831  15.334  18.057  0.00  0.00    +0.000 C 
ENDBRANCH  32  34
ENDBRANCH  30  32
ENDBRANCH  29  30
ENDBRANCH   1  29
TORSDOF 10
ENDMDL
