MODEL 1
REMARK VINA RESULT:      -8.4      0.000      0.000
REMARK  Name = 
REMARK  6 active torsions:
REMARK  status: ('A' for Active; 'I' for Inactive)
REMARK    1  A    between atoms: C_1  and  C_2
REMARK    2  A    between atoms: C_2  and  C_3
REMARK    3  A    between atoms: C_2  and  C_4
REMARK    4  A    between atoms: C_9  and  C_10
REMARK    5  A    between atoms: C_15  and  C_16
REMARK    6  A    between atoms: C_23  and  C_24
REMARK                            x       y       z     vdW  Elec       q    Type
REMARK                         _______ _______ _______ _____ _____    ______ ____
ROOT
ATOM      1  C   UNL     1       3.832   3.468  19.624  0.00  0.00    +0.000 A 
ATOM      2  N   UNL     1       2.804   3.676  20.521  0.00  0.00    +0.000 NA
ATOM      3  C   UNL     1       2.428   4.912  20.314  0.00  0.00    +0.000 A 
ATOM      4  C   UNL     1       1.378   5.636  20.977  0.00  0.00    +0.000 A 
ATOM      5  N   UNL     1       1.128   6.891  20.716  0.00  0.00    +0.000 NA
ATOM      6  C   UNL     1       1.936   7.517  19.779  0.00  0.00    +0.000 A 
ATOM      7  C   UNL     1       2.948   6.902  19.131  0.00  0.00    +0.000 A 
ATOM      8  N   UNL     1       3.184   5.553  19.366  0.00  0.00    +0.000 N 
ATOM      9  C   UNL     1       4.074   4.614  18.844  0.00  0.00    +0.000 A 
ENDROOT
BRANCH   9  10
ATOM     10  C   UNL     1       5.036   4.856  17.741  0.00  0.00    +0.000 A 
ATOM     11  C   UNL     1       6.160   5.678  17.951  0.00  0.00    +0.000 A 
ATOM     12  C   UNL     1       7.125   5.939  16.965  0.00  0.00    +0.000 A 
ATOM     13  C   UNL     1       6.896   5.384  15.713  0.00  0.00    +0.000 A 
ATOM     14  N   UNL     1       7.590   5.448  14.533  0.00  0.00    +0.000 N 
ATOM     15  C   UNL     1       6.899   4.730  13.603  0.00  0.00    +0.000 A 
ATOM     16  N   UNL     1       5.824   4.177  14.114  0.00  0.00    +0.000 NA
ATOM     17  C   UNL     1       5.803   4.568  15.435  0.00  0.00    +0.000 A 
ATOM     18  C   UNL     1       4.893   4.270  16.469  0.00  0.00    +0.000 A 
ATOM     19  F   UNL     1       3.898   3.405  16.221  0.00  0.00    +0.000 F 
ATOM     20  H   UNL     1       8.456   5.946  14.379  0.00  0.00    +0.000 HD
ENDBRANCH   9  10
BRANCH   6  21
ATOM     21  C   UNL     1       1.667   8.932  19.477  0.00  0.00    +0.000 A 
ATOM     22  C   UNL     1       2.057   9.477  18.250  0.00  0.00    +0.000 A 
ATOM     23  C   UNL     1       1.787  10.815  17.959  0.00  0.00    +0.000 A 
ATOM     24  C   UNL     1       1.127  11.609  18.894  0.00  0.00    +0.000 A 
ATOM     25  F   UNL     1       0.885  12.888  18.575  0.00  0.00    +0.000 F 
ATOM     26  C   UNL     1       0.728  11.098  20.126  0.00  0.00    +0.000 A 
ATOM     27  C   UNL     1       1.004   9.746  20.412  0.00  0.00    +0.000 A 
BRANCH  26  28
ATOM     28  C   UNL     1       0.015  11.955  21.128  0.00  0.00    +0.000 C 
ATOM     29  F   UNL     1      -1.192  12.436  20.726  0.00  0.00    +0.000 F 
ATOM     30  F   UNL     1      -0.226  11.290  22.294  0.00  0.00    +0.000 F 
ATOM     31  F   UNL     1       0.745  13.052  21.480  0.00  0.00    +0.000 F 
ENDBRANCH  26  28
ENDBRANCH   6  21
BRANCH   1  33
ATOM     32  C   UNL     1       4.626   1.554  21.032  0.00  0.00    +0.000 C 
ATOM     33  C   UNL     1       4.522   2.126  19.612  0.00  0.00    +0.000 C 
ATOM     34  C   UNL     1       3.830   1.101  18.710  0.00  0.00    +0.000 C 
ENDBRANCH   1  33
TORSDOF 4
ENDMDL
MODEL 2
REMARK VINA RESULT:      -8.2      4.341      9.644
REMARK  Name = 
REMARK  6 active torsions:
REMARK  status: ('A' for Active; 'I' for Inactive)
REMARK    1  A    between atoms: C_1  and  C_2
REMARK    2  A    between atoms: C_2  and  C_3
REMARK    3  A    between atoms: C_2  and  C_4
REMARK    4  A    between atoms: C_9  and  C_10
REMARK    5  A    between atoms: C_15  and  C_16
REMARK    6  A    between atoms: C_23  and  C_24
REMARK                            x       y       z     vdW  Elec       q    Type
REMARK                         _______ _______ _______ _____ _____    ______ ____
ROOT
ATOM      1  C   UNL     1      -1.017  13.504  22.659  0.00  0.00    +0.000 A 
ATOM      2  N   UNL     1      -1.284  12.318  23.313  0.00  0.00    +0.000 NA
ATOM      3  C   UNL     1      -0.662  11.405  22.613  0.00  0.00    +0.000 A 
ATOM      4  C   UNL     1      -0.602   9.992  22.864  0.00  0.00    +0.000 A 
ATOM      5  N   UNL     1       0.014   9.169  22.059  0.00  0.00    +0.000 NA
ATOM      6  C   UNL     1       0.601   9.711  20.925  0.00  0.00    +0.000 A 
ATOM      7  C   UNL     1       0.570  11.025  20.621  0.00  0.00    +0.000 A 
ATOM      8  N   UNL     1      -0.039  11.912  21.501  0.00  0.00    +0.000 N 
ATOM      9  C   UNL     1      -0.197  13.297  21.534  0.00  0.00    +0.000 A 
ENDROOT
BRANCH   9  10
ATOM     10  C   UNL     1       0.379  14.256  20.559  0.00  0.00    +0.000 A 
ATOM     11  C   UNL     1      -0.469  15.022  19.736  0.00  0.00    +0.000 A 
ATOM     12  C   UNL     1      -0.003  15.962  18.804  0.00  0.00    +0.000 A 
ATOM     13  C   UNL     1       1.375  16.077  18.678  0.00  0.00    +0.000 A 
ATOM     14  N   UNL     1       2.167  16.851  17.871  0.00  0.00    +0.000 N 
ATOM     15  C   UNL     1       3.468  16.546  18.146  0.00  0.00    +0.000 A 
ATOM     16  N   UNL     1       3.567  15.653  19.102  0.00  0.00    +0.000 NA
ATOM     17  C   UNL     1       2.270  15.348  19.455  0.00  0.00    +0.000 A 
ATOM     18  C   UNL     1       1.766  14.464  20.429  0.00  0.00    +0.000 A 
ATOM     19  F   UNL     1       2.631  13.838  21.242  0.00  0.00    +0.000 F 
ATOM     20  H   UNL     1       1.845  17.523  17.188  0.00  0.00    +0.000 HD
ENDBRANCH   9  10
BRANCH   6  21
ATOM     21  C   UNL     1       1.297   8.795  20.008  0.00  0.00    +0.000 A 
ATOM     22  C   UNL     1       1.592   9.195  18.701  0.00  0.00    +0.000 A 
ATOM     23  C   UNL     1       2.266   8.331  17.838  0.00  0.00    +0.000 A 
ATOM     24  C   UNL     1       2.646   7.065  18.280  0.00  0.00    +0.000 A 
ATOM     25  F   UNL     1       3.294   6.267  17.420  0.00  0.00    +0.000 F 
ATOM     26  C   UNL     1       2.366   6.635  19.573  0.00  0.00    +0.000 A 
ATOM     27  C   UNL     1       1.685   7.514  20.439  0.00  0.00    +0.000 A 
BRANCH  26  28
ATOM     28  C   UNL     1       2.780   5.273  20.046  0.00  0.00    +0.000 C 
ATOM     29  F   UNL     1       2.457   4.983  21.334  0.00  0.00    +0.000 F 
ATOM     30  F   UNL     1       2.224   4.279  19.296  0.00  0.00    +0.000 F 
ATOM     31  F   UNL     1       4.128   5.086  19.957  0.00  0.00    +0.000 F 
ENDBRANCH  26  28
ENDBRANCH   6  21
BRANCH   1  33
ATOM     32  C   UNL     1      -3.055  14.959  22.704  0.00  0.00    +0.000 C 
ATOM     33  C   UNL     1      -1.615  14.780  23.199  0.00  0.00    +0.000 C 
ATOM     34  C   UNL     1      -1.601  14.852  24.728  0.00  0.00    +0.000 C 
ENDBRANCH   1  33
TORSDOF 4
ENDMDL
MODEL 3
REMARK VINA RESULT:      -8.1      4.021      9.007
REMARK  Name = 
REMARK  6 active torsions:
REMARK  status: ('A' for Active; 'I' for Inactive)
REMARK    1  A    between atoms: C_1  and  C_2
REMARK    2  A    between atoms: C_2  and  C_3
REMARK    3  A    between atoms: C_2  and  C_4
REMARK    4  A    between atoms: C_9  and  C_10
REMARK    5  A    between atoms: C_15  and  C_16
REMARK    6  A    between atoms: C_23  and  C_24
REMARK                            x       y       z     vdW  Elec       q    Type
REMARK                         _______ _______ _______ _____ _____    ______ ____
ROOT
ATOM      1  C   UNL     1      -0.072  12.736  21.997  0.00  0.00    +0.000 A 
ATOM      2  N   UNL     1      -0.655  11.698  22.695  0.00  0.00    +0.000 NA
ATOM      3  C   UNL     1      -0.125  10.616  22.186  0.00  0.00    +0.000 A 
ATOM      4  C   UNL     1      -0.376   9.252  22.561  0.00  0.00    +0.000 A 
ATOM      5  N   UNL     1       0.182   8.247  21.940  0.00  0.00    +0.000 NA
ATOM      6  C   UNL     1       1.020   8.546  20.876  0.00  0.00    +0.000 A 
ATOM      7  C   UNL     1       1.287   9.802  20.462  0.00  0.00    +0.000 A 
ATOM      8  N   UNL     1       0.739  10.876  21.152  0.00  0.00    +0.000 N 
ATOM      9  C   UNL     1       0.848  12.262  21.043  0.00  0.00    +0.000 A 
ENDROOT
BRANCH   9  10
ATOM     10  C   UNL     1       1.733  12.987  20.099  0.00  0.00    +0.000 A 
ATOM     11  C   UNL     1       1.554  12.844  18.710  0.00  0.00    +0.000 A 
ATOM     12  C   UNL     1       2.335  13.510  17.754  0.00  0.00    +0.000 A 
ATOM     13  C   UNL     1       3.365  14.304  18.241  0.00  0.00    +0.000 A 
ATOM     14  N   UNL     1       4.324  15.060  17.618  0.00  0.00    +0.000 N 
ATOM     15  C   UNL     1       5.106  15.621  18.583  0.00  0.00    +0.000 A 
ATOM     16  N   UNL     1       4.694  15.305  19.789  0.00  0.00    +0.000 NA
ATOM     17  C   UNL     1       3.603  14.485  19.600  0.00  0.00    +0.000 A 
ATOM     18  C   UNL     1       2.753  13.856  20.532  0.00  0.00    +0.000 A 
ATOM     19  F   UNL     1       2.926  14.114  21.838  0.00  0.00    +0.000 F 
ATOM     20  H   UNL     1       4.434  15.175  16.620  0.00  0.00    +0.000 HD
ENDBRANCH   9  10
BRANCH   6  21
ATOM     21  C   UNL     1       1.653   7.423  20.166  0.00  0.00    +0.000 A 
ATOM     22  C   UNL     1       2.252   7.626  18.919  0.00  0.00    +0.000 A 
ATOM     23  C   UNL     1       2.866   6.564  18.254  0.00  0.00    +0.000 A 
ATOM     24  C   UNL     1       2.881   5.298  18.835  0.00  0.00    +0.000 A 
ATOM     25  F   UNL     1       3.483   4.306  18.164  0.00  0.00    +0.000 F 
ATOM     26  C   UNL     1       2.292   5.061  20.073  0.00  0.00    +0.000 A 
ATOM     27  C   UNL     1       1.675   6.140  20.738  0.00  0.00    +0.000 A 
BRANCH  26  28
ATOM     28  C   UNL     1       2.315   3.698  20.696  0.00  0.00    +0.000 C 
ATOM     29  F   UNL     1       3.498   3.035  20.600  0.00  0.00    +0.000 F 
ATOM     30  F   UNL     1       2.024   3.737  22.029  0.00  0.00    +0.000 F 
ATOM     31  F   UNL     1       1.385   2.865  20.147  0.00  0.00    +0.000 F 
ENDBRANCH  26  28
ENDBRANCH   6  21
BRANCH   1  33
ATOM     32  C   UNL     1      -1.400  14.717  21.229  0.00  0.00    +0.000 C 
ATOM     33  C   UNL     1      -0.486  14.150  22.323  0.00  0.00    +0.000 C 
ATOM     34  C   UNL     1      -1.190  14.276  23.677  0.00  0.00    +0.000 C 
ENDBRANCH   1  33
TORSDOF 4
ENDMDL
MODEL 4
REMARK VINA RESULT:      -8.0      4.225      9.833
REMARK  Name = 
REMARK  6 active torsions:
REMARK  status: ('A' for Active; 'I' for Inactive)
REMARK    1  A    between atoms: C_1  and  C_2
REMARK    2  A    between atoms: C_2  and  C_3
REMARK    3  A    between atoms: C_2  and  C_4
REMARK    4  A    between atoms: C_9  and  C_10
REMARK    5  A    between atoms: C_15  and  C_16
REMARK    6  A    between atoms: C_23  and  C_24
REMARK                            x       y       z     vdW  Elec       q    Type
REMARK                         _______ _______ _______ _____ _____    ______ ____
ROOT
ATOM      1  C   UNL     1      -1.241  13.061  22.794  0.00  0.00    +0.000 A 
ATOM      2  N   UNL     1      -1.436  11.831  23.388  0.00  0.00    +0.000 NA
ATOM      3  C   UNL     1      -0.743  10.996  22.658  0.00  0.00    +0.000 A 
ATOM      4  C   UNL     1      -0.590   9.580  22.844  0.00  0.00    +0.000 A 
ATOM      5  N   UNL     1       0.093   8.839  22.013  0.00  0.00    +0.000 NA
ATOM      6  C   UNL     1       0.656   9.473  20.916  0.00  0.00    +0.000 A 
ATOM      7  C   UNL     1       0.540  10.795  20.672  0.00  0.00    +0.000 A 
ATOM      8  N   UNL     1      -0.141  11.596  21.581  0.00  0.00    +0.000 N 
ATOM      9  C   UNL     1      -0.394  12.964  21.676  0.00  0.00    +0.000 A 
ENDROOT
BRANCH   9  10
ATOM     10  C   UNL     1       0.129  14.005  20.756  0.00  0.00    +0.000 A 
ATOM     11  C   UNL     1       1.517  14.152  20.570  0.00  0.00    +0.000 A 
ATOM     12  C   UNL     1       2.088  15.097  19.705  0.00  0.00    +0.000 A 
ATOM     13  C   UNL     1       1.207  15.950  19.053  0.00  0.00    +0.000 A 
ATOM     14  N   UNL     1       1.403  16.987  18.178  0.00  0.00    +0.000 N 
ATOM     15  C   UNL     1       0.180  17.503  17.862  0.00  0.00    +0.000 A 
ATOM     16  N   UNL     1      -0.792  16.844  18.448  0.00  0.00    +0.000 NA
ATOM     17  C   UNL     1      -0.175  15.865  19.194  0.00  0.00    +0.000 A 
ATOM     18  C   UNL     1      -0.715  14.857  20.018  0.00  0.00    +0.000 A 
ATOM     19  F   UNL     1      -2.049  14.716  20.073  0.00  0.00    +0.000 F 
ATOM     20  H   UNL     1       2.294  17.315  17.834  0.00  0.00    +0.000 HD
ENDBRANCH   9  10
BRANCH   6  21
ATOM     21  C   UNL     1       1.427   8.650  19.969  0.00  0.00    +0.000 A 
ATOM     22  C   UNL     1       1.776   9.160  18.715  0.00  0.00    +0.000 A 
ATOM     23  C   UNL     1       2.520   8.384  17.825  0.00  0.00    +0.000 A 
ATOM     24  C   UNL     1       2.916   7.098  18.188  0.00  0.00    +0.000 A 
ATOM     25  F   UNL     1       3.630   6.387  17.305  0.00  0.00    +0.000 F 
ATOM     26  C   UNL     1       2.582   6.560  19.428  0.00  0.00    +0.000 A 
ATOM     27  C   UNL     1       1.831   7.351  20.321  0.00  0.00    +0.000 A 
BRANCH  26  28
ATOM     28  C   UNL     1       3.013   5.178  19.816  0.00  0.00    +0.000 C 
ATOM     29  F   UNL     1       4.357   4.968  19.819  0.00  0.00    +0.000 F 
ATOM     30  F   UNL     1       2.586   4.839  21.066  0.00  0.00    +0.000 F 
ATOM     31  F   UNL     1       2.498   4.226  18.986  0.00  0.00    +0.000 F 
ENDBRANCH  26  28
ENDBRANCH   6  21
BRANCH   1  33
ATOM     32  C   UNL     1      -3.355  13.912  23.836  0.00  0.00    +0.000 C 
ATOM     33  C   UNL     1      -1.933  14.267  23.383  0.00  0.00    +0.000 C 
ATOM     34  C   UNL     1      -1.173  14.883  24.560  0.00  0.00    +0.000 C 
ENDBRANCH   1  33
TORSDOF 4
ENDMDL
MODEL 5
REMARK VINA RESULT:      -7.9      4.292      9.716
REMARK  Name = 
REMARK  6 active torsions:
REMARK  status: ('A' for Active; 'I' for Inactive)
REMARK    1  A    between atoms: C_1  and  C_2
REMARK    2  A    between atoms: C_2  and  C_3
REMARK    3  A    between atoms: C_2  and  C_4
REMARK    4  A    between atoms: C_9  and  C_10
REMARK    5  A    between atoms: C_15  and  C_16
REMARK    6  A    between atoms: C_23  and  C_24
REMARK                            x       y       z     vdW  Elec       q    Type
REMARK                         _______ _______ _______ _____ _____    ______ ____
ROOT
ATOM      1  C   UNL     1      -0.765  13.495  22.548  0.00  0.00    +0.000 A 
ATOM      2  N   UNL     1      -1.174  12.320  23.146  0.00  0.00    +0.000 NA
ATOM      3  C   UNL     1      -0.577  11.376  22.465  0.00  0.00    +0.000 A 
ATOM      4  C   UNL     1      -0.650   9.957  22.678  0.00  0.00    +0.000 A 
ATOM      5  N   UNL     1      -0.044   9.105  21.896  0.00  0.00    +0.000 NA
ATOM      6  C   UNL     1       0.666   9.623  20.823  0.00  0.00    +0.000 A 
ATOM      7  C   UNL     1       0.763  10.943  20.556  0.00  0.00    +0.000 A 
ATOM      8  N   UNL     1       0.164  11.855  21.416  0.00  0.00    +0.000 N 
ATOM      9  C   UNL     1       0.116  13.248  21.479  0.00  0.00    +0.000 A 
ENDROOT
BRANCH   9  10
ATOM     10  C   UNL     1       0.837  14.178  20.576  0.00  0.00    +0.000 A 
ATOM     11  C   UNL     1       2.243  14.138  20.495  0.00  0.00    +0.000 A 
ATOM     12  C   UNL     1       2.995  14.970  19.653  0.00  0.00    +0.000 A 
ATOM     13  C   UNL     1       2.285  15.906  18.913  0.00  0.00    +0.000 A 
ATOM     14  N   UNL     1       2.679  16.878  18.029  0.00  0.00    +0.000 N 
ATOM     15  C   UNL     1       1.562  17.535  17.606  0.00  0.00    +0.000 A 
ATOM     16  N   UNL     1       0.471  17.029  18.131  0.00  0.00    +0.000 NA
ATOM     17  C   UNL     1       0.898  16.005  18.948  0.00  0.00    +0.000 A 
ATOM     18  C   UNL     1       0.170  15.106  19.753  0.00  0.00    +0.000 A 
ATOM     19  F   UNL     1      -1.171  15.141  19.708  0.00  0.00    +0.000 F 
ATOM     20  H   UNL     1       3.629  17.075  17.748  0.00  0.00    +0.000 HD
ENDBRANCH   9  10
BRANCH   6  21
ATOM     21  C   UNL     1       1.352   8.675  19.932  0.00  0.00    +0.000 A 
ATOM     22  C   UNL     1       1.654   9.037  18.616  0.00  0.00    +0.000 A 
ATOM     23  C   UNL     1       2.319   8.142  17.776  0.00  0.00    +0.000 A 
ATOM     24  C   UNL     1       2.682   6.884  18.252  0.00  0.00    +0.000 A 
ATOM     25  F   UNL     1       3.321   6.055  17.415  0.00  0.00    +0.000 F 
ATOM     26  C   UNL     1       2.394   6.491  19.555  0.00  0.00    +0.000 A 
ATOM     27  C   UNL     1       1.723   7.401  20.397  0.00  0.00    +0.000 A 
BRANCH  26  28
ATOM     28  C   UNL     1       2.790   5.137  20.064  0.00  0.00    +0.000 C 
ATOM     29  F   UNL     1       2.207   4.085  19.431  0.00  0.00    +0.000 F 
ATOM     30  F   UNL     1       4.134   4.925  19.966  0.00  0.00    +0.000 F 
ATOM     31  F   UNL     1       2.493   4.977  21.386  0.00  0.00    +0.000 F 
ENDBRANCH  26  28
ENDBRANCH   6  21
BRANCH   1  33
ATOM     32  C   UNL     1      -2.726  15.054  22.583  0.00  0.00    +0.000 C 
ATOM     33  C   UNL     1      -1.297  14.802  23.081  0.00  0.00    +0.000 C 
ATOM     34  C   UNL     1      -1.280  14.881  24.610  0.00  0.00    +0.000 C 
ENDBRANCH   1  33
TORSDOF 4
ENDMDL
MODEL 6
REMARK VINA RESULT:      -7.7      4.651      8.041
REMARK  Name = 
REMARK  6 active torsions:
REMARK  status: ('A' for Active; 'I' for Inactive)
REMARK    1  A    between atoms: C_1  and  C_2
REMARK    2  A    between atoms: C_2  and  C_3
REMARK    3  A    between atoms: C_2  and  C_4
REMARK    4  A    between atoms: C_9  and  C_10
REMARK    5  A    between atoms: C_15  and  C_16
REMARK    6  A    between atoms: C_23  and  C_24
REMARK                            x       y       z     vdW  Elec       q    Type
REMARK                         _______ _______ _______ _____ _____    ______ ____
ROOT
ATOM      1  C   UNL     1      -0.989  11.519  18.561  0.00  0.00    +0.000 A 
ATOM      2  N   UNL     1      -1.100  12.874  18.322  0.00  0.00    +0.000 NA
ATOM      3  C   UNL     1       0.058  13.369  18.673  0.00  0.00    +0.000 A 
ATOM      4  C   UNL     1       0.484  14.740  18.615  0.00  0.00    +0.000 A 
ATOM      5  N   UNL     1       1.657  15.123  19.044  0.00  0.00    +0.000 NA
ATOM      6  C   UNL     1       2.482  14.148  19.585  0.00  0.00    +0.000 A 
ATOM      7  C   UNL     1       2.140  12.846  19.684  0.00  0.00    +0.000 A 
ATOM      8  N   UNL     1       0.914  12.426  19.181  0.00  0.00    +0.000 N 
ATOM      9  C   UNL     1       0.283  11.188  19.063  0.00  0.00    +0.000 A 
ENDROOT
BRANCH   9  10
ATOM     10  C   UNL     1       0.877   9.878  19.425  0.00  0.00    +0.000 A 
ATOM     11  C   UNL     1       0.686   9.348  20.716  0.00  0.00    +0.000 A 
ATOM     12  C   UNL     1       1.198   8.109  21.130  0.00  0.00    +0.000 A 
ATOM     13  C   UNL     1       1.972   7.420  20.206  0.00  0.00    +0.000 A 
ATOM     14  N   UNL     1       2.641   6.225  20.269  0.00  0.00    +0.000 N 
ATOM     15  C   UNL     1       3.268   6.035  19.073  0.00  0.00    +0.000 A 
ATOM     16  N   UNL     1       3.019   7.010  18.231  0.00  0.00    +0.000 NA
ATOM     17  C   UNL     1       2.206   7.887  18.916  0.00  0.00    +0.000 A 
ATOM     18  C   UNL     1       1.618   9.102  18.513  0.00  0.00    +0.000 A 
ATOM     19  F   UNL     1       1.765   9.498  17.239  0.00  0.00    +0.000 F 
ATOM     20  H   UNL     1       2.669   5.601  21.062  0.00  0.00    +0.000 HD
ENDBRANCH   9  10
BRANCH   6  21
ATOM     21  C   UNL     1       3.805  14.565  20.075  0.00  0.00    +0.000 A 
ATOM     22  C   UNL     1       4.057  14.641  21.448  0.00  0.00    +0.000 A 
ATOM     23  C   UNL     1       5.318  15.021  21.910  0.00  0.00    +0.000 A 
ATOM     24  C   UNL     1       6.328  15.326  21.001  0.00  0.00    +0.000 A 
ATOM     25  F   UNL     1       7.524  15.685  21.486  0.00  0.00    +0.000 F 
ATOM     26  C   UNL     1       6.109  15.264  19.628  0.00  0.00    +0.000 A 
ATOM     27  C   UNL     1       4.834  14.878  19.169  0.00  0.00    +0.000 A 
BRANCH  26  28
ATOM     28  C   UNL     1       7.200  15.590  18.652  0.00  0.00    +0.000 C 
ATOM     29  F   UNL     1       8.406  15.020  18.918  0.00  0.00    +0.000 F 
ATOM     30  F   UNL     1       6.885  15.204  17.382  0.00  0.00    +0.000 F 
ATOM     31  F   UNL     1       7.439  16.930  18.576  0.00  0.00    +0.000 F 
ENDBRANCH  26  28
ENDBRANCH   6  21
BRANCH   1  33
ATOM     32  C   UNL     1      -3.477  11.453  18.271  0.00  0.00    +0.000 C 
ATOM     33  C   UNL     1      -2.179  10.634  18.281  0.00  0.00    +0.000 C 
ATOM     34  C   UNL     1      -2.063   9.866  16.962  0.00  0.00    +0.000 C 
ENDBRANCH   1  33
TORSDOF 4
ENDMDL
MODEL 7
REMARK VINA RESULT:      -7.7      3.778      8.856
REMARK  Name = 
REMARK  6 active torsions:
REMARK  status: ('A' for Active; 'I' for Inactive)
REMARK    1  A    between atoms: C_1  and  C_2
REMARK    2  A    between atoms: C_2  and  C_3
REMARK    3  A    between atoms: C_2  and  C_4
REMARK    4  A    between atoms: C_9  and  C_10
REMARK    5  A    between atoms: C_15  and  C_16
REMARK    6  A    between atoms: C_23  and  C_24
REMARK                            x       y       z     vdW  Elec       q    Type
REMARK                         _______ _______ _______ _____ _____    ______ ____
ROOT
ATOM      1  C   UNL     1      -0.262  12.538  21.835  0.00  0.00    +0.000 A 
ATOM      2  N   UNL     1      -0.883  11.524  22.535  0.00  0.00    +0.000 NA
ATOM      3  C   UNL     1      -0.295  10.430  22.125  0.00  0.00    +0.000 A 
ATOM      4  C   UNL     1      -0.552   9.080  22.546  0.00  0.00    +0.000 A 
ATOM      5  N   UNL     1       0.071   8.058  22.023  0.00  0.00    +0.000 NA
ATOM      6  C   UNL     1       0.988   8.322  21.017  0.00  0.00    +0.000 A 
ATOM      7  C   UNL     1       1.267   9.562  20.563  0.00  0.00    +0.000 A 
ATOM      8  N   UNL     1       0.646  10.657  21.153  0.00  0.00    +0.000 N 
ATOM      9  C   UNL     1       0.740  12.038  20.983  0.00  0.00    +0.000 A 
ENDROOT
BRANCH   9  10
ATOM     10  C   UNL     1       1.686  12.735  20.078  0.00  0.00    +0.000 A 
ATOM     11  C   UNL     1       1.663  12.475  18.695  0.00  0.00    +0.000 A 
ATOM     12  C   UNL     1       2.511  13.107  17.772  0.00  0.00    +0.000 A 
ATOM     13  C   UNL     1       3.446  13.990  18.295  0.00  0.00    +0.000 A 
ATOM     14  N   UNL     1       4.430  14.746  17.713  0.00  0.00    +0.000 N 
ATOM     15  C   UNL     1       5.079  15.421  18.704  0.00  0.00    +0.000 A 
ATOM     16  N   UNL     1       4.556  15.177  19.883  0.00  0.00    +0.000 NA
ATOM     17  C   UNL     1       3.529  14.288  19.652  0.00  0.00    +0.000 A 
ATOM     18  C   UNL     1       2.615  13.688  20.540  0.00  0.00    +0.000 A 
ATOM     19  F   UNL     1       2.635  14.054  21.831  0.00  0.00    +0.000 F 
ATOM     20  H   UNL     1       4.640  14.789  16.726  0.00  0.00    +0.000 HD
ENDBRANCH   9  10
BRANCH   6  21
ATOM     21  C   UNL     1       1.696   7.180  20.417  0.00  0.00    +0.000 A 
ATOM     22  C   UNL     1       1.531   5.895  20.942  0.00  0.00    +0.000 A 
ATOM     23  C   UNL     1       2.191   4.810  20.362  0.00  0.00    +0.000 A 
ATOM     24  C   UNL     1       3.015   5.010  19.257  0.00  0.00    +0.000 A 
ATOM     25  F   UNL     1       3.628   3.941  18.729  0.00  0.00    +0.000 F 
ATOM     26  C   UNL     1       3.203   6.276  18.712  0.00  0.00    +0.000 A 
ATOM     27  C   UNL     1       2.532   7.366  19.303  0.00  0.00    +0.000 A 
BRANCH  26  28
ATOM     28  C   UNL     1       4.088   6.486  17.520  0.00  0.00    +0.000 C 
ATOM     29  F   UNL     1       4.088   5.474  16.612  0.00  0.00    +0.000 F 
ATOM     30  F   UNL     1       3.749   7.606  16.820  0.00  0.00    +0.000 F 
ATOM     31  F   UNL     1       5.394   6.658  17.873  0.00  0.00    +0.000 F 
ENDBRANCH  26  28
ENDBRANCH   6  21
BRANCH   1  33
ATOM     32  C   UNL     1      -1.811  14.341  21.042  0.00  0.00    +0.000 C 
ATOM     33  C   UNL     1      -0.725  13.958  22.056  0.00  0.00    +0.000 C 
ATOM     34  C   UNL     1      -1.253  14.207  23.471  0.00  0.00    +0.000 C 
ENDBRANCH   1  33
TORSDOF 4
ENDMDL
MODEL 8
REMARK VINA RESULT:      -7.6      0.612      1.089
REMARK  Name = 
REMARK  6 active torsions:
REMARK  status: ('A' for Active; 'I' for Inactive)
REMARK    1  A    between atoms: C_1  and  C_2
REMARK    2  A    between atoms: C_2  and  C_3
REMARK    3  A    between atoms: C_2  and  C_4
REMARK    4  A    between atoms: C_9  and  C_10
REMARK    5  A    between atoms: C_15  and  C_16
REMARK    6  A    between atoms: C_23  and  C_24
REMARK                            x       y       z     vdW  Elec       q    Type
REMARK                         _______ _______ _______ _____ _____    ______ ____
ROOT
ATOM      1  C   UNL     1       3.148   3.597  19.850  0.00  0.00    +0.000 A 
ATOM      2  N   UNL     1       2.079   3.942  20.652  0.00  0.00    +0.000 NA
ATOM      3  C   UNL     1       1.872   5.209  20.401  0.00  0.00    +0.000 A 
ATOM      4  C   UNL     1       0.863   6.065  20.963  0.00  0.00    +0.000 A 
ATOM      5  N   UNL     1       0.788   7.336  20.669  0.00  0.00    +0.000 NA
ATOM      6  C   UNL     1       1.743   7.843  19.801  0.00  0.00    +0.000 A 
ATOM      7  C   UNL     1       2.726   7.100  19.250  0.00  0.00    +0.000 A 
ATOM      8  N   UNL     1       2.778   5.738  19.517  0.00  0.00    +0.000 N 
ATOM      9  C   UNL     1       3.591   4.690  19.084  0.00  0.00    +0.000 A 
ENDROOT
BRANCH   9  10
ATOM     10  C   UNL     1       4.666   4.796  18.068  0.00  0.00    +0.000 A 
ATOM     11  C   UNL     1       5.936   5.287  18.428  0.00  0.00    +0.000 A 
ATOM     12  C   UNL     1       7.008   5.398  17.531  0.00  0.00    +0.000 A 
ATOM     13  C   UNL     1       6.751   5.045  16.213  0.00  0.00    +0.000 A 
ATOM     14  N   UNL     1       7.530   5.053  15.085  0.00  0.00    +0.000 N 
ATOM     15  C   UNL     1       6.761   4.626  14.043  0.00  0.00    +0.000 A 
ATOM     16  N   UNL     1       5.548   4.309  14.431  0.00  0.00    +0.000 NA
ATOM     17  C   UNL     1       5.519   4.559  15.786  0.00  0.00    +0.000 A 
ATOM     18  C   UNL     1       4.486   4.394  16.730  0.00  0.00    +0.000 A 
ATOM     19  F   UNL     1       3.334   3.832  16.332  0.00  0.00    +0.000 F 
ATOM     20  H   UNL     1       8.500   5.333  15.035  0.00  0.00    +0.000 HD
ENDBRANCH   9  10
BRANCH   6  21
ATOM     21  C   UNL     1       1.671   9.274  19.463  0.00  0.00    +0.000 A 
ATOM     22  C   UNL     1       2.178   9.736  18.245  0.00  0.00    +0.000 A 
ATOM     23  C   UNL     1       2.095  11.091  17.920  0.00  0.00    +0.000 A 
ATOM     24  C   UNL     1       1.506  11.984  18.812  0.00  0.00    +0.000 A 
ATOM     25  F   UNL     1       1.445  13.276  18.461  0.00  0.00    +0.000 F 
ATOM     26  C   UNL     1       0.995  11.557  20.034  0.00  0.00    +0.000 A 
ATOM     27  C   UNL     1       1.082  10.187  20.355  0.00  0.00    +0.000 A 
BRANCH  26  28
ATOM     28  C   UNL     1       0.359  12.521  20.990  0.00  0.00    +0.000 C 
ATOM     29  F   UNL     1       1.166  13.526  21.424  0.00  0.00    +0.000 F 
ATOM     30  F   UNL     1      -0.733  13.135  20.449  0.00  0.00    +0.000 F 
ATOM     31  F   UNL     1      -0.094  11.904  22.118  0.00  0.00    +0.000 F 
ENDBRANCH  26  28
ENDBRANCH   6  21
BRANCH   1  33
ATOM     32  C   UNL     1       3.560   1.500  18.542  0.00  0.00    +0.000 C 
ATOM     33  C   UNL     1       3.671   2.182  19.912  0.00  0.00    +0.000 C 
ATOM     34  C   UNL     1       5.120   2.096  20.396  0.00  0.00    +0.000 C 
ENDBRANCH   1  33
TORSDOF 4
ENDMDL
MODEL 9
REMARK VINA RESULT:      -7.6      6.942     11.169
REMARK  Name = 
REMARK  6 active torsions:
REMARK  status: ('A' for Active; 'I' for Inactive)
REMARK    1  A    between atoms: C_1  and  C_2
REMARK    2  A    between atoms: C_2  and  C_3
REMARK    3  A    between atoms: C_2  and  C_4
REMARK    4  A    between atoms: C_9  and  C_10
REMARK    5  A    between atoms: C_15  and  C_16
REMARK    6  A    between atoms: C_23  and  C_24
REMARK                            x       y       z     vdW  Elec       q    Type
REMARK                         _______ _______ _______ _____ _____    ______ ____
ROOT
ATOM      1  C   UNL     1       2.717  16.319  18.685  0.00  0.00    +0.000 A 
ATOM      2  N   UNL     1       3.717  17.260  18.551  0.00  0.00    +0.000 NA
ATOM      3  C   UNL     1       4.825  16.601  18.772  0.00  0.00    +0.000 A 
ATOM      4  C   UNL     1       6.170  17.106  18.744  0.00  0.00    +0.000 A 
ATOM      5  N   UNL     1       7.200  16.356  19.033  0.00  0.00    +0.000 NA
ATOM      6  C   UNL     1       6.944  15.041  19.393  0.00  0.00    +0.000 A 
ATOM      7  C   UNL     1       5.707  14.507  19.454  0.00  0.00    +0.000 A 
ATOM      8  N   UNL     1       4.613  15.286  19.096  0.00  0.00    +0.000 N 
ATOM      9  C   UNL     1       3.243  15.049  18.986  0.00  0.00    +0.000 A 
ENDROOT
BRANCH   9  10
ATOM     10  C   UNL     1       2.575  13.739  19.179  0.00  0.00    +0.000 A 
ATOM     11  C   UNL     1       2.541  12.801  18.130  0.00  0.00    +0.000 A 
ATOM     12  C   UNL     1       1.946  11.534  18.240  0.00  0.00    +0.000 A 
ATOM     13  C   UNL     1       1.322  11.247  19.446  0.00  0.00    +0.000 A 
ATOM     14  N   UNL     1       0.632  10.150  19.891  0.00  0.00    +0.000 N 
ATOM     15  C   UNL     1       0.207  10.410  21.160  0.00  0.00    +0.000 A 
ATOM     16  N   UNL     1       0.608  11.589  21.576  0.00  0.00    +0.000 NA
ATOM     17  C   UNL     1       1.312  12.129  20.523  0.00  0.00    +0.000 A 
ATOM     18  C   UNL     1       1.980  13.364  20.399  0.00  0.00    +0.000 A 
ATOM     19  F   UNL     1       2.051  14.167  21.472  0.00  0.00    +0.000 F 
ATOM     20  H   UNL     1       0.462   9.302  19.368  0.00  0.00    +0.000 HD
ENDBRANCH   9  10
BRANCH   6  21
ATOM     21  C   UNL     1       8.095  14.185  19.723  0.00  0.00    +0.000 A 
ATOM     22  C   UNL     1       8.291  13.743  21.035  0.00  0.00    +0.000 A 
ATOM     23  C   UNL     1       9.374  12.918  21.343  0.00  0.00    +0.000 A 
ATOM     24  C   UNL     1      10.261  12.534  20.340  0.00  0.00    +0.000 A 
ATOM     25  F   UNL     1      11.287  11.740  20.677  0.00  0.00    +0.000 F 
ATOM     26  C   UNL     1      10.097  12.959  19.025  0.00  0.00    +0.000 A 
ATOM     27  C   UNL     1       9.000  13.791  18.722  0.00  0.00    +0.000 A 
BRANCH  26  28
ATOM     28  C   UNL     1      11.052  12.541  17.948  0.00  0.00    +0.000 C 
ATOM     29  F   UNL     1      10.769  13.014  16.705  0.00  0.00    +0.000 F 
ATOM     30  F   UNL     1      12.329  12.941  18.211  0.00  0.00    +0.000 F 
ATOM     31  F   UNL     1      11.117  11.185  17.815  0.00  0.00    +0.000 F 
ENDBRANCH  26  28
ENDBRANCH   6  21
BRANCH   1  33
ATOM     32  C   UNL     1       0.679  17.184  19.858  0.00  0.00    +0.000 C 
ATOM     33  C   UNL     1       1.283  16.757  18.514  0.00  0.00    +0.000 C 
ATOM     34  C   UNL     1       1.117  17.898  17.508  0.00  0.00    +0.000 C 
ENDBRANCH   1  33
TORSDOF 4
ENDMDL
