MODEL 1
REMARK VINA RESULT:      -7.6      0.000      0.000
REMARK  Name = 
REMARK  6 active torsions:
REMARK  status: ('A' for Active; 'I' for Inactive)
REMARK    1  A    between atoms: C_1  and  C_2
REMARK    2  A    between atoms: C_2  and  C_3
REMARK    3  A    between atoms: C_3  and  C_4
REMARK    4  A    between atoms: C_4  and  C_5
REMARK    5  A    between atoms: C_7  and  C_8
REMARK    6  A    between atoms: C_8  and  N_9
REMARK                            x       y       z     vdW  Elec       q    Type
REMARK                         _______ _______ _______ _____ _____    ______ ____
ROOT
ATOM      1  N   UNL     1       6.218   4.899  17.110  0.00  0.00    +0.000 N 
ATOM      2  C   UNL     1       7.220   5.739  16.692  0.00  0.00    +0.000 A 
ATOM      3  N   UNL     1       7.644   5.833  15.474  0.00  0.00    +0.000 NA
ATOM      4  C   UNL     1       7.044   5.012  14.511  0.00  0.00    +0.000 A 
ATOM      5  C   UNL     1       7.542   5.025  13.205  0.00  0.00    +0.000 A 
ATOM      6  C   UNL     1       6.984   4.199  12.223  0.00  0.00    +0.000 A 
ATOM      7  C   UNL     1       5.913   3.366  12.544  0.00  0.00    +0.000 A 
ATOM      8 CL   UNL     1       5.242   2.338  11.339  0.00  0.00    +0.000 Cl
ATOM      9  C   UNL     1       5.396   3.347  13.836  0.00  0.00    +0.000 A 
ATOM     10  C   UNL     1       5.974   4.166  14.811  0.00  0.00    +0.000 A 
ATOM     11  C   UNL     1       5.506   4.121  16.211  0.00  0.00    +0.000 A 
ATOM     12  O   UNL     1       4.555   3.409  16.518  0.00  0.00    +0.000 OA
ENDROOT
BRANCH   1  13
ATOM     13  C   UNL     1       5.903   4.799  18.525  0.00  0.00    +0.000 C 
BRANCH  13  16
ATOM     14  C   UNL     1       2.607   5.492  19.825  0.00  0.00    +0.000 A 
ATOM     15  N   UNL     1       3.715   4.793  19.689  0.00  0.00    +0.000 NA
ATOM     16  C   UNL     1       4.579   5.431  18.812  0.00  0.00    +0.000 A 
ATOM     17  C   UNL     1       4.089   6.606  18.274  0.00  0.00    +0.000 A 
ATOM     18  S   UNL     1       2.518   6.922  18.879  0.00  0.00    +0.000 S 
BRANCH  14  19
ATOM     19  C   UNL     1       1.498   5.120  20.763  0.00  0.00    +0.000 C 
BRANCH  19  20
ATOM     20  C   UNL     1       1.383   3.597  20.849  0.00  0.00    +0.000 C 
BRANCH  20  22
ATOM     21  C   UNL     1       1.506   2.125  18.825  0.00  0.00    +0.000 C 
ATOM     22  C   UNL     1       0.605   3.007  19.677  0.00  0.00    +0.000 C 
ENDBRANCH  20  22
ENDBRANCH  19  20
ENDBRANCH  14  19
ENDBRANCH  13  16
ENDBRANCH   1  13
TORSDOF 5
ENDMDL
MODEL 2
REMARK VINA RESULT:      -7.4      4.455      7.928
REMARK  Name = 
REMARK  6 active torsions:
REMARK  status: ('A' for Active; 'I' for Inactive)
REMARK    1  A    between atoms: C_1  and  C_2
REMARK    2  A    between atoms: C_2  and  C_3
REMARK    3  A    between atoms: C_3  and  C_4
REMARK    4  A    between atoms: C_4  and  C_5
REMARK    5  A    between atoms: C_7  and  C_8
REMARK    6  A    between atoms: C_8  and  N_9
REMARK                            x       y       z     vdW  Elec       q    Type
REMARK                         _______ _______ _______ _____ _____    ______ ____
ROOT
ATOM      1  N   UNL     1       2.483   6.509  18.712  0.00  0.00    +0.000 N 
ATOM      2  C   UNL     1       2.549   7.552  17.822  0.00  0.00    +0.000 A 
ATOM      3  N   UNL     1       2.126   8.752  18.058  0.00  0.00    +0.000 NA
ATOM      4  C   UNL     1       1.549   9.003  19.309  0.00  0.00    +0.000 A 
ATOM      5  C   UNL     1       1.000  10.264  19.560  0.00  0.00    +0.000 A 
ATOM      6  C   UNL     1       0.393  10.543  20.789  0.00  0.00    +0.000 A 
ATOM      7  C   UNL     1       0.345   9.562  21.779  0.00  0.00    +0.000 A 
ATOM      8 CL   UNL     1      -0.419   9.903  23.281  0.00  0.00    +0.000 Cl
ATOM      9  C   UNL     1       0.896   8.304  21.552  0.00  0.00    +0.000 A 
ATOM     10  C   UNL     1       1.486   8.033  20.313  0.00  0.00    +0.000 A 
ATOM     11  C   UNL     1       2.014   6.690  20.003  0.00  0.00    +0.000 A 
ATOM     12  O   UNL     1       2.000   5.812  20.860  0.00  0.00    +0.000 OA
ENDROOT
BRANCH   1  13
ATOM     13  C   UNL     1       2.889   5.178  18.294  0.00  0.00    +0.000 C 
BRANCH  13  16
ATOM     14  C   UNL     1       6.133   4.828  16.748  0.00  0.00    +0.000 A 
ATOM     15  N   UNL     1       4.816   4.814  16.779  0.00  0.00    +0.000 NA
ATOM     16  C   UNL     1       4.363   5.133  18.050  0.00  0.00    +0.000 A 
ATOM     17  C   UNL     1       5.363   5.362  18.977  0.00  0.00    +0.000 A 
ATOM     18  S   UNL     1       6.900   5.178  18.244  0.00  0.00    +0.000 S 
BRANCH  14  19
ATOM     19  C   UNL     1       6.939   4.604  15.504  0.00  0.00    +0.000 C 
BRANCH  19  20
ATOM     20  C   UNL     1       6.116   3.802  14.494  0.00  0.00    +0.000 C 
BRANCH  20  22
ATOM     21  C   UNL     1       5.855   3.095  12.105  0.00  0.00    +0.000 C 
ATOM     22  C   UNL     1       6.561   4.049  13.057  0.00  0.00    +0.000 C 
ENDBRANCH  20  22
ENDBRANCH  19  20
ENDBRANCH  14  19
ENDBRANCH  13  16
ENDBRANCH   1  13
TORSDOF 5
ENDMDL
MODEL 3
REMARK VINA RESULT:      -7.1      5.051      7.687
REMARK  Name = 
REMARK  6 active torsions:
REMARK  status: ('A' for Active; 'I' for Inactive)
REMARK    1  A    between atoms: C_1  and  C_2
REMARK    2  A    between atoms: C_2  and  C_3
REMARK    3  A    between atoms: C_3  and  C_4
REMARK    4  A    between atoms: C_4  and  C_5
REMARK    5  A    between atoms: C_7  and  C_8
REMARK    6  A    between atoms: C_8  and  N_9
REMARK                            x       y       z     vdW  Elec       q    Type
REMARK                         _______ _______ _______ _____ _____    ______ ____
ROOT
ATOM      1  N   UNL     1       2.458   7.864  18.743  0.00  0.00    +0.000 N 
ATOM      2  C   UNL     1       2.225   7.257  19.953  0.00  0.00    +0.000 A 
ATOM      3  N   UNL     1       1.447   7.723  20.875  0.00  0.00    +0.000 NA
ATOM      4  C   UNL     1       0.801   8.941  20.626  0.00  0.00    +0.000 A 
ATOM      5  C   UNL     1       0.026   9.515  21.638  0.00  0.00    +0.000 A 
ATOM      6  C   UNL     1      -0.612  10.742  21.434  0.00  0.00    +0.000 A 
ATOM      7  C   UNL     1      -0.488  11.394  20.207  0.00  0.00    +0.000 A 
ATOM      8 CL   UNL     1      -1.260  12.912  19.966  0.00  0.00    +0.000 Cl
ATOM      9  C   UNL     1       0.269  10.833  19.184  0.00  0.00    +0.000 A 
ATOM     10  C   UNL     1       0.916   9.613  19.407  0.00  0.00    +0.000 A 
ATOM     11  C   UNL     1       1.790   9.020  18.376  0.00  0.00    +0.000 A 
ATOM     12  O   UNL     1       1.905   9.563  17.281  0.00  0.00    +0.000 OA
ENDROOT
BRANCH   1  13
ATOM     13  C   UNL     1       3.441   7.301  17.832  0.00  0.00    +0.000 C 
BRANCH  13  16
ATOM     14  C   UNL     1       3.102   3.718  18.125  0.00  0.00    +0.000 A 
ATOM     15  N   UNL     1       2.722   4.930  17.775  0.00  0.00    +0.000 NA
ATOM     16  C   UNL     1       3.681   5.860  18.147  0.00  0.00    +0.000 A 
ATOM     17  C   UNL     1       4.774   5.327  18.804  0.00  0.00    +0.000 A 
ATOM     18  S   UNL     1       4.601   3.630  18.957  0.00  0.00    +0.000 S 
BRANCH  14  19
ATOM     19  C   UNL     1       2.329   2.476  17.798  0.00  0.00    +0.000 C 
BRANCH  19  20
ATOM     20  C   UNL     1       1.723   1.894  19.077  0.00  0.00    +0.000 C 
BRANCH  20  22
ATOM     21  C   UNL     1       1.366   2.918  21.335  0.00  0.00    +0.000 C 
ATOM     22  C   UNL     1       0.941   2.931  19.874  0.00  0.00    +0.000 C 
ENDBRANCH  20  22
ENDBRANCH  19  20
ENDBRANCH  14  19
ENDBRANCH  13  16
ENDBRANCH   1  13
TORSDOF 5
ENDMDL
MODEL 4
REMARK VINA RESULT:      -7.1      3.615      7.011
REMARK  Name = 
REMARK  6 active torsions:
REMARK  status: ('A' for Active; 'I' for Inactive)
REMARK    1  A    between atoms: C_1  and  C_2
REMARK    2  A    between atoms: C_2  and  C_3
REMARK    3  A    between atoms: C_3  and  C_4
REMARK    4  A    between atoms: C_4  and  C_5
REMARK    5  A    between atoms: C_7  and  C_8
REMARK    6  A    between atoms: C_8  and  N_9
REMARK                            x       y       z     vdW  Elec       q    Type
REMARK                         _______ _______ _______ _____ _____    ______ ____
ROOT
ATOM      1  N   UNL     1       5.833   4.890  16.331  0.00  0.00    +0.000 N 
ATOM      2  C   UNL     1       5.118   3.799  16.759  0.00  0.00    +0.000 A 
ATOM      3  N   UNL     1       3.991   3.856  17.390  0.00  0.00    +0.000 NA
ATOM      4  C   UNL     1       3.464   5.125  17.667  0.00  0.00    +0.000 A 
ATOM      5  C   UNL     1       2.295   5.221  18.427  0.00  0.00    +0.000 A 
ATOM      6  C   UNL     1       1.755   6.472  18.744  0.00  0.00    +0.000 A 
ATOM      7  C   UNL     1       2.378   7.633  18.288  0.00  0.00    +0.000 A 
ATOM      8 CL   UNL     1       1.722   9.170  18.696  0.00  0.00    +0.000 Cl
ATOM      9  C   UNL     1       3.537   7.557  17.521  0.00  0.00    +0.000 A 
ATOM     10  C   UNL     1       4.075   6.301  17.224  0.00  0.00    +0.000 A 
ATOM     11  C   UNL     1       5.343   6.177  16.478  0.00  0.00    +0.000 A 
ATOM     12  O   UNL     1       5.905   7.181  16.051  0.00  0.00    +0.000 OA
ENDROOT
BRANCH   1  13
ATOM     13  C   UNL     1       7.143   4.704  15.730  0.00  0.00    +0.000 C 
BRANCH  13  16
ATOM     14  C   UNL     1       6.105   3.570  12.462  0.00  0.00    +0.000 A 
ATOM     15  N   UNL     1       6.078   3.606  13.779  0.00  0.00    +0.000 NA
ATOM     16  C   UNL     1       7.018   4.509  14.253  0.00  0.00    +0.000 A 
ATOM     17  C   UNL     1       7.766   5.130  13.270  0.00  0.00    +0.000 A 
ATOM     18  S   UNL     1       7.284   4.577  11.723  0.00  0.00    +0.000 S 
BRANCH  14  19
ATOM     19  C   UNL     1       5.160   2.754  11.633  0.00  0.00    +0.000 C 
BRANCH  19  20
ATOM     20  C   UNL     1       3.797   3.445  11.572  0.00  0.00    +0.000 C 
BRANCH  20  22
ATOM     21  C   UNL     1       2.865   4.384   9.445  0.00  0.00    +0.000 C 
ATOM     22  C   UNL     1       3.042   3.128  10.286  0.00  0.00    +0.000 C 
ENDBRANCH  20  22
ENDBRANCH  19  20
ENDBRANCH  14  19
ENDBRANCH  13  16
ENDBRANCH   1  13
TORSDOF 5
ENDMDL
MODEL 5
REMARK VINA RESULT:      -7.0      1.753      2.602
REMARK  Name = 
REMARK  6 active torsions:
REMARK  status: ('A' for Active; 'I' for Inactive)
REMARK    1  A    between atoms: C_1  and  C_2
REMARK    2  A    between atoms: C_2  and  C_3
REMARK    3  A    between atoms: C_3  and  C_4
REMARK    4  A    between atoms: C_4  and  C_5
REMARK    5  A    between atoms: C_7  and  C_8
REMARK    6  A    between atoms: C_8  and  N_9
REMARK                            x       y       z     vdW  Elec       q    Type
REMARK                         _______ _______ _______ _____ _____    ______ ____
ROOT
ATOM      1  N   UNL     1       5.869   5.120  17.034  0.00  0.00    +0.000 N 
ATOM      2  C   UNL     1       6.978   5.856  16.695  0.00  0.00    +0.000 A 
ATOM      3  N   UNL     1       7.538   5.854  15.529  0.00  0.00    +0.000 NA
ATOM      4  C   UNL     1       6.979   5.033  14.541  0.00  0.00    +0.000 A 
ATOM      5  C   UNL     1       7.614   4.939  13.300  0.00  0.00    +0.000 A 
ATOM      6  C   UNL     1       7.099   4.110  12.299  0.00  0.00    +0.000 A 
ATOM      7  C   UNL     1       5.934   3.380  12.533  0.00  0.00    +0.000 A 
ATOM      8 CL   UNL     1       5.314   2.347  11.306  0.00  0.00    +0.000 Cl
ATOM      9  C   UNL     1       5.281   3.468  13.758  0.00  0.00    +0.000 A 
ATOM     10  C   UNL     1       5.816   4.290  14.757  0.00  0.00    +0.000 A 
ATOM     11  C   UNL     1       5.197   4.354  16.096  0.00  0.00    +0.000 A 
ATOM     12  O   UNL     1       4.163   3.735  16.325  0.00  0.00    +0.000 OA
ENDROOT
BRANCH   1  13
ATOM     13  C   UNL     1       5.397   5.118  18.408  0.00  0.00    +0.000 C 
BRANCH  13  16
ATOM     14  C   UNL     1       2.445   6.794  19.640  0.00  0.00    +0.000 A 
ATOM     15  N   UNL     1       3.409   5.897  19.668  0.00  0.00    +0.000 NA
ATOM     16  C   UNL     1       4.231   6.042  18.561  0.00  0.00    +0.000 A 
ATOM     17  C   UNL     1       3.852   7.047  17.690  0.00  0.00    +0.000 A 
ATOM     18  S   UNL     1       2.441   7.827  18.268  0.00  0.00    +0.000 S 
BRANCH  14  19
ATOM     19  C   UNL     1       1.431   6.960  20.731  0.00  0.00    +0.000 C 
BRANCH  19  20
ATOM     20  C   UNL     1       1.132   8.446  20.937  0.00  0.00    +0.000 C 
BRANCH  20  22
ATOM     21  C   UNL     1      -0.254  10.133  22.165  0.00  0.00    +0.000 C 
ATOM     22  C   UNL     1      -0.141   8.675  21.744  0.00  0.00    +0.000 C 
ENDBRANCH  20  22
ENDBRANCH  19  20
ENDBRANCH  14  19
ENDBRANCH  13  16
ENDBRANCH   1  13
TORSDOF 5
ENDMDL
MODEL 6
REMARK VINA RESULT:      -7.0      2.075      3.040
REMARK  Name = 
REMARK  6 active torsions:
REMARK  status: ('A' for Active; 'I' for Inactive)
REMARK    1  A    between atoms: C_1  and  C_2
REMARK    2  A    between atoms: C_2  and  C_3
REMARK    3  A    between atoms: C_3  and  C_4
REMARK    4  A    between atoms: C_4  and  C_5
REMARK    5  A    between atoms: C_7  and  C_8
REMARK    6  A    between atoms: C_8  and  N_9
REMARK                            x       y       z     vdW  Elec       q    Type
REMARK                         _______ _______ _______ _____ _____    ______ ____
ROOT
ATOM      1  N   UNL     1       6.052   4.957  17.197  0.00  0.00    +0.000 N 
ATOM      2  C   UNL     1       7.093   5.774  16.831  0.00  0.00    +0.000 A 
ATOM      3  N   UNL     1       7.585   5.855  15.637  0.00  0.00    +0.000 NA
ATOM      4  C   UNL     1       7.020   5.041  14.646  0.00  0.00    +0.000 A 
ATOM      5  C   UNL     1       7.589   5.038  13.369  0.00  0.00    +0.000 A 
ATOM      6  C   UNL     1       7.068   4.220  12.361  0.00  0.00    +0.000 A 
ATOM      7  C   UNL     1       5.964   3.410  12.626  0.00  0.00    +0.000 A 
ATOM      8 CL   UNL     1       5.337   2.391  11.390  0.00  0.00    +0.000 Cl
ATOM      9  C   UNL     1       5.377   3.408  13.888  0.00  0.00    +0.000 A 
ATOM     10  C   UNL     1       5.918   4.219  14.891  0.00  0.00    +0.000 A 
ATOM     11  C   UNL     1       5.375   4.191  16.263  0.00  0.00    +0.000 A 
ATOM     12  O   UNL     1       4.393   3.499  16.521  0.00  0.00    +0.000 OA
ENDROOT
BRANCH   1  13
ATOM     13  C   UNL     1       5.660   4.871  18.593  0.00  0.00    +0.000 C 
BRANCH  13  16
ATOM     14  C   UNL     1       2.972   7.274  18.395  0.00  0.00    +0.000 A 
ATOM     15  N   UNL     1       4.131   6.747  18.058  0.00  0.00    +0.000 NA
ATOM     16  C   UNL     1       4.388   5.622  18.826  0.00  0.00    +0.000 A 
ATOM     17  C   UNL     1       3.414   5.330  19.763  0.00  0.00    +0.000 A 
ATOM     18  S   UNL     1       2.150   6.482  19.679  0.00  0.00    +0.000 S 
BRANCH  14  19
ATOM     19  C   UNL     1       2.361   8.454  17.702  0.00  0.00    +0.000 C 
BRANCH  19  20
ATOM     20  C   UNL     1       1.476   9.227  18.681  0.00  0.00    +0.000 C 
BRANCH  20  22
ATOM     21  C   UNL     1      -0.408  10.873  18.819  0.00  0.00    +0.000 C 
ATOM     22  C   UNL     1       0.180   9.707  18.037  0.00  0.00    +0.000 C 
ENDBRANCH  20  22
ENDBRANCH  19  20
ENDBRANCH  14  19
ENDBRANCH  13  16
ENDBRANCH   1  13
TORSDOF 5
ENDMDL
MODEL 7
REMARK VINA RESULT:      -6.9      4.078      7.586
REMARK  Name = 
REMARK  6 active torsions:
REMARK  status: ('A' for Active; 'I' for Inactive)
REMARK    1  A    between atoms: C_1  and  C_2
REMARK    2  A    between atoms: C_2  and  C_3
REMARK    3  A    between atoms: C_3  and  C_4
REMARK    4  A    between atoms: C_4  and  C_5
REMARK    5  A    between atoms: C_7  and  C_8
REMARK    6  A    between atoms: C_8  and  N_9
REMARK                            x       y       z     vdW  Elec       q    Type
REMARK                         _______ _______ _______ _____ _____    ______ ____
ROOT
ATOM      1  N   UNL     1       3.083   5.694  18.653  0.00  0.00    +0.000 N 
ATOM      2  C   UNL     1       3.177   6.662  17.684  0.00  0.00    +0.000 A 
ATOM      3  N   UNL     1       2.687   7.855  17.781  0.00  0.00    +0.000 NA
ATOM      4  C   UNL     1       2.001   8.181  18.958  0.00  0.00    +0.000 A 
ATOM      5  C   UNL     1       1.382   9.431  19.055  0.00  0.00    +0.000 A 
ATOM      6  C   UNL     1       0.666   9.781  20.205  0.00  0.00    +0.000 A 
ATOM      7  C   UNL     1       0.579   8.884  21.269  0.00  0.00    +0.000 A 
ATOM      8 CL   UNL     1      -0.317   9.311  22.673  0.00  0.00    +0.000 Cl
ATOM      9  C   UNL     1       1.198   7.640  21.195  0.00  0.00    +0.000 A 
ATOM     10  C   UNL     1       1.898   7.296  20.034  0.00  0.00    +0.000 A 
ATOM     11  C   UNL     1       2.504   5.959  19.883  0.00  0.00    +0.000 A 
ATOM     12  O   UNL     1       2.458   5.155  20.810  0.00  0.00    +0.000 OA
ENDROOT
BRANCH   1  13
ATOM     13  C   UNL     1       3.576   4.354  18.384  0.00  0.00    +0.000 C 
BRANCH  13  16
ATOM     14  C   UNL     1       6.050   4.158  15.761  0.00  0.00    +0.000 A 
ATOM     15  N   UNL     1       4.844   4.037  16.278  0.00  0.00    +0.000 NA
ATOM     16  C   UNL     1       4.856   4.413  17.613  0.00  0.00    +0.000 A 
ATOM     17  C   UNL     1       6.095   4.792  18.094  0.00  0.00    +0.000 A 
ATOM     18  S   UNL     1       7.269   4.680  16.852  0.00  0.00    +0.000 S 
BRANCH  14  19
ATOM     19  C   UNL     1       6.365   3.907  14.317  0.00  0.00    +0.000 C 
BRANCH  19  20
ATOM     20  C   UNL     1       5.067   3.840  13.510  0.00  0.00    +0.000 C 
BRANCH  20  22
ATOM     21  C   UNL     1       6.599   2.729  11.868  0.00  0.00    +0.000 C 
ATOM     22  C   UNL     1       5.316   3.529  12.038  0.00  0.00    +0.000 C 
ENDBRANCH  20  22
ENDBRANCH  19  20
ENDBRANCH  14  19
ENDBRANCH  13  16
ENDBRANCH   1  13
TORSDOF 5
ENDMDL
MODEL 8
REMARK VINA RESULT:      -6.9      4.432      7.697
REMARK  Name = 
REMARK  6 active torsions:
REMARK  status: ('A' for Active; 'I' for Inactive)
REMARK    1  A    between atoms: C_1  and  C_2
REMARK    2  A    between atoms: C_2  and  C_3
REMARK    3  A    between atoms: C_3  and  C_4
REMARK    4  A    between atoms: C_4  and  C_5
REMARK    5  A    between atoms: C_7  and  C_8
REMARK    6  A    between atoms: C_8  and  N_9
REMARK                            x       y       z     vdW  Elec       q    Type
REMARK                         _______ _______ _______ _____ _____    ______ ____
ROOT
ATOM      1  N   UNL     1       2.472   5.899  18.845  0.00  0.00    +0.000 N 
ATOM      2  C   UNL     1       2.589   6.847  17.859  0.00  0.00    +0.000 A 
ATOM      3  N   UNL     1       2.245   8.087  17.982  0.00  0.00    +0.000 NA
ATOM      4  C   UNL     1       1.703   8.493  19.209  0.00  0.00    +0.000 A 
ATOM      5  C   UNL     1       1.237   9.804  19.343  0.00  0.00    +0.000 A 
ATOM      6  C   UNL     1       0.667  10.236  20.544  0.00  0.00    +0.000 A 
ATOM      7  C   UNL     1       0.572   9.358  21.624  0.00  0.00    +0.000 A 
ATOM      8 CL   UNL     1      -0.147   9.887  23.093  0.00  0.00    +0.000 Cl
ATOM      9  C   UNL     1       1.041   8.052  21.514  0.00  0.00    +0.000 A 
ATOM     10  C   UNL     1       1.595   7.628  20.301  0.00  0.00    +0.000 A 
ATOM     11  C   UNL     1       2.034   6.231  20.117  0.00  0.00    +0.000 A 
ATOM     12  O   UNL     1       1.978   5.441  21.054  0.00  0.00    +0.000 OA
ENDROOT
BRANCH   1  13
ATOM     13  C   UNL     1       2.788   4.511  18.553  0.00  0.00    +0.000 C 
BRANCH  13  16
ATOM     14  C   UNL     1       6.272   4.651  17.613  0.00  0.00    +0.000 A 
ATOM     15  N   UNL     1       5.246   4.808  18.424  0.00  0.00    +0.000 NA
ATOM     16  C   UNL     1       4.074   4.416  17.795  0.00  0.00    +0.000 A 
ATOM     17  C   UNL     1       4.236   3.989  16.491  0.00  0.00    +0.000 A 
ATOM     18  S   UNL     1       5.886   4.074  16.042  0.00  0.00    +0.000 S 
BRANCH  14  19
ATOM     19  C   UNL     1       7.694   4.907  18.011  0.00  0.00    +0.000 C 
BRANCH  19  20
ATOM     20  C   UNL     1       7.738   5.952  19.128  0.00  0.00    +0.000 C 
BRANCH  20  22
ATOM     21  C   UNL     1       7.552   7.791  17.437  0.00  0.00    +0.000 C 
ATOM     22  C   UNL     1       8.311   7.283  18.655  0.00  0.00    +0.000 C 
ENDBRANCH  20  22
ENDBRANCH  19  20
ENDBRANCH  14  19
ENDBRANCH  13  16
ENDBRANCH   1  13
TORSDOF 5
ENDMDL
MODEL 9
REMARK VINA RESULT:      -6.9      3.389      6.822
REMARK  Name = 
REMARK  6 active torsions:
REMARK  status: ('A' for Active; 'I' for Inactive)
REMARK    1  A    between atoms: C_1  and  C_2
REMARK    2  A    between atoms: C_2  and  C_3
REMARK    3  A    between atoms: C_3  and  C_4
REMARK    4  A    between atoms: C_4  and  C_5
REMARK    5  A    between atoms: C_7  and  C_8
REMARK    6  A    between atoms: C_8  and  N_9
REMARK                            x       y       z     vdW  Elec       q    Type
REMARK                         _______ _______ _______ _____ _____    ______ ____
ROOT
ATOM      1  N   UNL     1       6.111   5.268  16.845  0.00  0.00    +0.000 N 
ATOM      2  C   UNL     1       5.659   6.468  16.355  0.00  0.00    +0.000 A 
ATOM      3  N   UNL     1       4.583   7.068  16.749  0.00  0.00    +0.000 NA
ATOM      4  C   UNL     1       3.817   6.443  17.742  0.00  0.00    +0.000 A 
ATOM      5  C   UNL     1       2.602   7.021  18.123  0.00  0.00    +0.000 A 
ATOM      6  C   UNL     1       1.799   6.412  19.092  0.00  0.00    +0.000 A 
ATOM      7  C   UNL     1       2.217   5.226  19.695  0.00  0.00    +0.000 A 
ATOM      8 CL   UNL     1       1.218   4.470  20.873  0.00  0.00    +0.000 Cl
ATOM      9  C   UNL     1       3.428   4.641  19.337  0.00  0.00    +0.000 A 
ATOM     10  C   UNL     1       4.214   5.253  18.355  0.00  0.00    +0.000 A 
ATOM     11  C   UNL     1       5.468   4.627  17.891  0.00  0.00    +0.000 A 
ATOM     12  O   UNL     1       5.869   3.592  18.415  0.00  0.00    +0.000 OA
ENDROOT
BRANCH   1  13
ATOM     13  C   UNL     1       7.275   4.636  16.245  0.00  0.00    +0.000 C 
BRANCH  13  16
ATOM     14  C   UNL     1       6.243   3.699  12.914  0.00  0.00    +0.000 A 
ATOM     15  N   UNL     1       6.255   3.617  14.229  0.00  0.00    +0.000 NA
ATOM     16  C   UNL     1       7.121   4.561  14.760  0.00  0.00    +0.000 A 
ATOM     17  C   UNL     1       7.777   5.334  13.820  0.00  0.00    +0.000 A 
ATOM     18  S   UNL     1       7.299   4.874  12.241  0.00  0.00    +0.000 S 
BRANCH  14  19
ATOM     19  C   UNL     1       5.352   2.873  12.037  0.00  0.00    +0.000 C 
BRANCH  19  20
ATOM     20  C   UNL     1       4.131   3.695  11.619  0.00  0.00    +0.000 C 
BRANCH  20  22
ATOM     21  C   UNL     1       2.831   4.133   9.523  0.00  0.00    +0.000 C 
ATOM     22  C   UNL     1       3.376   3.061  10.457  0.00  0.00    +0.000 C 
ENDBRANCH  20  22
ENDBRANCH  19  20
ENDBRANCH  14  19
ENDBRANCH  13  16
ENDBRANCH   1  13
TORSDOF 5
ENDMDL
