MODEL 1
REMARK VINA RESULT:      -7.2      0.000      0.000
REMARK  Name = 
REMARK  4 active torsions:
REMARK  status: ('A' for Active; 'I' for Inactive)
REMARK    1  A    between atoms: C_4  and  C_5
REMARK    2  A    between atoms: C_5  and  N_6
REMARK    3  A    between atoms: C_9  and  N_10
REMARK    4  A    between atoms: C_13  and  N_14
REMARK                            x       y       z     vdW  Elec       q    Type
REMARK                         _______ _______ _______ _____ _____    ______ ____
ROOT
ATOM      1  N   UNL     1       1.528   7.969  19.356  0.00  0.00    +0.000 NA
ATOM      2  C   UNL     1       1.226   8.822  20.518  0.00  0.00    +0.000 C 
ATOM      3  C   UNL     1       0.359  10.037  20.190  0.00  0.00    +0.000 C 
ATOM      4  C   UNL     1       0.877  10.896  19.026  0.00  0.00    +0.000 C 
ATOM      5  C   UNL     1       1.194   9.949  17.848  0.00  0.00    +0.000 C 
ATOM      6  C   UNL     1       2.032   8.723  18.205  0.00  0.00    +0.000 C 
ENDROOT
BRANCH   4   7
ATOM      7  N   UNL     1       1.889  11.934  19.385  0.00  0.00    +0.000 NA
ATOM      8  C   UNL     1       2.482  12.665  18.266  0.00  0.00    +0.000 C 
ATOM      9  C   UNL     1       3.311  13.900  18.625  0.00  0.00    +0.000 C 
ATOM     10  C   UNL     1       2.571  14.862  19.581  0.00  0.00    +0.000 C 
ATOM     11  C   UNL     1       2.293  13.983  20.817  0.00  0.00    +0.000 C 
ATOM     12  C   UNL     1       1.397  12.794  20.476  0.00  0.00    +0.000 C 
BRANCH  10  13
ATOM     13  N   UNL     1       1.368  15.554  19.002  0.00  0.00    +0.000 NA
ATOM     14  C   UNL     1       0.470  16.085  20.041  0.00  0.00    +0.000 C 
ATOM     15  C   UNL     1      -0.979  16.266  19.566  0.00  0.00    +0.000 C 
ATOM     16  C   UNL     1      -1.276  17.582  18.864  0.00  0.00    +0.000 C 
ATOM     17  C   UNL     1      -0.472  17.799  17.594  0.00  0.00    +0.000 C 
ATOM     18  C   UNL     1       1.021  17.897  17.862  0.00  0.00    +0.000 C 
ATOM     19  C   UNL     1       1.758  16.555  17.987  0.00  0.00    +0.000 C 
ENDBRANCH  10  13
ENDBRANCH   4   7
BRANCH   1  20
ATOM     20  C   UNL     1       2.504   6.910  19.713  0.00  0.00    +0.000 C 
BRANCH  20  24
ATOM     21  C   UNL     1       1.318   2.812  19.183  0.00  0.00    +0.000 A 
ATOM     22  C   UNL     1       1.138   3.434  20.418  0.00  0.00    +0.000 A 
ATOM     23  C   UNL     1       1.448   4.785  20.567  0.00  0.00    +0.000 A 
ATOM     24  C   UNL     1       1.955   5.518  19.486  0.00  0.00    +0.000 A 
ATOM     25  C   UNL     1       2.057   4.903  18.229  0.00  0.00    +0.000 A 
ATOM     26  C   UNL     1       1.751   3.550  18.083  0.00  0.00    +0.000 A 
ENDBRANCH  20  24
ENDBRANCH   1  20
TORSDOF 4
ENDMDL
MODEL 2
REMARK VINA RESULT:      -7.2      0.364      1.015
REMARK  Name = 
REMARK  4 active torsions:
REMARK  status: ('A' for Active; 'I' for Inactive)
REMARK    1  A    between atoms: C_4  and  C_5
REMARK    2  A    between atoms: C_5  and  N_6
REMARK    3  A    between atoms: C_9  and  N_10
REMARK    4  A    between atoms: C_13  and  N_14
REMARK                            x       y       z     vdW  Elec       q    Type
REMARK                         _______ _______ _______ _____ _____    ______ ____
ROOT
ATOM      1  N   UNL     1       1.668   7.854  19.338  0.00  0.00    +0.000 NA
ATOM      2  C   UNL     1       1.310   8.676  20.507  0.00  0.00    +0.000 C 
ATOM      3  C   UNL     1       0.394   9.857  20.182  0.00  0.00    +0.000 C 
ATOM      4  C   UNL     1       0.892  10.754  19.037  0.00  0.00    +0.000 C 
ATOM      5  C   UNL     1       1.269   9.839  17.852  0.00  0.00    +0.000 C 
ATOM      6  C   UNL     1       2.155   8.647  18.206  0.00  0.00    +0.000 C 
ENDROOT
BRANCH   4   7
ATOM      7  N   UNL     1       1.851  11.830  19.427  0.00  0.00    +0.000 NA
ATOM      8  C   UNL     1       2.333  12.682  18.341  0.00  0.00    +0.000 C 
ATOM      9  C   UNL     1       3.096  13.942  18.754  0.00  0.00    +0.000 C 
ATOM     10  C   UNL     1       2.347  14.777  19.816  0.00  0.00    +0.000 C 
ATOM     11  C   UNL     1       2.195  13.791  20.993  0.00  0.00    +0.000 C 
ATOM     12  C   UNL     1       1.362  12.570  20.604  0.00  0.00    +0.000 C 
BRANCH  10  13
ATOM     13  N   UNL     1       1.071  15.424  19.353  0.00  0.00    +0.000 NA
ATOM     14  C   UNL     1       0.311  16.027  20.460  0.00  0.00    +0.000 C 
ATOM     15  C   UNL     1      -1.189  16.171  20.167  0.00  0.00    +0.000 C 
ATOM     16  C   UNL     1      -1.590  17.433  19.418  0.00  0.00    +0.000 C 
ATOM     17  C   UNL     1      -0.961  17.559  18.042  0.00  0.00    +0.000 C 
ATOM     18  C   UNL     1       0.554  17.678  18.105  0.00  0.00    +0.000 C 
ATOM     19  C   UNL     1       1.316  16.350  18.227  0.00  0.00    +0.000 C 
ENDBRANCH  10  13
ENDBRANCH   4   7
BRANCH   1  20
ATOM     20  C   UNL     1       2.685   6.835  19.697  0.00  0.00    +0.000 C 
BRANCH  20  24
ATOM     21  C   UNL     1       0.902   2.988  18.984  0.00  0.00    +0.000 A 
ATOM     22  C   UNL     1       1.520   3.673  17.939  0.00  0.00    +0.000 A 
ATOM     23  C   UNL     1       2.167   4.882  18.187  0.00  0.00    +0.000 A 
ATOM     24  C   UNL     1       2.187   5.422  19.480  0.00  0.00    +0.000 A 
ATOM     25  C   UNL     1       1.631   4.687  20.537  0.00  0.00    +0.000 A 
ATOM     26  C   UNL     1       0.979   3.480  20.286  0.00  0.00    +0.000 A 
ENDBRANCH  20  24
ENDBRANCH   1  20
TORSDOF 4
ENDMDL
MODEL 3
REMARK VINA RESULT:      -6.5      2.796      9.734
REMARK  Name = 
REMARK  4 active torsions:
REMARK  status: ('A' for Active; 'I' for Inactive)
REMARK    1  A    between atoms: C_4  and  C_5
REMARK    2  A    between atoms: C_5  and  N_6
REMARK    3  A    between atoms: C_9  and  N_10
REMARK    4  A    between atoms: C_13  and  N_14
REMARK                            x       y       z     vdW  Elec       q    Type
REMARK                         _______ _______ _______ _____ _____    ______ ____
ROOT
ATOM      1  N   UNL     1       0.482   9.793  19.140  0.00  0.00    +0.000 NA
ATOM      2  C   UNL     1       0.467   8.913  20.321  0.00  0.00    +0.000 C 
ATOM      3  C   UNL     1       1.821   8.281  20.645  0.00  0.00    +0.000 C 
ATOM      4  C   UNL     1       2.490   7.565  19.461  0.00  0.00    +0.000 C 
ATOM      5  C   UNL     1       2.459   8.525  18.252  0.00  0.00    +0.000 C 
ATOM      6  C   UNL     1       1.106   9.172  17.969  0.00  0.00    +0.000 C 
ENDROOT
BRANCH   4   7
ATOM      7  N   UNL     1       2.077   6.147  19.242  0.00  0.00    +0.000 NA
ATOM      8  C   UNL     1       2.014   5.706  17.849  0.00  0.00    +0.000 C 
ATOM      9  C   UNL     1       1.856   4.201  17.621  0.00  0.00    +0.000 C 
ATOM     10  C   UNL     1       2.879   3.361  18.417  0.00  0.00    +0.000 C 
ATOM     11  C   UNL     1       2.586   3.749  19.881  0.00  0.00    +0.000 C 
ATOM     12  C   UNL     1       2.823   5.238  20.131  0.00  0.00    +0.000 C 
BRANCH  10  13
ATOM     13  N   UNL     1       4.313   3.508  17.990  0.00  0.00    +0.000 NA
ATOM     14  C   UNL     1       4.447   4.165  16.680  0.00  0.00    +0.000 C 
ATOM     15  C   UNL     1       5.760   3.831  15.957  0.00  0.00    +0.000 C 
ATOM     16  C   UNL     1       6.950   4.701  16.333  0.00  0.00    +0.000 C 
ATOM     17  C   UNL     1       7.337   4.616  17.799  0.00  0.00    +0.000 C 
ATOM     18  C   UNL     1       6.244   5.135  18.719  0.00  0.00    +0.000 C 
ATOM     19  C   UNL     1       5.130   4.132  19.053  0.00  0.00    +0.000 C 
ENDBRANCH  10  13
ENDBRANCH   4   7
BRANCH   1  20
ATOM     20  C   UNL     1      -0.891  10.235  18.789  0.00  0.00    +0.000 C 
BRANCH  20  24
ATOM     21  C   UNL     1      -1.274  14.347  19.984  0.00  0.00    +0.000 A 
ATOM     22  C   UNL     1      -0.329  13.986  19.025  0.00  0.00    +0.000 A 
ATOM     23  C   UNL     1      -0.259  12.667  18.580  0.00  0.00    +0.000 A 
ATOM     24  C   UNL     1      -1.124  11.697  19.102  0.00  0.00    +0.000 A 
ATOM     25  C   UNL     1      -2.123  12.087  20.006  0.00  0.00    +0.000 A 
ATOM     26  C   UNL     1      -2.188  13.405  20.454  0.00  0.00    +0.000 A 
ENDBRANCH  20  24
ENDBRANCH   1  20
TORSDOF 4
ENDMDL
MODEL 4
REMARK VINA RESULT:      -6.5      4.759      6.093
REMARK  Name = 
REMARK  4 active torsions:
REMARK  status: ('A' for Active; 'I' for Inactive)
REMARK    1  A    between atoms: C_4  and  C_5
REMARK    2  A    between atoms: C_5  and  N_6
REMARK    3  A    between atoms: C_9  and  N_10
REMARK    4  A    between atoms: C_13  and  N_14
REMARK                            x       y       z     vdW  Elec       q    Type
REMARK                         _______ _______ _______ _____ _____    ______ ____
ROOT
ATOM      1  N   UNL     1       0.182  10.371  18.846  0.00  0.00    +0.000 NA
ATOM      2  C   UNL     1      -0.885   9.567  18.226  0.00  0.00    +0.000 C 
ATOM      3  C   UNL     1      -1.777  10.351  17.262  0.00  0.00    +0.000 C 
ATOM      4  C   UNL     1      -2.364  11.646  17.846  0.00  0.00    +0.000 C 
ATOM      5  C   UNL     1      -1.207  12.435  18.497  0.00  0.00    +0.000 C 
ATOM      6  C   UNL     1      -0.308  11.624  19.428  0.00  0.00    +0.000 C 
ENDROOT
BRANCH   4   7
ATOM      7  N   UNL     1      -3.632  11.493  18.620  0.00  0.00    +0.000 NA
ATOM      8  C   UNL     1      -3.867  12.485  19.668  0.00  0.00    +0.000 C 
ATOM      9  C   UNL     1      -5.268  12.504  20.283  0.00  0.00    +0.000 C 
ATOM     10  C   UNL     1      -6.389  12.552  19.222  0.00  0.00    +0.000 C 
ATOM     11  C   UNL     1      -6.145  11.271  18.397  0.00  0.00    +0.000 C 
ATOM     12  C   UNL     1      -4.778  11.287  17.716  0.00  0.00    +0.000 C 
BRANCH  10  13
ATOM     13  N   UNL     1      -6.472  13.822  18.421  0.00  0.00    +0.000 NA
ATOM     14  C   UNL     1      -7.562  13.795  17.433  0.00  0.00    +0.000 C 
ATOM     15  C   UNL     1      -7.344  14.753  16.253  0.00  0.00    +0.000 C 
ATOM     16  C   UNL     1      -7.804  16.185  16.481  0.00  0.00    +0.000 C 
ATOM     17  C   UNL     1      -7.093  16.886  17.624  0.00  0.00    +0.000 C 
ATOM     18  C   UNL     1      -7.368  16.231  18.969  0.00  0.00    +0.000 C 
ATOM     19  C   UNL     1      -6.496  15.011  19.300  0.00  0.00    +0.000 C 
ENDBRANCH  10  13
ENDBRANCH   4   7
BRANCH   1  20
ATOM     20  C   UNL     1       0.896   9.593  19.888  0.00  0.00    +0.000 C 
BRANCH  20  24
ATOM     21  C   UNL     1       3.459   6.460  18.438  0.00  0.00    +0.000 A 
ATOM     22  C   UNL     1       2.771   6.297  19.640  0.00  0.00    +0.000 A 
ATOM     23  C   UNL     1       1.880   7.278  20.070  0.00  0.00    +0.000 A 
ATOM     24  C   UNL     1       1.681   8.437  19.307  0.00  0.00    +0.000 A 
ATOM     25  C   UNL     1       2.317   8.554  18.062  0.00  0.00    +0.000 A 
ATOM     26  C   UNL     1       3.212   7.574  17.637  0.00  0.00    +0.000 A 
ENDBRANCH  20  24
ENDBRANCH   1  20
TORSDOF 4
ENDMDL
MODEL 5
REMARK VINA RESULT:      -6.2      3.319      9.583
REMARK  Name = 
REMARK  4 active torsions:
REMARK  status: ('A' for Active; 'I' for Inactive)
REMARK    1  A    between atoms: C_4  and  C_5
REMARK    2  A    between atoms: C_5  and  N_6
REMARK    3  A    between atoms: C_9  and  N_10
REMARK    4  A    between atoms: C_13  and  N_14
REMARK                            x       y       z     vdW  Elec       q    Type
REMARK                         _______ _______ _______ _____ _____    ______ ____
ROOT
ATOM      1  N   UNL     1      -0.332  10.378  18.905  0.00  0.00    +0.000 NA
ATOM      2  C   UNL     1      -0.254   9.583  20.142  0.00  0.00    +0.000 C 
ATOM      3  C   UNL     1       1.169   9.195  20.545  0.00  0.00    +0.000 C 
ATOM      4  C   UNL     1       1.985   8.520  19.432  0.00  0.00    +0.000 C 
ATOM      5  C   UNL     1       1.851   9.384  18.160  0.00  0.00    +0.000 C 
ATOM      6  C   UNL     1       0.424   9.790  17.796  0.00  0.00    +0.000 C 
ENDROOT
BRANCH   4   7
ATOM      7  N   UNL     1       1.806   7.043  19.300  0.00  0.00    +0.000 NA
ATOM      8  C   UNL     1       1.748   6.524  17.934  0.00  0.00    +0.000 C 
ATOM      9  C   UNL     1       1.834   5.004  17.781  0.00  0.00    +0.000 C 
ATOM     10  C   UNL     1       3.023   4.389  18.552  0.00  0.00    +0.000 C 
ATOM     11  C   UNL     1       2.743   4.800  20.013  0.00  0.00    +0.000 C 
ATOM     12  C   UNL     1       2.739   6.319  20.182  0.00  0.00    +0.000 C 
BRANCH  10  13
ATOM     13  N   UNL     1       4.388   4.749  18.036  0.00  0.00    +0.000 NA
ATOM     14  C   UNL     1       5.469   4.220  18.884  0.00  0.00    +0.000 C 
ATOM     15  C   UNL     1       6.785   5.001  18.758  0.00  0.00    +0.000 C 
ATOM     16  C   UNL     1       7.692   4.572  17.614  0.00  0.00    +0.000 C 
ATOM     17  C   UNL     1       7.068   4.733  16.239  0.00  0.00    +0.000 C 
ATOM     18  C   UNL     1       5.849   3.844  16.047  0.00  0.00    +0.000 C 
ATOM     19  C   UNL     1       4.531   4.402  16.606  0.00  0.00    +0.000 C 
ENDBRANCH  10  13
ENDBRANCH   4   7
BRANCH   1  20
ATOM     20  C   UNL     1      -1.742  10.575  18.487  0.00  0.00    +0.000 C 
BRANCH  20  24
ATOM     21  C   UNL     1      -3.600  13.685  20.802  0.00  0.00    +0.000 A 
ATOM     22  C   UNL     1      -2.210  13.590  20.753  0.00  0.00    +0.000 A 
ATOM     23  C   UNL     1      -1.607  12.632  19.940  0.00  0.00    +0.000 A 
ATOM     24  C   UNL     1      -2.391  11.753  19.181  0.00  0.00    +0.000 A 
ATOM     25  C   UNL     1      -3.785  11.909  19.177  0.00  0.00    +0.000 A 
ATOM     26  C   UNL     1      -4.386  12.865  19.995  0.00  0.00    +0.000 A 
ENDBRANCH  20  24
ENDBRANCH   1  20
TORSDOF 4
ENDMDL
MODEL 6
REMARK VINA RESULT:      -6.2      2.256      3.024
REMARK  Name = 
REMARK  4 active torsions:
REMARK  status: ('A' for Active; 'I' for Inactive)
REMARK    1  A    between atoms: C_4  and  C_5
REMARK    2  A    between atoms: C_5  and  N_6
REMARK    3  A    between atoms: C_9  and  N_10
REMARK    4  A    between atoms: C_13  and  N_14
REMARK                            x       y       z     vdW  Elec       q    Type
REMARK                         _______ _______ _______ _____ _____    ______ ____
ROOT
ATOM      1  N   UNL     1       1.830   7.960  18.669  0.00  0.00    +0.000 NA
ATOM      2  C   UNL     1       1.831   8.582  20.004  0.00  0.00    +0.000 C 
ATOM      3  C   UNL     1       0.542   9.332  20.343  0.00  0.00    +0.000 C 
ATOM      4  C   UNL     1       0.101  10.354  19.284  0.00  0.00    +0.000 C 
ATOM      5  C   UNL     1       0.138   9.653  17.909  0.00  0.00    +0.000 C 
ATOM      6  C   UNL     1       1.421   8.881  17.605  0.00  0.00    +0.000 C 
ENDROOT
BRANCH   4   7
ATOM      7  N   UNL     1       0.714  11.711  19.397  0.00  0.00    +0.000 NA
ATOM      8  C   UNL     1      -0.008  12.797  18.734  0.00  0.00    +0.000 C 
ATOM      9  C   UNL     1       0.455  14.218  19.061  0.00  0.00    +0.000 C 
ATOM     10  C   UNL     1       0.565  14.479  20.580  0.00  0.00    +0.000 C 
ATOM     11  C   UNL     1       1.592  13.425  21.043  0.00  0.00    +0.000 C 
ATOM     12  C   UNL     1       1.095  12.002  20.791  0.00  0.00    +0.000 C 
BRANCH  10  13
ATOM     13  N   UNL     1      -0.735  14.481  21.335  0.00  0.00    +0.000 NA
ATOM     14  C   UNL     1      -0.541  14.566  22.792  0.00  0.00    +0.000 C 
ATOM     15  C   UNL     1      -1.720  14.007  23.601  0.00  0.00    +0.000 C 
ATOM     16  C   UNL     1      -2.856  14.985  23.859  0.00  0.00    +0.000 C 
ATOM     17  C   UNL     1      -3.524  15.501  22.596  0.00  0.00    +0.000 C 
ATOM     18  C   UNL     1      -2.577  16.315  21.729  0.00  0.00    +0.000 C 
ATOM     19  C   UNL     1      -1.666  15.498  20.800  0.00  0.00    +0.000 C 
ENDBRANCH  10  13
ENDBRANCH   4   7
BRANCH   1  20
ATOM     20  C   UNL     1       3.164   7.398  18.344  0.00  0.00    +0.000 C 
BRANCH  20  24
ATOM     21  C   UNL     1       3.034   3.230  17.295  0.00  0.00    +0.000 A 
ATOM     22  C   UNL     1       1.884   3.867  17.759  0.00  0.00    +0.000 A 
ATOM     23  C   UNL     1       1.906   5.236  18.023  0.00  0.00    +0.000 A 
ATOM     24  C   UNL     1       3.083   5.973  17.839  0.00  0.00    +0.000 A 
ATOM     25  C   UNL     1       4.210   5.339  17.296  0.00  0.00    +0.000 A 
ATOM     26  C   UNL     1       4.188   3.969  17.037  0.00  0.00    +0.000 A 
ENDBRANCH  20  24
ENDBRANCH   1  20
TORSDOF 4
ENDMDL
MODEL 7
REMARK VINA RESULT:      -6.1      3.450      9.677
REMARK  Name = 
REMARK  4 active torsions:
REMARK  status: ('A' for Active; 'I' for Inactive)
REMARK    1  A    between atoms: C_4  and  C_5
REMARK    2  A    between atoms: C_5  and  N_6
REMARK    3  A    between atoms: C_9  and  N_10
REMARK    4  A    between atoms: C_13  and  N_14
REMARK                            x       y       z     vdW  Elec       q    Type
REMARK                         _______ _______ _______ _____ _____    ______ ____
ROOT
ATOM      1  N   UNL     1       0.480   9.673  19.636  0.00  0.00    +0.000 NA
ATOM      2  C   UNL     1       0.545   8.688  20.729  0.00  0.00    +0.000 C 
ATOM      3  C   UNL     1       1.919   8.041  20.906  0.00  0.00    +0.000 C 
ATOM      4  C   UNL     1       2.512   7.442  19.620  0.00  0.00    +0.000 C 
ATOM      5  C   UNL     1       2.400   8.508  18.509  0.00  0.00    +0.000 C 
ATOM      6  C   UNL     1       1.028   9.167  18.374  0.00  0.00    +0.000 C 
ENDROOT
BRANCH   4   7
ATOM      7  N   UNL     1       2.089   6.046  19.300  0.00  0.00    +0.000 NA
ATOM      8  C   UNL     1       2.036   5.704  17.879  0.00  0.00    +0.000 C 
ATOM      9  C   UNL     1       1.868   4.220  17.545  0.00  0.00    +0.000 C 
ATOM     10  C   UNL     1       2.876   3.318  18.290  0.00  0.00    +0.000 C 
ATOM     11  C   UNL     1       2.572   3.606  19.775  0.00  0.00    +0.000 C 
ATOM     12  C   UNL     1       2.819   5.071  20.130  0.00  0.00    +0.000 C 
BRANCH  10  13
ATOM     13  N   UNL     1       4.316   3.482  17.887  0.00  0.00    +0.000 NA
ATOM     14  C   UNL     1       4.465   4.184  16.602  0.00  0.00    +0.000 C 
ATOM     15  C   UNL     1       5.788   3.877  15.886  0.00  0.00    +0.000 C 
ATOM     16  C   UNL     1       6.972   4.735  16.307  0.00  0.00    +0.000 C 
ATOM     17  C   UNL     1       7.340   4.600  17.774  0.00  0.00    +0.000 C 
ATOM     18  C   UNL     1       6.234   5.086  18.697  0.00  0.00    +0.000 C 
ATOM     19  C   UNL     1       5.118   4.070  18.982  0.00  0.00    +0.000 C 
ENDBRANCH  10  13
ENDBRANCH   4   7
BRANCH   1  20
ATOM     20  C   UNL     1      -0.913  10.133  19.415  0.00  0.00    +0.000 C 
BRANCH  20  24
ATOM     21  C   UNL     1      -2.064  13.566  21.734  0.00  0.00    +0.000 A 
ATOM     22  C   UNL     1      -1.026  12.746  22.173  0.00  0.00    +0.000 A 
ATOM     23  C   UNL     1      -0.600  11.680  21.382  0.00  0.00    +0.000 A 
ATOM     24  C   UNL     1      -1.220  11.418  20.154  0.00  0.00    +0.000 A 
ATOM     25  C   UNL     1      -2.209  12.295  19.686  0.00  0.00    +0.000 A 
ATOM     26  C   UNL     1      -2.638  13.358  20.480  0.00  0.00    +0.000 A 
ENDBRANCH  20  24
ENDBRANCH   1  20
TORSDOF 4
ENDMDL
MODEL 8
REMARK VINA RESULT:      -6.1      3.149      4.098
REMARK  Name = 
REMARK  4 active torsions:
REMARK  status: ('A' for Active; 'I' for Inactive)
REMARK    1  A    between atoms: C_4  and  C_5
REMARK    2  A    between atoms: C_5  and  N_6
REMARK    3  A    between atoms: C_9  and  N_10
REMARK    4  A    between atoms: C_13  and  N_14
REMARK                            x       y       z     vdW  Elec       q    Type
REMARK                         _______ _______ _______ _____ _____    ______ ____
ROOT
ATOM      1  N   UNL     1       1.465   8.604  18.717  0.00  0.00    +0.000 NA
ATOM      2  C   UNL     1       1.379   8.944  20.147  0.00  0.00    +0.000 C 
ATOM      3  C   UNL     1      -0.022   9.348  20.609  0.00  0.00    +0.000 C 
ATOM      4  C   UNL     1      -0.680  10.450  19.763  0.00  0.00    +0.000 C 
ATOM      5  C   UNL     1      -0.542  10.049  18.279  0.00  0.00    +0.000 C 
ATOM      6  C   UNL     1       0.858   9.616  17.848  0.00  0.00    +0.000 C 
ENDROOT
BRANCH   4   7
ATOM      7  N   UNL     1      -0.339  11.853  20.146  0.00  0.00    +0.000 NA
ATOM      8  C   UNL     1      -1.025  12.905  19.399  0.00  0.00    +0.000 C 
ATOM      9  C   UNL     1      -0.893  14.326  19.952  0.00  0.00    +0.000 C 
ATOM     10  C   UNL     1      -1.223  14.417  21.458  0.00  0.00    +0.000 C 
ATOM     11  C   UNL     1      -0.199  13.459  22.100  0.00  0.00    +0.000 C 
ATOM     12  C   UNL     1      -0.382  12.023  21.610  0.00  0.00    +0.000 C 
BRANCH  10  13
ATOM     13  N   UNL     1      -2.658  14.161  21.826  0.00  0.00    +0.000 NA
ATOM     14  C   UNL     1      -2.875  14.159  23.282  0.00  0.00    +0.000 C 
ATOM     15  C   UNL     1      -4.115  13.364  23.716  0.00  0.00    +0.000 C 
ATOM     16  C   UNL     1      -5.427  14.132  23.685  0.00  0.00    +0.000 C 
ATOM     17  C   UNL     1      -5.813  14.637  22.306  0.00  0.00    +0.000 C 
ATOM     18  C   UNL     1      -4.821  15.653  21.761  0.00  0.00    +0.000 C 
ATOM     19  C   UNL     1      -3.572  15.061  21.091  0.00  0.00    +0.000 C 
ENDBRANCH  10  13
ENDBRANCH   4   7
BRANCH   1  20
ATOM     20  C   UNL     1       2.874   8.387  18.306  0.00  0.00    +0.000 C 
BRANCH  20  24
ATOM     21  C   UNL     1       3.762   4.294  17.333  0.00  0.00    +0.000 A 
ATOM     22  C   UNL     1       2.542   4.620  17.925  0.00  0.00    +0.000 A 
ATOM     23  C   UNL     1       2.222   5.954  18.168  0.00  0.00    +0.000 A 
ATOM     24  C   UNL     1       3.126   6.971  17.833  0.00  0.00    +0.000 A 
ATOM     25  C   UNL     1       4.314   6.638  17.166  0.00  0.00    +0.000 A 
ATOM     26  C   UNL     1       4.635   5.302  16.929  0.00  0.00    +0.000 A 
ENDBRANCH  20  24
ENDBRANCH   1  20
TORSDOF 4
ENDMDL
MODEL 9
REMARK VINA RESULT:      -6.1      1.432      2.100
REMARK  Name = 
REMARK  4 active torsions:
REMARK  status: ('A' for Active; 'I' for Inactive)
REMARK    1  A    between atoms: C_4  and  C_5
REMARK    2  A    between atoms: C_5  and  N_6
REMARK    3  A    between atoms: C_9  and  N_10
REMARK    4  A    between atoms: C_13  and  N_14
REMARK                            x       y       z     vdW  Elec       q    Type
REMARK                         _______ _______ _______ _____ _____    ______ ____
ROOT
ATOM      1  N   UNL     1       1.868   7.715  19.204  0.00  0.00    +0.000 NA
ATOM      2  C   UNL     1       1.616   8.478  20.438  0.00  0.00    +0.000 C 
ATOM      3  C   UNL     1       0.453   9.465  20.335  0.00  0.00    +0.000 C 
ATOM      4  C   UNL     1       0.530  10.418  19.132  0.00  0.00    +0.000 C 
ATOM      5  C   UNL     1       0.814   9.568  17.875  0.00  0.00    +0.000 C 
ATOM      6  C   UNL     1       1.956   8.564  18.012  0.00  0.00    +0.000 C 
ENDROOT
BRANCH   4   7
ATOM      7  N   UNL     1       1.336  11.659  19.337  0.00  0.00    +0.000 NA
ATOM      8  C   UNL     1       1.122  12.730  18.365  0.00  0.00    +0.000 C 
ATOM      9  C   UNL     1       1.731  14.090  18.709  0.00  0.00    +0.000 C 
ATOM     10  C   UNL     1       1.376  14.564  20.136  0.00  0.00    +0.000 C 
ATOM     11  C   UNL     1       1.945  13.442  21.029  0.00  0.00    +0.000 C 
ATOM     12  C   UNL     1       1.278  12.098  20.743  0.00  0.00    +0.000 C 
BRANCH  10  13
ATOM     13  N   UNL     1      -0.072  14.896  20.369  0.00  0.00    +0.000 NA
ATOM     14  C   UNL     1      -0.357  15.219  21.776  0.00  0.00    +0.000 C 
ATOM     15  C   UNL     1      -1.824  14.998  22.172  0.00  0.00    +0.000 C 
ATOM     16  C   UNL     1      -2.760  16.162  21.883  0.00  0.00    +0.000 C 
ATOM     17  C   UNL     1      -2.855  16.527  20.413  0.00  0.00    +0.000 C 
ATOM     18  C   UNL     1      -1.532  17.019  19.849  0.00  0.00    +0.000 C 
ATOM     19  C   UNL     1      -0.550  15.920  19.416  0.00  0.00    +0.000 C 
ENDBRANCH  10  13
ENDBRANCH   4   7
BRANCH   1  20
ATOM     20  C   UNL     1       3.106   6.905  19.323  0.00  0.00    +0.000 C 
BRANCH  20  24
ATOM     21  C   UNL     1       2.529   3.197  17.225  0.00  0.00    +0.000 A 
ATOM     22  C   UNL     1       3.729   3.894  17.089  0.00  0.00    +0.000 A 
ATOM     23  C   UNL     1       3.947   5.054  17.831  0.00  0.00    +0.000 A 
ATOM     24  C   UNL     1       2.959   5.533  18.702  0.00  0.00    +0.000 A 
ATOM     25  C   UNL     1       1.789   4.782  18.889  0.00  0.00    +0.000 A 
ATOM     26  C   UNL     1       1.571   3.625  18.143  0.00  0.00    +0.000 A 
ENDBRANCH  20  24
ENDBRANCH   1  20
TORSDOF 4
ENDMDL
