MODEL 1
REMARK VINA RESULT:      -7.9      0.000      0.000
REMARK  Name = 
REMARK  18 active torsions:
REMARK  status: ('A' for Active; 'I' for Inactive)
REMARK    1  A    between atoms: C_1  and  C_2
REMARK    2  A    between atoms: N_4  and  C_5
REMARK    3  A    between atoms: C_5  and  C_6
REMARK    4  A    between atoms: C_5  and  C_33
REMARK    5  A    between atoms: N_8  and  C_9
REMARK    6  A    between atoms: N_8  and  C_10
REMARK    7  A    between atoms: C_10  and  C_11
REMARK    8  A    between atoms: C_10  and  C_30
REMARK    9  A    between atoms: N_13  and  C_14
REMARK   10  A    between atoms: C_15  and  C_16
REMARK   11  A    between atoms: C_17  and  C_18
REMARK   12  A    between atoms: C_18  and  C_19
REMARK   13  A    between atoms: C_20  and  C_21
REMARK   14  A    between atoms: C_20  and  C_22
REMARK   15  A    between atoms: C_30  and  C_31
REMARK   16  A    between atoms: C_30  and  C_32
REMARK   17  A    between atoms: C_33  and  C_34
REMARK   18  A    between atoms: C_33  and  C_35
REMARK                            x       y       z     vdW  Elec       q    Type
REMARK                         _______ _______ _______ _____ _____    ______ ____
ROOT
ATOM      1  C   UNL     1       1.017   9.736  20.013  0.00  0.00    +0.000 C 
ATOM      2  O   UNL     1       0.972   9.633  21.246  0.00  0.00    +0.000 OA
ATOM      3  N   UNL     1       1.573   8.693  19.306  0.00  0.00    +0.000 N 
ATOM      4  H   UNL     1       1.872   7.912  19.885  0.00  0.00    +0.000 HD
ENDROOT
BRANCH   3   5
ATOM      5  C   UNL     1       1.814   8.578  17.968  0.00  0.00    +0.000 C 
ATOM      6  C   UNL     1       2.743   7.800  17.375  0.00  0.00    +0.000 C 
BRANCH   6   7
ATOM      7  C   UNL     1       3.624   6.784  17.883  0.00  0.00    +0.000 A 
ATOM      8  C   UNL     1       3.133   5.680  18.582  0.00  0.00    +0.000 A 
ATOM      9  N   UNL     1       4.210   4.957  19.028  0.00  0.00    +0.000 N 
ATOM     10  C   UNL     1       5.381   5.476  18.543  0.00  0.00    +0.000 A 
ATOM     11  C   UNL     1       6.692   4.998  18.676  0.00  0.00    +0.000 A 
ATOM     12  C   UNL     1       7.731   5.735  18.105  0.00  0.00    +0.000 A 
ATOM     13  C   UNL     1       7.467   6.918  17.445  0.00  0.00    +0.000 A 
ATOM     14  C   UNL     1       6.149   7.357  17.305  0.00  0.00    +0.000 A 
ATOM     15  C   UNL     1       5.058   6.643  17.846  0.00  0.00    +0.000 A 
ATOM     16  H   UNL     1       4.150   4.122  19.599  0.00  0.00    +0.000 HD
BRANCH   8  17
ATOM     17  C   UNL     1       1.750   5.173  18.861  0.00  0.00    +0.000 C 
BRANCH  17  18
ATOM     18  C   UNL     1       1.529   4.505  20.191  0.00  0.00    +0.000 C 
ATOM     19  C   UNL     1       1.508   3.170  20.381  0.00  0.00    +0.000 C 
ATOM     20  C   UNL     1       1.716   2.167  19.275  0.00  0.00    +0.000 C 
ATOM     21  C   UNL     1       1.259   2.577  21.736  0.00  0.00    +0.000 C 
ENDBRANCH  17  18
ENDBRANCH   8  17
ENDBRANCH   6   7
ENDBRANCH   3   5
BRANCH   1  22
ATOM     22  C   UNL     1       0.404  10.949  19.255  0.00  0.00    +0.000 C 
BRANCH  22  25
ATOM     23  C   UNL     1       1.802  12.982  18.981  0.00  0.00    +0.000 C 
ATOM     24  O   UNL     1       2.311  12.457  17.981  0.00  0.00    +0.000 OA
ATOM     25  N   UNL     1       0.915  12.257  19.769  0.00  0.00    +0.000 N 
ATOM     26  C   UNL     1       0.505  12.671  21.097  0.00  0.00    +0.000 C 
BRANCH  23  27
ATOM     27  C   UNL     1       2.306  14.399  19.420  0.00  0.00    +0.000 C 
BRANCH  27  31
ATOM     28  C   UNL     1      -0.108  17.037  18.121  0.00  0.00    +0.000 C 
ATOM     29  C   UNL     1       0.470  16.056  19.105  0.00  0.00    +0.000 C 
ATOM     30  O   UNL     1       0.066  15.973  20.259  0.00  0.00    +0.000 OA
ATOM     31  N   UNL     1       1.543  15.356  18.609  0.00  0.00    +0.000 N 
ATOM     32  H   UNL     1       1.684  15.343  17.608  0.00  0.00    +0.000 HD
ENDBRANCH  27  31
BRANCH  27  33
ATOM     33  C   UNL     1       3.822  14.749  19.417  0.00  0.00    +0.000 C 
ATOM     34  C   UNL     1       4.223  15.551  18.169  0.00  0.00    +0.000 C 
ATOM     35  C   UNL     1       4.294  15.532  20.646  0.00  0.00    +0.000 C 
ENDBRANCH  27  33
ENDBRANCH  23  27
ENDBRANCH  22  25
BRANCH  22  36
ATOM     36  C   UNL     1      -1.148  10.914  19.118  0.00  0.00    +0.000 C 
ATOM     37  C   UNL     1      -1.888  12.255  19.075  0.00  0.00    +0.000 C 
ATOM     38  C   UNL     1      -1.563  10.067  17.915  0.00  0.00    +0.000 C 
ENDBRANCH  22  36
ENDBRANCH   1  22
TORSDOF 10
ENDMDL
MODEL 2
REMARK VINA RESULT:      -7.8      0.921      3.580
REMARK  Name = 
REMARK  18 active torsions:
REMARK  status: ('A' for Active; 'I' for Inactive)
REMARK    1  A    between atoms: C_1  and  C_2
REMARK    2  A    between atoms: N_4  and  C_5
REMARK    3  A    between atoms: C_5  and  C_6
REMARK    4  A    between atoms: C_5  and  C_33
REMARK    5  A    between atoms: N_8  and  C_9
REMARK    6  A    between atoms: N_8  and  C_10
REMARK    7  A    between atoms: C_10  and  C_11
REMARK    8  A    between atoms: C_10  and  C_30
REMARK    9  A    between atoms: N_13  and  C_14
REMARK   10  A    between atoms: C_15  and  C_16
REMARK   11  A    between atoms: C_17  and  C_18
REMARK   12  A    between atoms: C_18  and  C_19
REMARK   13  A    between atoms: C_20  and  C_21
REMARK   14  A    between atoms: C_20  and  C_22
REMARK   15  A    between atoms: C_30  and  C_31
REMARK   16  A    between atoms: C_30  and  C_32
REMARK   17  A    between atoms: C_33  and  C_34
REMARK   18  A    between atoms: C_33  and  C_35
REMARK                            x       y       z     vdW  Elec       q    Type
REMARK                         _______ _______ _______ _____ _____    ______ ____
ROOT
ATOM      1  C   UNL     1       0.880   9.663  20.087  0.00  0.00    +0.000 C 
ATOM      2  O   UNL     1       0.599   9.478  21.278  0.00  0.00    +0.000 OA
ATOM      3  N   UNL     1       1.645   8.707  19.456  0.00  0.00    +0.000 N 
ATOM      4  H   UNL     1       1.883   7.912  20.044  0.00  0.00    +0.000 HD
ENDROOT
BRANCH   3   5
ATOM      5  C   UNL     1       2.155   8.695  18.191  0.00  0.00    +0.000 C 
ATOM      6  C   UNL     1       2.915   7.731  17.632  0.00  0.00    +0.000 C 
BRANCH   6   7
ATOM      7  C   UNL     1       3.292   6.415  18.073  0.00  0.00    +0.000 A 
ATOM      8  C   UNL     1       4.364   5.735  17.494  0.00  0.00    +0.000 A 
ATOM      9  N   UNL     1       4.404   4.478  18.042  0.00  0.00    +0.000 N 
ATOM     10  C   UNL     1       3.480   4.353  19.045  0.00  0.00    +0.000 A 
ATOM     11  C   UNL     1       3.250   3.281  19.918  0.00  0.00    +0.000 A 
ATOM     12  C   UNL     1       2.213   3.389  20.847  0.00  0.00    +0.000 A 
ATOM     13  C   UNL     1       1.425   4.522  20.885  0.00  0.00    +0.000 A 
ATOM     14  C   UNL     1       1.694   5.585  20.021  0.00  0.00    +0.000 A 
ATOM     15  C   UNL     1       2.740   5.538  19.074  0.00  0.00    +0.000 A 
ATOM     16  H   UNL     1       5.060   3.753  17.778  0.00  0.00    +0.000 HD
BRANCH   8  17
ATOM     17  C   UNL     1       5.412   6.128  16.496  0.00  0.00    +0.000 C 
BRANCH  17  18
ATOM     18  C   UNL     1       6.312   7.273  16.872  0.00  0.00    +0.000 C 
ATOM     19  C   UNL     1       7.335   7.185  17.745  0.00  0.00    +0.000 C 
ATOM     20  C   UNL     1       7.719   5.913  18.456  0.00  0.00    +0.000 C 
ATOM     21  C   UNL     1       8.177   8.380  18.086  0.00  0.00    +0.000 C 
ENDBRANCH  17  18
ENDBRANCH   8  17
ENDBRANCH   6   7
ENDBRANCH   3   5
BRANCH   1  22
ATOM     22  C   UNL     1       0.337  10.879  19.281  0.00  0.00    +0.000 C 
BRANCH  22  25
ATOM     23  C   UNL     1       1.331  13.154  19.346  0.00  0.00    +0.000 C 
ATOM     24  O   UNL     1       1.959  12.871  18.316  0.00  0.00    +0.000 OA
ATOM     25  N   UNL     1       0.575  12.177  19.985  0.00  0.00    +0.000 N 
ATOM     26  C   UNL     1       0.054  12.325  21.331  0.00  0.00    +0.000 C 
BRANCH  23  27
ATOM     27  C   UNL     1       1.542  14.566  19.989  0.00  0.00    +0.000 C 
BRANCH  27  31
ATOM     28  C   UNL     1      -0.601  17.009  18.009  0.00  0.00    +0.000 C 
ATOM     29  C   UNL     1      -0.295  15.971  19.055  0.00  0.00    +0.000 C 
ATOM     30  O   UNL     1      -1.111  15.640  19.906  0.00  0.00    +0.000 OA
ATOM     31  N   UNL     1       1.005  15.525  19.015  0.00  0.00    +0.000 N 
ATOM     32  H   UNL     1       1.544  15.700  18.178  0.00  0.00    +0.000 HD
ENDBRANCH  27  31
BRANCH  27  33
ATOM     33  C   UNL     1       2.942  15.015  20.499  0.00  0.00    +0.000 C 
ATOM     34  C   UNL     1       3.674  13.885  21.237  0.00  0.00    +0.000 C 
ATOM     35  C   UNL     1       3.877  15.540  19.405  0.00  0.00    +0.000 C 
ENDBRANCH  27  33
ENDBRANCH  23  27
ENDBRANCH  22  25
BRANCH  22  36
ATOM     36  C   UNL     1      -1.128  10.722  18.774  0.00  0.00    +0.000 C 
ATOM     37  C   UNL     1      -1.924  12.000  18.492  0.00  0.00    +0.000 C 
ATOM     38  C   UNL     1      -1.177   9.813  17.546  0.00  0.00    +0.000 C 
ENDBRANCH  22  36
ENDBRANCH   1  22
TORSDOF 10
ENDMDL
MODEL 3
REMARK VINA RESULT:      -7.7      0.828      1.047
REMARK  Name = 
REMARK  18 active torsions:
REMARK  status: ('A' for Active; 'I' for Inactive)
REMARK    1  A    between atoms: C_1  and  C_2
REMARK    2  A    between atoms: N_4  and  C_5
REMARK    3  A    between atoms: C_5  and  C_6
REMARK    4  A    between atoms: C_5  and  C_33
REMARK    5  A    between atoms: N_8  and  C_9
REMARK    6  A    between atoms: N_8  and  C_10
REMARK    7  A    between atoms: C_10  and  C_11
REMARK    8  A    between atoms: C_10  and  C_30
REMARK    9  A    between atoms: N_13  and  C_14
REMARK   10  A    between atoms: C_15  and  C_16
REMARK   11  A    between atoms: C_17  and  C_18
REMARK   12  A    between atoms: C_18  and  C_19
REMARK   13  A    between atoms: C_20  and  C_21
REMARK   14  A    between atoms: C_20  and  C_22
REMARK   15  A    between atoms: C_30  and  C_31
REMARK   16  A    between atoms: C_30  and  C_32
REMARK   17  A    between atoms: C_33  and  C_34
REMARK   18  A    between atoms: C_33  and  C_35
REMARK                            x       y       z     vdW  Elec       q    Type
REMARK                         _______ _______ _______ _____ _____    ______ ____
ROOT
ATOM      1  C   UNL     1       0.981   9.554  20.034  0.00  0.00    +0.000 C 
ATOM      2  O   UNL     1       0.905   9.398  21.259  0.00  0.00    +0.000 OA
ATOM      3  N   UNL     1       1.570   8.548  19.299  0.00  0.00    +0.000 N 
ATOM      4  H   UNL     1       1.865   7.748  19.852  0.00  0.00    +0.000 HD
ENDROOT
BRANCH   3   5
ATOM      5  C   UNL     1       1.847   8.493  17.963  0.00  0.00    +0.000 C 
ATOM      6  C   UNL     1       2.803   7.755  17.364  0.00  0.00    +0.000 C 
BRANCH   6   7
ATOM      7  C   UNL     1       3.686   6.730  17.852  0.00  0.00    +0.000 A 
ATOM      8  C   UNL     1       3.194   5.597  18.502  0.00  0.00    +0.000 A 
ATOM      9  N   UNL     1       4.271   4.870  18.943  0.00  0.00    +0.000 N 
ATOM     10  C   UNL     1       5.445   5.418  18.498  0.00  0.00    +0.000 A 
ATOM     11  C   UNL     1       6.759   4.949  18.639  0.00  0.00    +0.000 A 
ATOM     12  C   UNL     1       7.800   5.717  18.114  0.00  0.00    +0.000 A 
ATOM     13  C   UNL     1       7.534   6.920  17.491  0.00  0.00    +0.000 A 
ATOM     14  C   UNL     1       6.215   7.350  17.342  0.00  0.00    +0.000 A 
ATOM     15  C   UNL     1       5.122   6.606  17.837  0.00  0.00    +0.000 A 
ATOM     16  H   UNL     1       4.209   4.015  19.482  0.00  0.00    +0.000 HD
BRANCH   8  17
ATOM     17  C   UNL     1       1.813   5.066  18.738  0.00  0.00    +0.000 C 
BRANCH  17  18
ATOM     18  C   UNL     1       1.540   4.457  20.086  0.00  0.00    +0.000 C 
ATOM     19  C   UNL     1       1.555   3.134  20.343  0.00  0.00    +0.000 C 
ATOM     20  C   UNL     1       1.858   2.085  19.303  0.00  0.00    +0.000 C 
ATOM     21  C   UNL     1       1.252   2.599  21.712  0.00  0.00    +0.000 C 
ENDBRANCH  17  18
ENDBRANCH   8  17
ENDBRANCH   6   7
ENDBRANCH   3   5
BRANCH   1  22
ATOM     22  C   UNL     1       0.370  10.789  19.311  0.00  0.00    +0.000 C 
BRANCH  22  25
ATOM     23  C   UNL     1       1.716  12.875  19.369  0.00  0.00    +0.000 C 
ATOM     24  O   UNL     1       2.388  12.428  18.429  0.00  0.00    +0.000 OA
ATOM     25  N   UNL     1       0.749  12.076  19.970  0.00  0.00    +0.000 N 
ATOM     26  C   UNL     1       0.129  12.395  21.243  0.00  0.00    +0.000 C 
BRANCH  23  27
ATOM     27  C   UNL     1       2.094  14.275  19.960  0.00  0.00    +0.000 C 
BRANCH  27  31
ATOM     28  C   UNL     1       2.970  16.834  17.284  0.00  0.00    +0.000 C 
ATOM     29  C   UNL     1       2.153  16.202  18.378  0.00  0.00    +0.000 C 
ATOM     30  O   UNL     1       1.164  16.748  18.854  0.00  0.00    +0.000 OA
ATOM     31  N   UNL     1       2.686  15.025  18.845  0.00  0.00    +0.000 N 
ATOM     32  H   UNL     1       3.380  14.556  18.277  0.00  0.00    +0.000 HD
ENDBRANCH  27  31
BRANCH  27  33
ATOM     33  C   UNL     1       2.969  14.397  21.241  0.00  0.00    +0.000 C 
ATOM     34  C   UNL     1       4.465  14.509  20.906  0.00  0.00    +0.000 C 
ATOM     35  C   UNL     1       2.605  15.577  22.147  0.00  0.00    +0.000 C 
ENDBRANCH  27  33
ENDBRANCH  23  27
ENDBRANCH  22  25
BRANCH  22  36
ATOM     36  C   UNL     1      -1.156  10.683  19.016  0.00  0.00    +0.000 C 
ATOM     37  C   UNL     1      -1.982  11.972  19.068  0.00  0.00    +0.000 C 
ATOM     38  C   UNL     1      -1.399   9.978  17.682  0.00  0.00    +0.000 C 
ENDBRANCH  22  36
ENDBRANCH   1  22
TORSDOF 10
ENDMDL
MODEL 4
REMARK VINA RESULT:      -7.6      1.456      4.042
REMARK  Name = 
REMARK  18 active torsions:
REMARK  status: ('A' for Active; 'I' for Inactive)
REMARK    1  A    between atoms: C_1  and  C_2
REMARK    2  A    between atoms: N_4  and  C_5
REMARK    3  A    between atoms: C_5  and  C_6
REMARK    4  A    between atoms: C_5  and  C_33
REMARK    5  A    between atoms: N_8  and  C_9
REMARK    6  A    between atoms: N_8  and  C_10
REMARK    7  A    between atoms: C_10  and  C_11
REMARK    8  A    between atoms: C_10  and  C_30
REMARK    9  A    between atoms: N_13  and  C_14
REMARK   10  A    between atoms: C_15  and  C_16
REMARK   11  A    between atoms: C_17  and  C_18
REMARK   12  A    between atoms: C_18  and  C_19
REMARK   13  A    between atoms: C_20  and  C_21
REMARK   14  A    between atoms: C_20  and  C_22
REMARK   15  A    between atoms: C_30  and  C_31
REMARK   16  A    between atoms: C_30  and  C_32
REMARK   17  A    between atoms: C_33  and  C_34
REMARK   18  A    between atoms: C_33  and  C_35
REMARK                            x       y       z     vdW  Elec       q    Type
REMARK                         _______ _______ _______ _____ _____    ______ ____
ROOT
ATOM      1  C   UNL     1       1.163   9.263  20.135  0.00  0.00    +0.000 C 
ATOM      2  O   UNL     1       0.959   9.156  21.351  0.00  0.00    +0.000 OA
ATOM      3  N   UNL     1       1.869   8.255  19.516  0.00  0.00    +0.000 N 
ATOM      4  H   UNL     1       2.134   7.493  20.135  0.00  0.00    +0.000 HD
ENDROOT
BRANCH   3   5
ATOM      5  C   UNL     1       2.294   8.156  18.222  0.00  0.00    +0.000 C 
ATOM      6  C   UNL     1       3.008   7.150  17.679  0.00  0.00    +0.000 C 
BRANCH   6   7
ATOM      7  C   UNL     1       3.403   5.860  18.178  0.00  0.00    +0.000 A 
ATOM      8  C   UNL     1       4.472   5.161  17.615  0.00  0.00    +0.000 A 
ATOM      9  N   UNL     1       4.532   3.932  18.225  0.00  0.00    +0.000 N 
ATOM     10  C   UNL     1       3.626   3.851  19.248  0.00  0.00    +0.000 A 
ATOM     11  C   UNL     1       3.419   2.821  20.177  0.00  0.00    +0.000 A 
ATOM     12  C   UNL     1       2.398   2.968  21.117  0.00  0.00    +0.000 A 
ATOM     13  C   UNL     1       1.600   4.095  21.112  0.00  0.00    +0.000 A 
ATOM     14  C   UNL     1       1.845   5.116  20.192  0.00  0.00    +0.000 A 
ATOM     15  C   UNL     1       2.875   5.029  19.231  0.00  0.00    +0.000 A 
ATOM     16  H   UNL     1       5.190   3.201  17.986  0.00  0.00    +0.000 HD
BRANCH   8  17
ATOM     17  C   UNL     1       5.499   5.511  16.582  0.00  0.00    +0.000 C 
BRANCH  17  18
ATOM     18  C   UNL     1       6.251   6.799  16.783  0.00  0.00    +0.000 C 
ATOM     19  C   UNL     1       7.244   6.972  17.679  0.00  0.00    +0.000 C 
ATOM     20  C   UNL     1       7.737   5.884  18.597  0.00  0.00    +0.000 C 
ATOM     21  C   UNL     1       7.934   8.295  17.836  0.00  0.00    +0.000 C 
ENDBRANCH  17  18
ENDBRANCH   8  17
ENDBRANCH   6   7
ENDBRANCH   3   5
BRANCH   1  22
ATOM     22  C   UNL     1       0.586  10.438  19.292  0.00  0.00    +0.000 C 
BRANCH  22  25
ATOM     23  C   UNL     1       1.841  12.557  18.981  0.00  0.00    +0.000 C 
ATOM     24  O   UNL     1       2.339  12.073  17.955  0.00  0.00    +0.000 OA
ATOM     25  N   UNL     1       1.036  11.771  19.798  0.00  0.00    +0.000 N 
ATOM     26  C   UNL     1       0.657  12.149  21.146  0.00  0.00    +0.000 C 
BRANCH  23  27
ATOM     27  C   UNL     1       2.273  13.999  19.413  0.00  0.00    +0.000 C 
BRANCH  27  31
ATOM     28  C   UNL     1       4.692  14.145  22.346  0.00  0.00    +0.000 C 
ATOM     29  C   UNL     1       4.209  14.375  20.940  0.00  0.00    +0.000 C 
ATOM     30  O   UNL     1       4.833  15.060  20.138  0.00  0.00    +0.000 OA
ATOM     31  N   UNL     1       2.969  13.833  20.695  0.00  0.00    +0.000 N 
ATOM     32  H   UNL     1       2.619  13.133  21.335  0.00  0.00    +0.000 HD
ENDBRANCH  27  31
BRANCH  27  33
ATOM     33  C   UNL     1       1.239  15.160  19.487  0.00  0.00    +0.000 C 
ATOM     34  C   UNL     1      -0.057  14.824  18.733  0.00  0.00    +0.000 C 
ATOM     35  C   UNL     1       0.855  15.577  20.910  0.00  0.00    +0.000 C 
ENDBRANCH  27  33
ENDBRANCH  23  27
ENDBRANCH  22  25
BRANCH  22  36
ATOM     36  C   UNL     1      -0.950  10.368  19.044  0.00  0.00    +0.000 C 
ATOM     37  C   UNL     1      -1.778  11.620  19.351  0.00  0.00    +0.000 C 
ATOM     38  C   UNL     1      -1.244   9.903  17.617  0.00  0.00    +0.000 C 
ENDBRANCH  22  36
ENDBRANCH   1  22
TORSDOF 10
ENDMDL
MODEL 5
REMARK VINA RESULT:      -7.6      1.225      3.613
REMARK  Name = 
REMARK  18 active torsions:
REMARK  status: ('A' for Active; 'I' for Inactive)
REMARK    1  A    between atoms: C_1  and  C_2
REMARK    2  A    between atoms: N_4  and  C_5
REMARK    3  A    between atoms: C_5  and  C_6
REMARK    4  A    between atoms: C_5  and  C_33
REMARK    5  A    between atoms: N_8  and  C_9
REMARK    6  A    between atoms: N_8  and  C_10
REMARK    7  A    between atoms: C_10  and  C_11
REMARK    8  A    between atoms: C_10  and  C_30
REMARK    9  A    between atoms: N_13  and  C_14
REMARK   10  A    between atoms: C_15  and  C_16
REMARK   11  A    between atoms: C_17  and  C_18
REMARK   12  A    between atoms: C_18  and  C_19
REMARK   13  A    between atoms: C_20  and  C_21
REMARK   14  A    between atoms: C_20  and  C_22
REMARK   15  A    between atoms: C_30  and  C_31
REMARK   16  A    between atoms: C_30  and  C_32
REMARK   17  A    between atoms: C_33  and  C_34
REMARK   18  A    between atoms: C_33  and  C_35
REMARK                            x       y       z     vdW  Elec       q    Type
REMARK                         _______ _______ _______ _____ _____    ______ ____
ROOT
ATOM      1  C   UNL     1       1.086   9.353  19.938  0.00  0.00    +0.000 C 
ATOM      2  O   UNL     1       0.668   9.343  21.103  0.00  0.00    +0.000 OA
ATOM      3  N   UNL     1       1.790   8.251  19.504  0.00  0.00    +0.000 N 
ATOM      4  H   UNL     1       1.873   7.512  20.197  0.00  0.00    +0.000 HD
ENDROOT
BRANCH   3   5
ATOM      5  C   UNL     1       2.418   8.033  18.312  0.00  0.00    +0.000 C 
ATOM      6  C   UNL     1       3.220   6.996  17.996  0.00  0.00    +0.000 C 
BRANCH   6   7
ATOM      7  C   UNL     1       3.543   5.775  18.684  0.00  0.00    +0.000 A 
ATOM      8  C   UNL     1       4.843   5.266  18.687  0.00  0.00    +0.000 A 
ATOM      9  N   UNL     1       4.811   4.050  19.322  0.00  0.00    +0.000 N 
ATOM     10  C   UNL     1       3.569   3.803  19.843  0.00  0.00    +0.000 A 
ATOM     11  C   UNL     1       3.130   2.733  20.636  0.00  0.00    +0.000 A 
ATOM     12  C   UNL     1       1.788   2.695  21.019  0.00  0.00    +0.000 A 
ATOM     13  C   UNL     1       0.915   3.682  20.605  0.00  0.00    +0.000 A 
ATOM     14  C   UNL     1       1.385   4.748  19.837  0.00  0.00    +0.000 A 
ATOM     15  C   UNL     1       2.735   4.847  19.436  0.00  0.00    +0.000 A 
ATOM     16  H   UNL     1       5.609   3.437  19.436  0.00  0.00    +0.000 HD
BRANCH   8  17
ATOM     17  C   UNL     1       6.156   5.797  18.198  0.00  0.00    +0.000 C 
BRANCH  17  18
ATOM     18  C   UNL     1       6.760   5.116  17.001  0.00  0.00    +0.000 C 
ATOM     19  C   UNL     1       6.369   5.321  15.727  0.00  0.00    +0.000 C 
ATOM     20  C   UNL     1       5.270   6.275  15.335  0.00  0.00    +0.000 C 
ATOM     21  C   UNL     1       7.007   4.586  14.585  0.00  0.00    +0.000 C 
ENDBRANCH  17  18
ENDBRANCH   8  17
ENDBRANCH   6   7
ENDBRANCH   3   5
BRANCH   1  22
ATOM     22  C   UNL     1       0.774  10.514  18.950  0.00  0.00    +0.000 C 
BRANCH  22  25
ATOM     23  C   UNL     1       2.108  12.601  18.782  0.00  0.00    +0.000 C 
ATOM     24  O   UNL     1       2.727  12.090  17.839  0.00  0.00    +0.000 OA
ATOM     25  N   UNL     1       1.182  11.846  19.494  0.00  0.00    +0.000 N 
ATOM     26  C   UNL     1       0.636  12.253  20.774  0.00  0.00    +0.000 C 
BRANCH  23  27
ATOM     27  C   UNL     1       2.511  14.041  19.249  0.00  0.00    +0.000 C 
BRANCH  27  31
ATOM     28  C   UNL     1      -0.159  16.675  18.606  0.00  0.00    +0.000 C 
ATOM     29  C   UNL     1       0.745  15.793  19.425  0.00  0.00    +0.000 C 
ATOM     30  O   UNL     1       0.843  15.907  20.641  0.00  0.00    +0.000 OA
ATOM     31  N   UNL     1       1.508  14.939  18.664  0.00  0.00    +0.000 N 
ATOM     32  H   UNL     1       1.229  14.775  17.706  0.00  0.00    +0.000 HD
ENDBRANCH  27  31
BRANCH  27  33
ATOM     33  C   UNL     1       3.950  14.587  19.019  0.00  0.00    +0.000 C 
ATOM     34  C   UNL     1       4.057  15.388  17.712  0.00  0.00    +0.000 C 
ATOM     35  C   UNL     1       4.482  15.470  20.152  0.00  0.00    +0.000 C 
ENDBRANCH  27  33
ENDBRANCH  23  27
ENDBRANCH  22  25
BRANCH  22  36
ATOM     36  C   UNL     1      -0.675  10.510  18.376  0.00  0.00    +0.000 C 
ATOM     37  C   UNL     1      -1.794   9.972  19.274  0.00  0.00    +0.000 C 
ATOM     38  C   UNL     1      -1.057  11.900  17.869  0.00  0.00    +0.000 C 
ENDBRANCH  22  36
ENDBRANCH   1  22
TORSDOF 10
ENDMDL
MODEL 6
REMARK VINA RESULT:      -7.5      1.552      4.092
REMARK  Name = 
REMARK  18 active torsions:
REMARK  status: ('A' for Active; 'I' for Inactive)
REMARK    1  A    between atoms: C_1  and  C_2
REMARK    2  A    between atoms: N_4  and  C_5
REMARK    3  A    between atoms: C_5  and  C_6
REMARK    4  A    between atoms: C_5  and  C_33
REMARK    5  A    between atoms: N_8  and  C_9
REMARK    6  A    between atoms: N_8  and  C_10
REMARK    7  A    between atoms: C_10  and  C_11
REMARK    8  A    between atoms: C_10  and  C_30
REMARK    9  A    between atoms: N_13  and  C_14
REMARK   10  A    between atoms: C_15  and  C_16
REMARK   11  A    between atoms: C_17  and  C_18
REMARK   12  A    between atoms: C_18  and  C_19
REMARK   13  A    between atoms: C_20  and  C_21
REMARK   14  A    between atoms: C_20  and  C_22
REMARK   15  A    between atoms: C_30  and  C_31
REMARK   16  A    between atoms: C_30  and  C_32
REMARK   17  A    between atoms: C_33  and  C_34
REMARK   18  A    between atoms: C_33  and  C_35
REMARK                            x       y       z     vdW  Elec       q    Type
REMARK                         _______ _______ _______ _____ _____    ______ ____
ROOT
ATOM      1  C   UNL     1       0.991   9.244  20.333  0.00  0.00    +0.000 C 
ATOM      2  O   UNL     1       0.657   9.192  21.524  0.00  0.00    +0.000 OA
ATOM      3  N   UNL     1       1.744   8.204  19.836  0.00  0.00    +0.000 N 
ATOM      4  H   UNL     1       1.930   7.467  20.511  0.00  0.00    +0.000 HD
ENDROOT
BRANCH   3   5
ATOM      5  C   UNL     1       2.303   8.045  18.601  0.00  0.00    +0.000 C 
ATOM      6  C   UNL     1       3.095   7.033  18.193  0.00  0.00    +0.000 C 
BRANCH   6   7
ATOM      7  C   UNL     1       3.470   5.787  18.807  0.00  0.00    +0.000 A 
ATOM      8  C   UNL     1       4.782   5.314  18.745  0.00  0.00    +0.000 A 
ATOM      9  N   UNL     1       4.801   4.067  19.316  0.00  0.00    +0.000 N 
ATOM     10  C   UNL     1       3.583   3.760  19.860  0.00  0.00    +0.000 A 
ATOM     11  C   UNL     1       3.196   2.640  20.610  0.00  0.00    +0.000 A 
ATOM     12  C   UNL     1       1.868   2.546  21.030  0.00  0.00    +0.000 A 
ATOM     13  C   UNL     1       0.958   3.528  20.694  0.00  0.00    +0.000 A 
ATOM     14  C   UNL     1       1.376   4.645  19.969  0.00  0.00    +0.000 A 
ATOM     15  C   UNL     1       2.710   4.801  19.533  0.00  0.00    +0.000 A 
ATOM     16  H   UNL     1       5.618   3.471  19.374  0.00  0.00    +0.000 HD
BRANCH   8  17
ATOM     17  C   UNL     1       6.065   5.906  18.245  0.00  0.00    +0.000 C 
BRANCH  17  18
ATOM     18  C   UNL     1       6.720   5.218  17.078  0.00  0.00    +0.000 C 
ATOM     19  C   UNL     1       6.347   5.376  15.792  0.00  0.00    +0.000 C 
ATOM     20  C   UNL     1       5.220   6.276  15.354  0.00  0.00    +0.000 C 
ATOM     21  C   UNL     1       7.036   4.638  14.682  0.00  0.00    +0.000 C 
ENDBRANCH  17  18
ENDBRANCH   8  17
ENDBRANCH   6   7
ENDBRANCH   3   5
BRANCH   1  22
ATOM     22  C   UNL     1       0.524  10.388  19.386  0.00  0.00    +0.000 C 
BRANCH  22  25
ATOM     23  C   UNL     1       1.800  12.484  19.012  0.00  0.00    +0.000 C 
ATOM     24  O   UNL     1       2.296  11.962  18.004  0.00  0.00    +0.000 OA
ATOM     25  N   UNL     1       0.985  11.732  19.850  0.00  0.00    +0.000 N 
ATOM     26  C   UNL     1       0.606  12.156  21.185  0.00  0.00    +0.000 C 
BRANCH  23  27
ATOM     27  C   UNL     1       2.245  13.935  19.399  0.00  0.00    +0.000 C 
BRANCH  27  31
ATOM     28  C   UNL     1       4.691  14.130  22.307  0.00  0.00    +0.000 C 
ATOM     29  C   UNL     1       4.203  14.317  20.896  0.00  0.00    +0.000 C 
ATOM     30  O   UNL     1       4.839  14.951  20.062  0.00  0.00    +0.000 OA
ATOM     31  N   UNL     1       2.947  13.801  20.682  0.00  0.00    +0.000 N 
ATOM     32  H   UNL     1       2.583  13.136  21.352  0.00  0.00    +0.000 HD
ENDBRANCH  27  31
BRANCH  27  33
ATOM     33  C   UNL     1       1.220  15.105  19.445  0.00  0.00    +0.000 C 
ATOM     34  C   UNL     1      -0.079  14.759  18.700  0.00  0.00    +0.000 C 
ATOM     35  C   UNL     1       0.841  15.560  20.857  0.00  0.00    +0.000 C 
ENDBRANCH  27  33
ENDBRANCH  23  27
ENDBRANCH  22  25
BRANCH  22  36
ATOM     36  C   UNL     1      -0.992  10.356  19.024  0.00  0.00    +0.000 C 
ATOM     37  C   UNL     1      -1.813  11.620  19.292  0.00  0.00    +0.000 C 
ATOM     38  C   UNL     1      -1.189   9.921  17.572  0.00  0.00    +0.000 C 
ENDBRANCH  22  36
ENDBRANCH   1  22
TORSDOF 10
ENDMDL
MODEL 7
REMARK VINA RESULT:      -7.4      1.220      1.340
REMARK  Name = 
REMARK  18 active torsions:
REMARK  status: ('A' for Active; 'I' for Inactive)
REMARK    1  A    between atoms: C_1  and  C_2
REMARK    2  A    between atoms: N_4  and  C_5
REMARK    3  A    between atoms: C_5  and  C_6
REMARK    4  A    between atoms: C_5  and  C_33
REMARK    5  A    between atoms: N_8  and  C_9
REMARK    6  A    between atoms: N_8  and  C_10
REMARK    7  A    between atoms: C_10  and  C_11
REMARK    8  A    between atoms: C_10  and  C_30
REMARK    9  A    between atoms: N_13  and  C_14
REMARK   10  A    between atoms: C_15  and  C_16
REMARK   11  A    between atoms: C_17  and  C_18
REMARK   12  A    between atoms: C_18  and  C_19
REMARK   13  A    between atoms: C_20  and  C_21
REMARK   14  A    between atoms: C_20  and  C_22
REMARK   15  A    between atoms: C_30  and  C_31
REMARK   16  A    between atoms: C_30  and  C_32
REMARK   17  A    between atoms: C_33  and  C_34
REMARK   18  A    between atoms: C_33  and  C_35
REMARK                            x       y       z     vdW  Elec       q    Type
REMARK                         _______ _______ _______ _____ _____    ______ ____
ROOT
ATOM      1  C   UNL     1       1.243  10.472  20.151  0.00  0.00    +0.000 C 
ATOM      2  O   UNL     1       1.346  10.578  21.379  0.00  0.00    +0.000 OA
ATOM      3  N   UNL     1       1.475   9.233  19.596  0.00  0.00    +0.000 N 
ATOM      4  H   UNL     1       1.687   8.507  20.276  0.00  0.00    +0.000 HD
ENDROOT
BRANCH   3   5
ATOM      5  C   UNL     1       1.503   8.857  18.284  0.00  0.00    +0.000 C 
ATOM      6  C   UNL     1       2.323   7.949  17.719  0.00  0.00    +0.000 C 
BRANCH   6   7
ATOM      7  C   UNL     1       3.268   7.016  18.273  0.00  0.00    +0.000 A 
ATOM      8  C   UNL     1       2.935   6.205  19.359  0.00  0.00    +0.000 A 
ATOM      9  N   UNL     1       4.063   5.515  19.725  0.00  0.00    +0.000 N 
ATOM     10  C   UNL     1       5.085   5.749  18.844  0.00  0.00    +0.000 A 
ATOM     11  C   UNL     1       6.366   5.182  18.792  0.00  0.00    +0.000 A 
ATOM     12  C   UNL     1       7.247   5.617  17.800  0.00  0.00    +0.000 A 
ATOM     13  C   UNL     1       6.864   6.598  16.907  0.00  0.00    +0.000 A 
ATOM     14  C   UNL     1       5.574   7.127  16.966  0.00  0.00    +0.000 A 
ATOM     15  C   UNL     1       4.636   6.712  17.936  0.00  0.00    +0.000 A 
ATOM     16  H   UNL     1       4.122   4.879  20.510  0.00  0.00    +0.000 HD
BRANCH   8  17
ATOM     17  C   UNL     1       1.655   5.951  20.097  0.00  0.00    +0.000 C 
BRANCH  17  18
ATOM     18  C   UNL     1       1.646   4.795  21.061  0.00  0.00    +0.000 C 
ATOM     19  C   UNL     1       1.364   3.521  20.722  0.00  0.00    +0.000 C 
ATOM     20  C   UNL     1       1.027   3.086  19.318  0.00  0.00    +0.000 C 
ATOM     21  C   UNL     1       1.353   2.424  21.745  0.00  0.00    +0.000 C 
ENDBRANCH  17  18
ENDBRANCH   8  17
ENDBRANCH   6   7
ENDBRANCH   3   5
BRANCH   1  22
ATOM     22  C   UNL     1       0.789  11.655  19.247  0.00  0.00    +0.000 C 
BRANCH  22  25
ATOM     23  C   UNL     1       2.588  13.287  18.731  0.00  0.00    +0.000 C 
ATOM     24  O   UNL     1       3.032  12.483  17.900  0.00  0.00    +0.000 OA
ATOM     25  N   UNL     1       1.528  12.918  19.553  0.00  0.00    +0.000 N 
ATOM     26  C   UNL     1       1.139  13.664  20.735  0.00  0.00    +0.000 C 
BRANCH  23  27
ATOM     27  C   UNL     1       3.346  14.640  18.942  0.00  0.00    +0.000 C 
BRANCH  27  31
ATOM     28  C   UNL     1       2.400  17.462  16.571  0.00  0.00    +0.000 C 
ATOM     29  C   UNL     1       2.632  16.790  17.897  0.00  0.00    +0.000 C 
ATOM     30  O   UNL     1       2.583  17.401  18.958  0.00  0.00    +0.000 OA
ATOM     31  N   UNL     1       2.999  15.470  17.781  0.00  0.00    +0.000 N 
ATOM     32  H   UNL     1       2.828  15.002  16.901  0.00  0.00    +0.000 HD
ENDBRANCH  27  31
BRANCH  27  33
ATOM     33  C   UNL     1       4.879  14.670  19.210  0.00  0.00    +0.000 C 
ATOM     34  C   UNL     1       5.683  14.888  17.919  0.00  0.00    +0.000 C 
ATOM     35  C   UNL     1       5.325  15.729  20.222  0.00  0.00    +0.000 C 
ENDBRANCH  27  33
ENDBRANCH  23  27
ENDBRANCH  22  25
BRANCH  22  36
ATOM     36  C   UNL     1      -0.754  11.858  19.166  0.00  0.00    +0.000 C 
ATOM     37  C   UNL     1      -1.500  11.187  18.009  0.00  0.00    +0.000 C 
ATOM     38  C   UNL     1      -1.418  11.473  20.488  0.00  0.00    +0.000 C 
ENDBRANCH  22  36
ENDBRANCH   1  22
TORSDOF 10
ENDMDL
MODEL 8
REMARK VINA RESULT:      -7.4      1.721      3.982
REMARK  Name = 
REMARK  18 active torsions:
REMARK  status: ('A' for Active; 'I' for Inactive)
REMARK    1  A    between atoms: C_1  and  C_2
REMARK    2  A    between atoms: N_4  and  C_5
REMARK    3  A    between atoms: C_5  and  C_6
REMARK    4  A    between atoms: C_5  and  C_33
REMARK    5  A    between atoms: N_8  and  C_9
REMARK    6  A    between atoms: N_8  and  C_10
REMARK    7  A    between atoms: C_10  and  C_11
REMARK    8  A    between atoms: C_10  and  C_30
REMARK    9  A    between atoms: N_13  and  C_14
REMARK   10  A    between atoms: C_15  and  C_16
REMARK   11  A    between atoms: C_17  and  C_18
REMARK   12  A    between atoms: C_18  and  C_19
REMARK   13  A    between atoms: C_20  and  C_21
REMARK   14  A    between atoms: C_20  and  C_22
REMARK   15  A    between atoms: C_30  and  C_31
REMARK   16  A    between atoms: C_30  and  C_32
REMARK   17  A    between atoms: C_33  and  C_34
REMARK   18  A    between atoms: C_33  and  C_35
REMARK                            x       y       z     vdW  Elec       q    Type
REMARK                         _______ _______ _______ _____ _____    ______ ____
ROOT
ATOM      1  C   UNL     1       0.965   9.840  20.292  0.00  0.00    +0.000 C 
ATOM      2  O   UNL     1       0.893   9.744  21.524  0.00  0.00    +0.000 OA
ATOM      3  N   UNL     1       1.490   8.772  19.599  0.00  0.00    +0.000 N 
ATOM      4  H   UNL     1       1.748   7.983  20.186  0.00  0.00    +0.000 HD
ENDROOT
BRANCH   3   5
ATOM      5  C   UNL     1       1.751   8.642  18.265  0.00  0.00    +0.000 C 
ATOM      6  C   UNL     1       2.470   7.669  17.671  0.00  0.00    +0.000 C 
BRANCH   6   7
ATOM      7  C   UNL     1       3.033   6.440  18.164  0.00  0.00    +0.000 A 
ATOM      8  C   UNL     1       4.239   5.945  17.668  0.00  0.00    +0.000 A 
ATOM      9  N   UNL     1       4.454   4.718  18.245  0.00  0.00    +0.000 N 
ATOM     10  C   UNL     1       3.501   4.451  19.191  0.00  0.00    +0.000 A 
ATOM     11  C   UNL     1       3.397   3.364  20.071  0.00  0.00    +0.000 A 
ATOM     12  C   UNL     1       2.299   3.306  20.931  0.00  0.00    +0.000 A 
ATOM     13  C   UNL     1       1.331   4.290  20.894  0.00  0.00    +0.000 A 
ATOM     14  C   UNL     1       1.473   5.373  20.026  0.00  0.00    +0.000 A 
ATOM     15  C   UNL     1       2.572   5.493  19.147  0.00  0.00    +0.000 A 
ATOM     16  H   UNL     1       5.239   4.112  18.038  0.00  0.00    +0.000 HD
BRANCH   8  17
ATOM     17  C   UNL     1       5.269   6.498  16.729  0.00  0.00    +0.000 C 
BRANCH  17  18
ATOM     18  C   UNL     1       5.411   5.813  15.397  0.00  0.00    +0.000 C 
ATOM     19  C   UNL     1       6.298   4.833  15.132  0.00  0.00    +0.000 C 
ATOM     20  C   UNL     1       7.265   4.286  16.151  0.00  0.00    +0.000 C 
ATOM     21  C   UNL     1       6.394   4.213  13.770  0.00  0.00    +0.000 C 
ENDBRANCH  17  18
ENDBRANCH   8  17
ENDBRANCH   6   7
ENDBRANCH   3   5
BRANCH   1  22
ATOM     22  C   UNL     1       0.415  11.074  19.518  0.00  0.00    +0.000 C 
BRANCH  22  25
ATOM     23  C   UNL     1       2.011  12.931  19.113  0.00  0.00    +0.000 C 
ATOM     24  O   UNL     1       2.449  12.298  18.143  0.00  0.00    +0.000 OA
ATOM     25  N   UNL     1       1.065  12.349  19.949  0.00  0.00    +0.000 N 
ATOM     26  C   UNL     1       0.717  12.881  21.254  0.00  0.00    +0.000 C 
BRANCH  23  27
ATOM     27  C   UNL     1       2.664  14.311  19.463  0.00  0.00    +0.000 C 
BRANCH  27  31
ATOM     28  C   UNL     1       4.865  14.379  22.566  0.00  0.00    +0.000 C 
ATOM     29  C   UNL     1       4.507  14.591  21.120  0.00  0.00    +0.000 C 
ATOM     30  O   UNL     1       5.243  15.189  20.345  0.00  0.00    +0.000 OA
ATOM     31  N   UNL     1       3.248  14.142  20.799  0.00  0.00    +0.000 N 
ATOM     32  H   UNL     1       2.794  13.498  21.434  0.00  0.00    +0.000 HD
ENDBRANCH  27  31
BRANCH  27  33
ATOM     33  C   UNL     1       1.846  15.632  19.376  0.00  0.00    +0.000 C 
ATOM     34  C   UNL     1       2.586  16.713  18.573  0.00  0.00    +0.000 C 
ATOM     35  C   UNL     1       0.449  15.474  18.768  0.00  0.00    +0.000 C 
ENDBRANCH  27  33
ENDBRANCH  23  27
ENDBRANCH  22  25
BRANCH  22  36
ATOM     36  C   UNL     1      -1.140  11.170  19.467  0.00  0.00    +0.000 C 
ATOM     37  C   UNL     1      -1.759  12.545  19.196  0.00  0.00    +0.000 C 
ATOM     38  C   UNL     1      -1.710  10.154  18.478  0.00  0.00    +0.000 C 
ENDBRANCH  22  36
ENDBRANCH   1  22
TORSDOF 10
ENDMDL
MODEL 9
REMARK VINA RESULT:      -7.3      2.003      4.092
REMARK  Name = 
REMARK  18 active torsions:
REMARK  status: ('A' for Active; 'I' for Inactive)
REMARK    1  A    between atoms: C_1  and  C_2
REMARK    2  A    between atoms: N_4  and  C_5
REMARK    3  A    between atoms: C_5  and  C_6
REMARK    4  A    between atoms: C_5  and  C_33
REMARK    5  A    between atoms: N_8  and  C_9
REMARK    6  A    between atoms: N_8  and  C_10
REMARK    7  A    between atoms: C_10  and  C_11
REMARK    8  A    between atoms: C_10  and  C_30
REMARK    9  A    between atoms: N_13  and  C_14
REMARK   10  A    between atoms: C_15  and  C_16
REMARK   11  A    between atoms: C_17  and  C_18
REMARK   12  A    between atoms: C_18  and  C_19
REMARK   13  A    between atoms: C_20  and  C_21
REMARK   14  A    between atoms: C_20  and  C_22
REMARK   15  A    between atoms: C_30  and  C_31
REMARK   16  A    between atoms: C_30  and  C_32
REMARK   17  A    between atoms: C_33  and  C_34
REMARK   18  A    between atoms: C_33  and  C_35
REMARK                            x       y       z     vdW  Elec       q    Type
REMARK                         _______ _______ _______ _____ _____    ______ ____
ROOT
ATOM      1  C   UNL     1       1.067   9.149  20.005  0.00  0.00    +0.000 C 
ATOM      2  O   UNL     1       0.703   8.946  21.170  0.00  0.00    +0.000 OA
ATOM      3  N   UNL     1       1.894   8.214  19.423  0.00  0.00    +0.000 N 
ATOM      4  H   UNL     1       2.103   7.417  20.019  0.00  0.00    +0.000 HD
ENDROOT
BRANCH   3   5
ATOM      5  C   UNL     1       2.497   8.224  18.198  0.00  0.00    +0.000 C 
ATOM      6  C   UNL     1       3.176   7.213  17.620  0.00  0.00    +0.000 C 
BRANCH   6   7
ATOM      7  C   UNL     1       3.355   5.833  17.982  0.00  0.00    +0.000 A 
ATOM      8  C   UNL     1       4.250   5.013  17.294  0.00  0.00    +0.000 A 
ATOM      9  N   UNL     1       4.117   3.741  17.792  0.00  0.00    +0.000 N 
ATOM     10  C   UNL     1       3.262   3.724  18.862  0.00  0.00    +0.000 A 
ATOM     11  C   UNL     1       2.918   2.663  19.712  0.00  0.00    +0.000 A 
ATOM     12  C   UNL     1       1.987   2.897  20.726  0.00  0.00    +0.000 A 
ATOM     13  C   UNL     1       1.407   4.143  20.867  0.00  0.00    +0.000 A 
ATOM     14  C   UNL     1       1.788   5.187  20.023  0.00  0.00    +0.000 A 
ATOM     15  C   UNL     1       2.737   5.012  18.993  0.00  0.00    +0.000 A 
ATOM     16  H   UNL     1       4.619   2.931  17.450  0.00  0.00    +0.000 HD
BRANCH   8  17
ATOM     17  C   UNL     1       5.272   5.273  16.229  0.00  0.00    +0.000 C 
BRANCH  17  18
ATOM     18  C   UNL     1       5.187   4.431  14.985  0.00  0.00    +0.000 C 
ATOM     19  C   UNL     1       6.145   4.368  14.039  0.00  0.00    +0.000 C 
ATOM     20  C   UNL     1       7.441   5.134  14.112  0.00  0.00    +0.000 C 
ATOM     21  C   UNL     1       5.979   3.520  12.813  0.00  0.00    +0.000 C 
ENDBRANCH  17  18
ENDBRANCH   8  17
ENDBRANCH   6   7
ENDBRANCH   3   5
BRANCH   1  22
ATOM     22  C   UNL     1       0.562  10.364  19.172  0.00  0.00    +0.000 C 
BRANCH  22  25
ATOM     23  C   UNL     1       2.002  12.374  18.951  0.00  0.00    +0.000 C 
ATOM     24  O   UNL     1       2.543  11.837  17.974  0.00  0.00    +0.000 OA
ATOM     25  N   UNL     1       1.072  11.666  19.703  0.00  0.00    +0.000 N 
ATOM     26  C   UNL     1       0.614  12.091  21.012  0.00  0.00    +0.000 C 
BRANCH  23  27
ATOM     27  C   UNL     1       2.510  13.784  19.406  0.00  0.00    +0.000 C 
BRANCH  27  31
ATOM     28  C   UNL     1       5.716  14.883  17.676  0.00  0.00    +0.000 C 
ATOM     29  C   UNL     1       4.253  14.919  18.030  0.00  0.00    +0.000 C 
ATOM     30  O   UNL     1       3.514  15.826  17.667  0.00  0.00    +0.000 OA
ATOM     31  N   UNL     1       3.873  13.902  18.873  0.00  0.00    +0.000 N 
ATOM     32  H   UNL     1       4.486  13.103  18.964  0.00  0.00    +0.000 HD
ENDBRANCH  27  31
BRANCH  27  33
ATOM     33  C   UNL     1       2.457  14.214  20.900  0.00  0.00    +0.000 C 
ATOM     34  C   UNL     1       3.846  14.189  21.555  0.00  0.00    +0.000 C 
ATOM     35  C   UNL     1       1.853  15.601  21.140  0.00  0.00    +0.000 C 
ENDBRANCH  27  33
ENDBRANCH  23  27
ENDBRANCH  22  25
BRANCH  22  36
ATOM     36  C   UNL     1      -0.972  10.377  18.903  0.00  0.00    +0.000 C 
ATOM     37  C   UNL     1      -1.726  11.688  19.143  0.00  0.00    +0.000 C 
ATOM     38  C   UNL     1      -1.276   9.868  17.494  0.00  0.00    +0.000 C 
ENDBRANCH  22  36
ENDBRANCH   1  22
TORSDOF 10
ENDMDL
