MODEL 1
REMARK VINA RESULT:      -6.9      0.000      0.000
REMARK  Name = 
REMARK  4 active torsions:
REMARK  status: ('A' for Active; 'I' for Inactive)
REMARK    1  A    between atoms: C_1  and  C_2
REMARK    2  A    between atoms: C_2  and  N_3
REMARK    3  A    between atoms: C_4  and  S_5
REMARK    4  A    between atoms: C_8  and  C_9
REMARK                            x       y       z     vdW  Elec       q    Type
REMARK                         _______ _______ _______ _____ _____    ______ ____
ROOT
ATOM      1  N   UNL     1       3.536   3.501  19.920  0.00  0.00    +0.000 N 
ATOM      2  C   UNL     1       2.382   3.851  20.572  0.00  0.00    +0.000 A 
ATOM      3  N   UNL     1       2.239   5.156  20.558  0.00  0.00    +0.000 NA
ATOM      4  N   UNL     1       3.324   5.686  19.908  0.00  0.00    +0.000 NA
ATOM      5  C   UNL     1       4.111   4.700  19.522  0.00  0.00    +0.000 A 
ENDROOT
BRANCH   5   6
ATOM      6  C   UNL     1       5.435   4.905  18.828  0.00  0.00    +0.000 A 
ATOM      7  N   UNL     1       6.482   5.353  19.523  0.00  0.00    +0.000 NA
ATOM      8  S   UNL     1       7.759   5.578  18.513  0.00  0.00    +0.000 S 
ATOM      9  C   UNL     1       6.951   5.116  17.075  0.00  0.00    +0.000 A 
ATOM     10  C   UNL     1       7.431   5.134  15.754  0.00  0.00    +0.000 A 
ATOM     11  C   UNL     1       6.580   4.707  14.735  0.00  0.00    +0.000 A 
ATOM     12  C   UNL     1       5.302   4.249  15.027  0.00  0.00    +0.000 A 
ATOM     13  C   UNL     1       4.834   4.236  16.348  0.00  0.00    +0.000 A 
ATOM     14  C   UNL     1       5.657   4.699  17.408  0.00  0.00    +0.000 A 
ENDBRANCH   5   6
BRANCH   1  16
ATOM     15  C   UNL     1       3.609   1.457  18.535  0.00  0.00    +0.000 C 
ATOM     16  C   UNL     1       4.107   2.179  19.777  0.00  0.00    +0.000 C 
ENDBRANCH   1  16
BRANCH   2  17
ATOM     17  S   UNL     1       1.279   2.778  21.367  0.00  0.00    +0.000 S 
ATOM     18  H   UNL     1       0.213   2.848  20.564  0.00  0.00    +0.000 HD
ENDBRANCH   2  17
TORSDOF 3
ENDMDL
MODEL 2
REMARK VINA RESULT:      -6.7      2.549      5.590
REMARK  Name = 
REMARK  4 active torsions:
REMARK  status: ('A' for Active; 'I' for Inactive)
REMARK    1  A    between atoms: C_1  and  C_2
REMARK    2  A    between atoms: C_2  and  N_3
REMARK    3  A    between atoms: C_4  and  S_5
REMARK    4  A    between atoms: C_8  and  C_9
REMARK                            x       y       z     vdW  Elec       q    Type
REMARK                         _______ _______ _______ _____ _____    ______ ____
ROOT
ATOM      1  N   UNL     1       5.809   6.023  17.636  0.00  0.00    +0.000 N 
ATOM      2  C   UNL     1       7.021   6.524  18.038  0.00  0.00    +0.000 A 
ATOM      3  N   UNL     1       7.581   5.706  18.897  0.00  0.00    +0.000 NA
ATOM      4  N   UNL     1       6.723   4.654  19.091  0.00  0.00    +0.000 NA
ATOM      5  C   UNL     1       5.654   4.836  18.339  0.00  0.00    +0.000 A 
ENDROOT
BRANCH   5   6
ATOM      6  C   UNL     1       4.462   3.911  18.336  0.00  0.00    +0.000 A 
ATOM      7  N   UNL     1       4.409   2.906  17.459  0.00  0.00    +0.000 NA
ATOM      8  S   UNL     1       2.972   2.121  17.606  0.00  0.00    +0.000 S 
ATOM      9  C   UNL     1       2.330   3.124  18.838  0.00  0.00    +0.000 A 
ATOM     10  C   UNL     1       1.055   3.083  19.428  0.00  0.00    +0.000 A 
ATOM     11  C   UNL     1       0.755   4.012  20.424  0.00  0.00    +0.000 A 
ATOM     12  C   UNL     1       1.708   4.934  20.839  0.00  0.00    +0.000 A 
ATOM     13  C   UNL     1       2.977   4.965  20.244  0.00  0.00    +0.000 A 
ATOM     14  C   UNL     1       3.305   4.060  19.201  0.00  0.00    +0.000 A 
ENDBRANCH   5   6
BRANCH   1  16
ATOM     15  C   UNL     1       3.751   7.384  17.530  0.00  0.00    +0.000 C 
ATOM     16  C   UNL     1       4.838   6.646  16.764  0.00  0.00    +0.000 C 
ENDBRANCH   1  16
BRANCH   2  17
ATOM     17  S   UNL     1       7.721   8.036  17.562  0.00  0.00    +0.000 S 
ATOM     18  H   UNL     1       7.244   8.858  18.501  0.00  0.00    +0.000 HD
ENDBRANCH   2  17
TORSDOF 3
ENDMDL
MODEL 3
REMARK VINA RESULT:      -6.7      1.070      1.808
REMARK  Name = 
REMARK  4 active torsions:
REMARK  status: ('A' for Active; 'I' for Inactive)
REMARK    1  A    between atoms: C_1  and  C_2
REMARK    2  A    between atoms: C_2  and  N_3
REMARK    3  A    between atoms: C_4  and  S_5
REMARK    4  A    between atoms: C_8  and  C_9
REMARK                            x       y       z     vdW  Elec       q    Type
REMARK                         _______ _______ _______ _____ _____    ______ ____
ROOT
ATOM      1  N   UNL     1       3.356   4.142  19.813  0.00  0.00    +0.000 N 
ATOM      2  C   UNL     1       2.778   3.098  20.490  0.00  0.00    +0.000 A 
ATOM      3  N   UNL     1       3.669   2.160  20.711  0.00  0.00    +0.000 NA
ATOM      4  N   UNL     1       4.853   2.571  20.155  0.00  0.00    +0.000 NA
ATOM      5  C   UNL     1       4.675   3.760  19.610  0.00  0.00    +0.000 A 
ENDROOT
BRANCH   5   6
ATOM      6  C   UNL     1       5.745   4.503  18.849  0.00  0.00    +0.000 A 
ATOM      7  N   UNL     1       6.619   5.264  19.511  0.00  0.00    +0.000 NA
ATOM      8  S   UNL     1       7.605   6.030  18.442  0.00  0.00    +0.000 S 
ATOM      9  C   UNL     1       6.876   5.402  17.024  0.00  0.00    +0.000 A 
ATOM     10  C   UNL     1       7.170   5.696  15.682  0.00  0.00    +0.000 A 
ATOM     11  C   UNL     1       6.434   5.054  14.686  0.00  0.00    +0.000 A 
ATOM     12  C   UNL     1       5.457   4.124  15.019  0.00  0.00    +0.000 A 
ATOM     13  C   UNL     1       5.173   3.839  16.361  0.00  0.00    +0.000 A 
ATOM     14  C   UNL     1       5.874   4.502  17.402  0.00  0.00    +0.000 A 
ENDBRANCH   5   6
BRANCH   1  16
ATOM     15  C   UNL     1       2.040   5.108  17.960  0.00  0.00    +0.000 C 
ATOM     16  C   UNL     1       2.713   5.333  19.305  0.00  0.00    +0.000 C 
ENDBRANCH   1  16
BRANCH   2  17
ATOM     17  S   UNL     1       1.113   2.963  20.948  0.00  0.00    +0.000 S 
ATOM     18  H   UNL     1       0.543   3.875  20.155  0.00  0.00    +0.000 HD
ENDBRANCH   2  17
TORSDOF 3
ENDMDL
MODEL 4
REMARK VINA RESULT:      -6.0      2.527      5.555
REMARK  Name = 
REMARK  4 active torsions:
REMARK  status: ('A' for Active; 'I' for Inactive)
REMARK    1  A    between atoms: C_1  and  C_2
REMARK    2  A    between atoms: C_2  and  N_3
REMARK    3  A    between atoms: C_4  and  S_5
REMARK    4  A    between atoms: C_8  and  C_9
REMARK                            x       y       z     vdW  Elec       q    Type
REMARK                         _______ _______ _______ _____ _____    ______ ____
ROOT
ATOM      1  N   UNL     1       6.002   6.009  18.132  0.00  0.00    +0.000 N 
ATOM      2  C   UNL     1       6.438   6.978  17.265  0.00  0.00    +0.000 A 
ATOM      3  N   UNL     1       5.730   6.943  16.161  0.00  0.00    +0.000 NA
ATOM      4  N   UNL     1       4.822   5.922  16.282  0.00  0.00    +0.000 NA
ATOM      5  C   UNL     1       4.979   5.353  17.462  0.00  0.00    +0.000 A 
ENDROOT
BRANCH   5   6
ATOM      6  C   UNL     1       4.195   4.150  17.924  0.00  0.00    +0.000 A 
ATOM      7  N   UNL     1       4.389   2.969  17.334  0.00  0.00    +0.000 NA
ATOM      8  S   UNL     1       3.346   1.862  17.958  0.00  0.00    +0.000 S 
ATOM      9  C   UNL     1       2.551   2.933  19.034  0.00  0.00    +0.000 A 
ATOM     10  C   UNL     1       1.452   2.678  19.873  0.00  0.00    +0.000 A 
ATOM     11  C   UNL     1       0.971   3.717  20.669  0.00  0.00    +0.000 A 
ATOM     12  C   UNL     1       1.586   4.963  20.650  0.00  0.00    +0.000 A 
ATOM     13  C   UNL     1       2.681   5.206  19.809  0.00  0.00    +0.000 A 
ATOM     14  C   UNL     1       3.173   4.183  18.956  0.00  0.00    +0.000 A 
ENDBRANCH   5   6
BRANCH   1  16
ATOM     15  C   UNL     1       8.040   5.319  19.344  0.00  0.00    +0.000 C 
ATOM     16  C   UNL     1       6.559   5.656  19.419  0.00  0.00    +0.000 C 
ENDBRANCH   1  16
BRANCH   2  17
ATOM     17  S   UNL     1       7.762   8.066  17.516  0.00  0.00    +0.000 S 
ATOM     18  H   UNL     1       7.184   9.028  18.242  0.00  0.00    +0.000 HD
ENDBRANCH   2  17
TORSDOF 3
ENDMDL
MODEL 5
REMARK VINA RESULT:      -5.7      3.670      5.589
REMARK  Name = 
REMARK  4 active torsions:
REMARK  status: ('A' for Active; 'I' for Inactive)
REMARK    1  A    between atoms: C_1  and  C_2
REMARK    2  A    between atoms: C_2  and  N_3
REMARK    3  A    between atoms: C_4  and  S_5
REMARK    4  A    between atoms: C_8  and  C_9
REMARK                            x       y       z     vdW  Elec       q    Type
REMARK                         _______ _______ _______ _____ _____    ______ ____
ROOT
ATOM      1  N   UNL     1       1.775   8.413  19.507  0.00  0.00    +0.000 N 
ATOM      2  C   UNL     1       1.371   9.470  18.734  0.00  0.00    +0.000 A 
ATOM      3  N   UNL     1       1.755   9.289  17.492  0.00  0.00    +0.000 NA
ATOM      4  N   UNL     1       2.444   8.104  17.438  0.00  0.00    +0.000 NA
ATOM      5  C   UNL     1       2.463   7.571  18.645  0.00  0.00    +0.000 A 
ENDROOT
BRANCH   5   6
ATOM      6  C   UNL     1       3.187   6.292  18.986  0.00  0.00    +0.000 A 
ATOM      7  N   UNL     1       4.477   6.159  18.671  0.00  0.00    +0.000 NA
ATOM      8  S   UNL     1       4.987   4.646  19.061  0.00  0.00    +0.000 S 
ATOM      9  C   UNL     1       3.479   4.078  19.642  0.00  0.00    +0.000 A 
ATOM     10  C   UNL     1       3.141   2.790  20.092  0.00  0.00    +0.000 A 
ATOM     11  C   UNL     1       1.834   2.561  20.522  0.00  0.00    +0.000 A 
ATOM     12  C   UNL     1       0.903   3.591  20.532  0.00  0.00    +0.000 A 
ATOM     13  C   UNL     1       1.252   4.872  20.081  0.00  0.00    +0.000 A 
ATOM     14  C   UNL     1       2.562   5.133  19.599  0.00  0.00    +0.000 A 
ENDBRANCH   5   6
BRANCH   1  16
ATOM     15  C   UNL     1       0.173   8.189  21.374  0.00  0.00    +0.000 C 
ATOM     16  C   UNL     1       1.628   8.254  20.937  0.00  0.00    +0.000 C 
ENDBRANCH   1  16
BRANCH   2  17
ATOM     17  S   UNL     1       0.536  10.887  19.278  0.00  0.00    +0.000 S 
ATOM     18  H   UNL     1       1.515  11.797  19.262  0.00  0.00    +0.000 HD
ENDBRANCH   2  17
TORSDOF 3
ENDMDL
MODEL 6
REMARK VINA RESULT:      -5.6      3.851      5.681
REMARK  Name = 
REMARK  4 active torsions:
REMARK  status: ('A' for Active; 'I' for Inactive)
REMARK    1  A    between atoms: C_1  and  C_2
REMARK    2  A    between atoms: C_2  and  N_3
REMARK    3  A    between atoms: C_4  and  S_5
REMARK    4  A    between atoms: C_8  and  C_9
REMARK                            x       y       z     vdW  Elec       q    Type
REMARK                         _______ _______ _______ _____ _____    ______ ____
ROOT
ATOM      1  N   UNL     1       2.923   4.608  19.087  0.00  0.00    +0.000 N 
ATOM      2  C   UNL     1       4.007   3.777  19.218  0.00  0.00    +0.000 A 
ATOM      3  N   UNL     1       5.112   4.484  19.242  0.00  0.00    +0.000 NA
ATOM      4  N   UNL     1       4.765   5.804  19.103  0.00  0.00    +0.000 NA
ATOM      5  C   UNL     1       3.451   5.888  19.007  0.00  0.00    +0.000 A 
ENDROOT
BRANCH   5   6
ATOM      6  C   UNL     1       2.708   7.181  18.780  0.00  0.00    +0.000 A 
ATOM      7  N   UNL     1       2.860   7.838  17.628  0.00  0.00    +0.000 NA
ATOM      8  S   UNL     1       2.023   9.251  17.683  0.00  0.00    +0.000 S 
ATOM      9  C   UNL     1       1.441   9.067  19.283  0.00  0.00    +0.000 A 
ATOM     10  C   UNL     1       0.682   9.969  20.050  0.00  0.00    +0.000 A 
ATOM     11  C   UNL     1       0.320   9.597  21.344  0.00  0.00    +0.000 A 
ATOM     12  C   UNL     1       0.678   8.352  21.847  0.00  0.00    +0.000 A 
ATOM     13  C   UNL     1       1.434   7.461  21.073  0.00  0.00    +0.000 A 
ATOM     14  C   UNL     1       1.854   7.821  19.765  0.00  0.00    +0.000 A 
ENDBRANCH   5   6
BRANCH   1  16
ATOM     15  C   UNL     1       0.873   3.898  20.267  0.00  0.00    +0.000 C 
ATOM     16  C   UNL     1       1.534   4.234  18.939  0.00  0.00    +0.000 C 
ENDBRANCH   1  16
BRANCH   2  17
ATOM     17  S   UNL     1       3.979   2.046  19.280  0.00  0.00    +0.000 S 
ATOM     18  H   UNL     1       3.789   1.829  20.585  0.00  0.00    +0.000 HD
ENDBRANCH   2  17
TORSDOF 3
ENDMDL
MODEL 7
REMARK VINA RESULT:      -5.5      1.378      1.531
REMARK  Name = 
REMARK  4 active torsions:
REMARK  status: ('A' for Active; 'I' for Inactive)
REMARK    1  A    between atoms: C_1  and  C_2
REMARK    2  A    between atoms: C_2  and  N_3
REMARK    3  A    between atoms: C_4  and  S_5
REMARK    4  A    between atoms: C_8  and  C_9
REMARK                            x       y       z     vdW  Elec       q    Type
REMARK                         _______ _______ _______ _____ _____    ______ ____
ROOT
ATOM      1  N   UNL     1       3.119   3.302  18.452  0.00  0.00    +0.000 N 
ATOM      2  C   UNL     1       1.787   3.524  18.690  0.00  0.00    +0.000 A 
ATOM      3  N   UNL     1       1.468   4.748  18.340  0.00  0.00    +0.000 NA
ATOM      4  N   UNL     1       2.607   5.360  17.883  0.00  0.00    +0.000 NA
ATOM      5  C   UNL     1       3.606   4.500  17.948  0.00  0.00    +0.000 A 
ENDROOT
BRANCH   5   6
ATOM      6  C   UNL     1       5.030   4.839  17.586  0.00  0.00    +0.000 A 
ATOM      7  N   UNL     1       5.825   5.408  18.494  0.00  0.00    +0.000 NA
ATOM      8  S   UNL     1       7.280   5.758  17.812  0.00  0.00    +0.000 S 
ATOM      9  C   UNL     1       6.897   5.192  16.242  0.00  0.00    +0.000 A 
ATOM     10  C   UNL     1       7.680   5.244  15.075  0.00  0.00    +0.000 A 
ATOM     11  C   UNL     1       7.152   4.714  13.898  0.00  0.00    +0.000 A 
ATOM     12  C   UNL     1       5.894   4.123  13.892  0.00  0.00    +0.000 A 
ATOM     13  C   UNL     1       5.123   4.076  15.062  0.00  0.00    +0.000 A 
ATOM     14  C   UNL     1       5.612   4.640  16.269  0.00  0.00    +0.000 A 
ENDBRANCH   5   6
BRANCH   1  16
ATOM     15  C   UNL     1       4.468   2.155  20.175  0.00  0.00    +0.000 C 
ATOM     16  C   UNL     1       3.891   2.120  18.768  0.00  0.00    +0.000 C 
ENDBRANCH   1  16
BRANCH   2  17
ATOM     17  S   UNL     1       0.668   2.412  19.405  0.00  0.00    +0.000 S 
ATOM     18  H   UNL     1       1.365   1.968  20.454  0.00  0.00    +0.000 HD
ENDBRANCH   2  17
TORSDOF 3
ENDMDL
MODEL 8
REMARK VINA RESULT:      -5.4      2.776      3.513
REMARK  Name = 
REMARK  4 active torsions:
REMARK  status: ('A' for Active; 'I' for Inactive)
REMARK    1  A    between atoms: C_1  and  C_2
REMARK    2  A    between atoms: C_2  and  N_3
REMARK    3  A    between atoms: C_4  and  S_5
REMARK    4  A    between atoms: C_8  and  C_9
REMARK                            x       y       z     vdW  Elec       q    Type
REMARK                         _______ _______ _______ _____ _____    ______ ____
ROOT
ATOM      1  N   UNL     1       2.167   6.688  19.844  0.00  0.00    +0.000 N 
ATOM      2  C   UNL     1       1.678   7.949  20.067  0.00  0.00    +0.000 A 
ATOM      3  N   UNL     1       1.816   8.681  18.986  0.00  0.00    +0.000 NA
ATOM      4  N   UNL     1       2.428   7.905  18.035  0.00  0.00    +0.000 NA
ATOM      5  C   UNL     1       2.645   6.706  18.542  0.00  0.00    +0.000 A 
ENDROOT
BRANCH   5   6
ATOM      6  C   UNL     1       3.359   5.600  17.804  0.00  0.00    +0.000 A 
ATOM      7  N   UNL     1       2.731   4.445  17.577  0.00  0.00    +0.000 NA
ATOM      8  S   UNL     1       3.761   3.391  16.850  0.00  0.00    +0.000 S 
ATOM      9  C   UNL     1       5.123   4.429  16.838  0.00  0.00    +0.000 A 
ATOM     10  C   UNL     1       6.434   4.153  16.411  0.00  0.00    +0.000 A 
ATOM     11  C   UNL     1       7.386   5.168  16.498  0.00  0.00    +0.000 A 
ATOM     12  C   UNL     1       7.036   6.428  16.967  0.00  0.00    +0.000 A 
ATOM     13  C   UNL     1       5.725   6.691  17.390  0.00  0.00    +0.000 A 
ATOM     14  C   UNL     1       4.738   5.672  17.353  0.00  0.00    +0.000 A 
ENDBRANCH   5   6
BRANCH   1  16
ATOM     15  C   UNL     1       1.198   4.549  20.610  0.00  0.00    +0.000 C 
ATOM     16  C   UNL     1       2.281   5.601  20.792  0.00  0.00    +0.000 C 
ENDBRANCH   1  16
BRANCH   2  17
ATOM     17  S   UNL     1       1.024   8.555  21.553  0.00  0.00    +0.000 S 
ATOM     18  H   UNL     1       0.829   9.842  21.254  0.00  0.00    +0.000 HD
ENDBRANCH   2  17
TORSDOF 3
ENDMDL
MODEL 9
REMARK VINA RESULT:      -5.4      3.516      4.688
REMARK  Name = 
REMARK  4 active torsions:
REMARK  status: ('A' for Active; 'I' for Inactive)
REMARK    1  A    between atoms: C_1  and  C_2
REMARK    2  A    between atoms: C_2  and  N_3
REMARK    3  A    between atoms: C_4  and  S_5
REMARK    4  A    between atoms: C_8  and  C_9
REMARK                            x       y       z     vdW  Elec       q    Type
REMARK                         _______ _______ _______ _____ _____    ______ ____
ROOT
ATOM      1  N   UNL     1       2.045   8.079  19.283  0.00  0.00    +0.000 N 
ATOM      2  C   UNL     1       1.487   9.259  18.863  0.00  0.00    +0.000 A 
ATOM      3  N   UNL     1       1.744   9.447  17.589  0.00  0.00    +0.000 NA
ATOM      4  N   UNL     1       2.503   8.389  17.158  0.00  0.00    +0.000 NA
ATOM      5  C   UNL     1       2.692   7.563  18.169  0.00  0.00    +0.000 A 
ENDROOT
BRANCH   5   6
ATOM      6  C   UNL     1       3.535   6.315  18.087  0.00  0.00    +0.000 A 
ATOM      7  N   UNL     1       4.858   6.419  17.944  0.00  0.00    +0.000 NA
ATOM      8  S   UNL     1       5.516   4.922  17.783  0.00  0.00    +0.000 S 
ATOM      9  C   UNL     1       4.041   4.054  17.860  0.00  0.00    +0.000 A 
ATOM     10  C   UNL     1       3.826   2.673  17.713  0.00  0.00    +0.000 A 
ATOM     11  C   UNL     1       2.522   2.190  17.816  0.00  0.00    +0.000 A 
ATOM     12  C   UNL     1       1.469   3.054  18.088  0.00  0.00    +0.000 A 
ATOM     13  C   UNL     1       1.695   4.430  18.233  0.00  0.00    +0.000 A 
ATOM     14  C   UNL     1       3.003   4.963  18.096  0.00  0.00    +0.000 A 
ENDBRANCH   5   6
BRANCH   1  16
ATOM     15  C   UNL     1       1.005   6.474  20.846  0.00  0.00    +0.000 C 
ATOM     16  C   UNL     1       2.068   7.539  20.624  0.00  0.00    +0.000 C 
ENDBRANCH   1  16
BRANCH   2  17
ATOM     17  S   UNL     1       0.622  10.397  19.840  0.00  0.00    +0.000 S 
ATOM     18  H   UNL     1       0.287  11.325  18.938  0.00  0.00    +0.000 HD
ENDBRANCH   2  17
TORSDOF 3
ENDMDL
