MODEL 1
REMARK VINA RESULT:      -8.0      0.000      0.000
REMARK  Name = 
REMARK  7 active torsions:
REMARK  status: ('A' for Active; 'I' for Inactive)
REMARK    1  A    between atoms: N_3  and  C_4
REMARK    2  A    between atoms: C_4  and  C_5
REMARK    3  A    between atoms: C_10  and  C_11
REMARK    4  A    between atoms: C_11  and  N_12
REMARK    5  A    between atoms: C_16  and  C_17
REMARK    6  A    between atoms: C_17  and  O_19
REMARK    7  A    between atoms: N_20  and  C_21
REMARK                            x       y       z     vdW  Elec       q    Type
REMARK                         _______ _______ _______ _____ _____    ______ ____
ROOT
ATOM      1  C   UNL     1       3.621   5.886  18.155  0.00  0.00    +0.000 A 
ATOM      2  C   UNL     1       4.823   6.471  17.675  0.00  0.00    +0.000 A 
ATOM      3  C   UNL     1       5.559   5.912  16.631  0.00  0.00    +0.000 A 
ATOM      4  C   UNL     1       5.119   4.738  16.042  0.00  0.00    +0.000 A 
ATOM      5  C   UNL     1       3.955   4.131  16.505  0.00  0.00    +0.000 A 
ATOM      6  C   UNL     1       3.179   4.683  17.555  0.00  0.00    +0.000 A 
ENDROOT
BRANCH   1   7
ATOM      7  C   UNL     1       2.959   6.687  19.266  0.00  0.00    +0.000 C 
BRANCH   7  10
ATOM      8  O   UNL     1       1.506   8.361  21.008  0.00  0.00    +0.000 OA
ATOM      9  C   UNL     1       1.495   8.584  19.805  0.00  0.00    +0.000 C 
ATOM     10  N   UNL     1       2.152   7.815  18.880  0.00  0.00    +0.000 N 
ATOM     11  N   UNL     1       0.883   9.668  19.218  0.00  0.00    +0.000 N 
ATOM     12  H   UNL     1       1.977   7.965  17.899  0.00  0.00    +0.000 HD
ATOM     13  H   UNL     1       0.535   9.488  18.292  0.00  0.00    +0.000 HD
BRANCH  11  14
ATOM     14  C   UNL     1       0.106  10.620  20.020  0.00  0.00    +0.000 C 
ATOM     15  C   UNL     1       0.819  11.966  20.227  0.00  0.00    +0.000 C 
ATOM     16  C   UNL     1       0.911  12.780  18.940  0.00  0.00    +0.000 C 
ATOM     17  C   UNL     1      -0.470  13.040  18.352  0.00  0.00    +0.000 C 
ATOM     18  C   UNL     1      -1.260  11.749  18.154  0.00  0.00    +0.000 C 
ATOM     19  C   UNL     1      -1.282  10.860  19.399  0.00  0.00    +0.000 C 
ENDBRANCH  11  14
ENDBRANCH   7  10
ENDBRANCH   1   7
BRANCH   6  20
ATOM     20  C   UNL     1       1.945   3.884  17.949  0.00  0.00    +0.000 C 
BRANCH  20  21
ATOM     21  N   UNL     1       1.939   3.455  19.358  0.00  0.00    +0.000 N 
ATOM     22  C   UNL     1       0.984   3.807  20.288  0.00  0.00    +0.000 A 
ATOM     23  C   UNL     1       1.371   3.339  21.519  0.00  0.00    +0.000 A 
ATOM     24  C   UNL     1       2.556   2.607  21.325  0.00  0.00    +0.000 A 
ATOM     25  C   UNL     1       2.859   2.602  19.965  0.00  0.00    +0.000 A 
BRANCH  25  26
ATOM     26  C   UNL     1       3.940   1.905  19.298  0.00  0.00    +0.000 C 
ATOM     27  O   UNL     1       3.825   1.071  18.413  0.00  0.00    +0.000 OA
BRANCH  26  28
ATOM     28  O   UNL     1       5.149   2.256  19.797  0.00  0.00    +0.000 OA
ATOM     29  H   UNL     1       5.664   2.819  19.195  0.00  0.00    +0.000 HD
ENDBRANCH  26  28
ENDBRANCH  25  26
ENDBRANCH  20  21
ENDBRANCH   6  20
TORSDOF 7
ENDMDL
MODEL 2
REMARK VINA RESULT:      -7.9      1.599      3.594
REMARK  Name = 
REMARK  7 active torsions:
REMARK  status: ('A' for Active; 'I' for Inactive)
REMARK    1  A    between atoms: N_3  and  C_4
REMARK    2  A    between atoms: C_4  and  C_5
REMARK    3  A    between atoms: C_10  and  C_11
REMARK    4  A    between atoms: C_11  and  N_12
REMARK    5  A    between atoms: C_16  and  C_17
REMARK    6  A    between atoms: C_17  and  O_19
REMARK    7  A    between atoms: N_20  and  C_21
REMARK                            x       y       z     vdW  Elec       q    Type
REMARK                         _______ _______ _______ _____ _____    ______ ____
ROOT
ATOM      1  C   UNL     1       2.148   5.217  19.396  0.00  0.00    +0.000 A 
ATOM      2  C   UNL     1       1.315   4.141  19.802  0.00  0.00    +0.000 A 
ATOM      3  C   UNL     1       1.212   2.960  19.067  0.00  0.00    +0.000 A 
ATOM      4  C   UNL     1       1.931   2.826  17.892  0.00  0.00    +0.000 A 
ATOM      5  C   UNL     1       2.741   3.873  17.458  0.00  0.00    +0.000 A 
ATOM      6  C   UNL     1       2.877   5.078  18.190  0.00  0.00    +0.000 A 
ENDROOT
BRANCH   1   7
ATOM      7  C   UNL     1       2.145   6.387  20.369  0.00  0.00    +0.000 C 
BRANCH   7  10
ATOM      8  O   UNL     1       0.944   8.497  21.800  0.00  0.00    +0.000 OA
ATOM      9  C   UNL     1       1.245   8.658  20.625  0.00  0.00    +0.000 C 
ATOM     10  N   UNL     1       1.812   7.685  19.843  0.00  0.00    +0.000 N 
ATOM     11  N   UNL     1       1.121   9.847  19.943  0.00  0.00    +0.000 N 
ATOM     12  H   UNL     1       1.894   7.835  18.850  0.00  0.00    +0.000 HD
ATOM     13  H   UNL     1       0.931   9.736  18.962  0.00  0.00    +0.000 HD
BRANCH  11  14
ATOM     14  C   UNL     1       0.522  11.023  20.583  0.00  0.00    +0.000 C 
ATOM     15  C   UNL     1       1.223  12.341  20.211  0.00  0.00    +0.000 C 
ATOM     16  C   UNL     1       0.990  12.734  18.756  0.00  0.00    +0.000 C 
ATOM     17  C   UNL     1      -0.496  12.864  18.451  0.00  0.00    +0.000 C 
ATOM     18  C   UNL     1      -1.271  11.606  18.830  0.00  0.00    +0.000 C 
ATOM     19  C   UNL     1      -0.979  11.126  20.254  0.00  0.00    +0.000 C 
ENDBRANCH  11  14
ENDBRANCH   7  10
ENDBRANCH   1   7
BRANCH   6  20
ATOM     20  C   UNL     1       3.788   6.125  17.567  0.00  0.00    +0.000 C 
BRANCH  20  21
ATOM     21  N   UNL     1       4.986   5.561  16.921  0.00  0.00    +0.000 N 
ATOM     22  C   UNL     1       5.287   5.668  15.580  0.00  0.00    +0.000 A 
ATOM     23  C   UNL     1       6.402   4.914  15.314  0.00  0.00    +0.000 A 
ATOM     24  C   UNL     1       6.848   4.395  16.543  0.00  0.00    +0.000 A 
ATOM     25  C   UNL     1       6.020   4.873  17.555  0.00  0.00    +0.000 A 
BRANCH  25  26
ATOM     26  C   UNL     1       6.152   4.668  18.984  0.00  0.00    +0.000 C 
ATOM     27  O   UNL     1       6.700   5.418  19.775  0.00  0.00    +0.000 OA
BRANCH  26  28
ATOM     28  O   UNL     1       5.611   3.488  19.373  0.00  0.00    +0.000 OA
ATOM     29  H   UNL     1       5.515   2.851  18.646  0.00  0.00    +0.000 HD
ENDBRANCH  26  28
ENDBRANCH  25  26
ENDBRANCH  20  21
ENDBRANCH   6  20
TORSDOF 7
ENDMDL
MODEL 3
REMARK VINA RESULT:      -7.9      1.686      2.407
REMARK  Name = 
REMARK  7 active torsions:
REMARK  status: ('A' for Active; 'I' for Inactive)
REMARK    1  A    between atoms: N_3  and  C_4
REMARK    2  A    between atoms: C_4  and  C_5
REMARK    3  A    between atoms: C_10  and  C_11
REMARK    4  A    between atoms: C_11  and  N_12
REMARK    5  A    between atoms: C_16  and  C_17
REMARK    6  A    between atoms: C_17  and  O_19
REMARK    7  A    between atoms: N_20  and  C_21
REMARK                            x       y       z     vdW  Elec       q    Type
REMARK                         _______ _______ _______ _____ _____    ______ ____
ROOT
ATOM      1  C   UNL     1       4.513   6.066  18.047  0.00  0.00    +0.000 A 
ATOM      2  C   UNL     1       5.185   7.006  17.221  0.00  0.00    +0.000 A 
ATOM      3  C   UNL     1       6.570   7.008  17.068  0.00  0.00    +0.000 A 
ATOM      4  C   UNL     1       7.331   6.074  17.751  0.00  0.00    +0.000 A 
ATOM      5  C   UNL     1       6.702   5.152  18.585  0.00  0.00    +0.000 A 
ATOM      6  C   UNL     1       5.294   5.116  18.749  0.00  0.00    +0.000 A 
ENDROOT
BRANCH   1   7
ATOM      7  C   UNL     1       2.999   6.216  18.030  0.00  0.00    +0.000 C 
BRANCH   7  10
ATOM      8  O   UNL     1       1.740   7.557  20.167  0.00  0.00    +0.000 OA
ATOM      9  C   UNL     1       1.886   8.129  19.095  0.00  0.00    +0.000 C 
ATOM     10  N   UNL     1       2.466   7.553  17.995  0.00  0.00    +0.000 N 
ATOM     11  N   UNL     1       1.553   9.444  18.862  0.00  0.00    +0.000 N 
ATOM     12  H   UNL     1       2.417   8.026  17.106  0.00  0.00    +0.000 HD
ATOM     13  H   UNL     1       1.266   9.630  17.916  0.00  0.00    +0.000 HD
BRANCH  11  14
ATOM     14  C   UNL     1       0.903  10.252  19.899  0.00  0.00    +0.000 C 
ATOM     15  C   UNL     1       1.233  11.751  19.799  0.00  0.00    +0.000 C 
ATOM     16  C   UNL     1       0.602  12.406  18.574  0.00  0.00    +0.000 C 
ATOM     17  C   UNL     1      -0.911  12.236  18.577  0.00  0.00    +0.000 C 
ATOM     18  C   UNL     1      -1.323  10.773  18.714  0.00  0.00    +0.000 C 
ATOM     19  C   UNL     1      -0.625  10.058  19.874  0.00  0.00    +0.000 C 
ENDBRANCH  11  14
ENDBRANCH   7  10
ENDBRANCH   1   7
BRANCH   6  20
ATOM     20  C   UNL     1       4.773   4.057  19.708  0.00  0.00    +0.000 C 
BRANCH  20  21
ATOM     21  N   UNL     1       3.655   3.265  19.168  0.00  0.00    +0.000 N 
ATOM     22  C   UNL     1       3.715   2.481  18.035  0.00  0.00    +0.000 A 
ATOM     23  C   UNL     1       2.458   2.000  17.762  0.00  0.00    +0.000 A 
ATOM     24  C   UNL     1       1.618   2.434  18.804  0.00  0.00    +0.000 A 
ATOM     25  C   UNL     1       2.383   3.143  19.727  0.00  0.00    +0.000 A 
BRANCH  25  26
ATOM     26  C   UNL     1       1.956   3.701  20.994  0.00  0.00    +0.000 C 
ATOM     27  O   UNL     1       2.192   3.244  22.102  0.00  0.00    +0.000 OA
BRANCH  26  28
ATOM     28  O   UNL     1       1.204   4.815  20.825  0.00  0.00    +0.000 OA
ATOM     29  H   UNL     1       1.583   5.441  20.186  0.00  0.00    +0.000 HD
ENDBRANCH  26  28
ENDBRANCH  25  26
ENDBRANCH  20  21
ENDBRANCH   6  20
TORSDOF 7
ENDMDL
MODEL 4
REMARK VINA RESULT:      -7.9      1.455      1.893
REMARK  Name = 
REMARK  7 active torsions:
REMARK  status: ('A' for Active; 'I' for Inactive)
REMARK    1  A    between atoms: N_3  and  C_4
REMARK    2  A    between atoms: C_4  and  C_5
REMARK    3  A    between atoms: C_10  and  C_11
REMARK    4  A    between atoms: C_11  and  N_12
REMARK    5  A    between atoms: C_16  and  C_17
REMARK    6  A    between atoms: C_17  and  O_19
REMARK    7  A    between atoms: N_20  and  C_21
REMARK                            x       y       z     vdW  Elec       q    Type
REMARK                         _______ _______ _______ _____ _____    ______ ____
ROOT
ATOM      1  C   UNL     1       4.132   5.883  17.986  0.00  0.00    +0.000 A 
ATOM      2  C   UNL     1       4.509   6.733  16.912  0.00  0.00    +0.000 A 
ATOM      3  C   UNL     1       5.155   6.253  15.774  0.00  0.00    +0.000 A 
ATOM      4  C   UNL     1       5.458   4.905  15.681  0.00  0.00    +0.000 A 
ATOM      5  C   UNL     1       5.118   4.050  16.728  0.00  0.00    +0.000 A 
ATOM      6  C   UNL     1       4.448   4.506  17.890  0.00  0.00    +0.000 A 
ENDROOT
BRANCH   1   7
ATOM      7  C   UNL     1       3.398   6.608  19.104  0.00  0.00    +0.000 C 
BRANCH   7  10
ATOM      8  O   UNL     1       1.679   8.011  20.842  0.00  0.00    +0.000 OA
ATOM      9  C   UNL     1       1.692   8.288  19.651  0.00  0.00    +0.000 C 
ATOM     10  N   UNL     1       2.477   7.649  18.727  0.00  0.00    +0.000 N 
ATOM     11  N   UNL     1       0.978   9.318  19.081  0.00  0.00    +0.000 N 
ATOM     12  H   UNL     1       2.328   7.823  17.745  0.00  0.00    +0.000 HD
ATOM     13  H   UNL     1       0.695   9.142  18.132  0.00  0.00    +0.000 HD
BRANCH  11  14
ATOM     14  C   UNL     1       0.057  10.130  19.883  0.00  0.00    +0.000 C 
ATOM     15  C   UNL     1       0.662  11.471  20.332  0.00  0.00    +0.000 C 
ATOM     16  C   UNL     1       0.860  12.439  19.170  0.00  0.00    +0.000 C 
ATOM     17  C   UNL     1      -0.453  12.709  18.448  0.00  0.00    +0.000 C 
ATOM     18  C   UNL     1      -1.138  11.420  18.004  0.00  0.00    +0.000 C 
ATOM     19  C   UNL     1      -1.258  10.385  19.125  0.00  0.00    +0.000 C 
ENDBRANCH  11  14
ENDBRANCH   7  10
ENDBRANCH   1   7
BRANCH   6  20
ATOM     20  C   UNL     1       4.167   3.445  18.943  0.00  0.00    +0.000 C 
BRANCH  20  21
ATOM     21  N   UNL     1       2.754   3.035  19.011  0.00  0.00    +0.000 N 
ATOM     22  C   UNL     1       2.071   2.377  18.010  0.00  0.00    +0.000 A 
ATOM     23  C   UNL     1       0.750   2.277  18.366  0.00  0.00    +0.000 A 
ATOM     24  C   UNL     1       0.632   2.815  19.660  0.00  0.00    +0.000 A 
ATOM     25  C   UNL     1       1.897   3.203  20.097  0.00  0.00    +0.000 A 
BRANCH  25  26
ATOM     26  C   UNL     1       2.265   3.729  21.396  0.00  0.00    +0.000 C 
ATOM     27  O   UNL     1       2.450   3.079  22.414  0.00  0.00    +0.000 OA
BRANCH  26  28
ATOM     28  O   UNL     1       2.357   5.080  21.384  0.00  0.00    +0.000 OA
ATOM     29  H   UNL     1       2.719   5.448  22.207  0.00  0.00    +0.000 HD
ENDBRANCH  26  28
ENDBRANCH  25  26
ENDBRANCH  20  21
ENDBRANCH   6  20
TORSDOF 7
ENDMDL
MODEL 5
REMARK VINA RESULT:      -7.9      2.328      4.367
REMARK  Name = 
REMARK  7 active torsions:
REMARK  status: ('A' for Active; 'I' for Inactive)
REMARK    1  A    between atoms: N_3  and  C_4
REMARK    2  A    between atoms: C_4  and  C_5
REMARK    3  A    between atoms: C_10  and  C_11
REMARK    4  A    between atoms: C_11  and  N_12
REMARK    5  A    between atoms: C_16  and  C_17
REMARK    6  A    between atoms: C_17  and  O_19
REMARK    7  A    between atoms: N_20  and  C_21
REMARK                            x       y       z     vdW  Elec       q    Type
REMARK                         _______ _______ _______ _____ _____    ______ ____
ROOT
ATOM      1  C   UNL     1       2.982   5.186  19.072  0.00  0.00    +0.000 A 
ATOM      2  C   UNL     1       1.656   4.791  19.390  0.00  0.00    +0.000 A 
ATOM      3  C   UNL     1       1.361   3.545  19.943  0.00  0.00    +0.000 A 
ATOM      4  C   UNL     1       2.387   2.648  20.182  0.00  0.00    +0.000 A 
ATOM      5  C   UNL     1       3.697   2.999  19.862  0.00  0.00    +0.000 A 
ATOM      6  C   UNL     1       4.029   4.262  19.313  0.00  0.00    +0.000 A 
ENDROOT
BRANCH   1   7
ATOM      7  C   UNL     1       3.080   6.602  18.524  0.00  0.00    +0.000 C 
BRANCH   7  10
ATOM      8  O   UNL     1       2.147   8.981  17.336  0.00  0.00    +0.000 OA
ATOM      9  C   UNL     1       1.867   8.737  18.502  0.00  0.00    +0.000 C 
ATOM     10  N   UNL     1       2.291   7.618  19.170  0.00  0.00    +0.000 N 
ATOM     11  N   UNL     1       1.038   9.509  19.284  0.00  0.00    +0.000 N 
ATOM     12  H   UNL     1       2.152   7.555  20.167  0.00  0.00    +0.000 HD
ATOM     13  H   UNL     1       1.272   9.496  20.262  0.00  0.00    +0.000 HD
BRANCH  11  14
ATOM     14  C   UNL     1       0.478  10.766  18.776  0.00  0.00    +0.000 C 
ATOM     15  C   UNL     1      -0.939  11.057  19.298  0.00  0.00    +0.000 C 
ATOM     16  C   UNL     1      -0.954  11.390  20.787  0.00  0.00    +0.000 C 
ATOM     17  C   UNL     1      -0.061  12.586  21.093  0.00  0.00    +0.000 C 
ATOM     18  C   UNL     1       1.358  12.391  20.568  0.00  0.00    +0.000 C 
ATOM     19  C   UNL     1       1.403  11.954  19.102  0.00  0.00    +0.000 C 
ENDBRANCH  11  14
ENDBRANCH   7  10
ENDBRANCH   1   7
BRANCH   6  20
ATOM     20  C   UNL     1       5.504   4.477  19.007  0.00  0.00    +0.000 C 
BRANCH  20  21
ATOM     21  N   UNL     1       5.804   4.576  17.568  0.00  0.00    +0.000 N 
ATOM     22  C   UNL     1       5.223   3.806  16.583  0.00  0.00    +0.000 A 
ATOM     23  C   UNL     1       5.838   4.078  15.387  0.00  0.00    +0.000 A 
ATOM     24  C   UNL     1       6.768   5.105  15.629  0.00  0.00    +0.000 A 
ATOM     25  C   UNL     1       6.681   5.478  16.968  0.00  0.00    +0.000 A 
BRANCH  25  26
ATOM     26  C   UNL     1       7.389   6.549  17.640  0.00  0.00    +0.000 C 
ATOM     27  O   UNL     1       8.014   6.458  18.686  0.00  0.00    +0.000 OA
BRANCH  26  28
ATOM     28  O   UNL     1       7.258   7.727  16.985  0.00  0.00    +0.000 OA
ATOM     29  H   UNL     1       6.332   7.986  16.842  0.00  0.00    +0.000 HD
ENDBRANCH  26  28
ENDBRANCH  25  26
ENDBRANCH  20  21
ENDBRANCH   6  20
TORSDOF 7
ENDMDL
MODEL 6
REMARK VINA RESULT:      -7.9      3.494      7.369
REMARK  Name = 
REMARK  7 active torsions:
REMARK  status: ('A' for Active; 'I' for Inactive)
REMARK    1  A    between atoms: N_3  and  C_4
REMARK    2  A    between atoms: C_4  and  C_5
REMARK    3  A    between atoms: C_10  and  C_11
REMARK    4  A    between atoms: C_11  and  N_12
REMARK    5  A    between atoms: C_16  and  C_17
REMARK    6  A    between atoms: C_17  and  O_19
REMARK    7  A    between atoms: N_20  and  C_21
REMARK                            x       y       z     vdW  Elec       q    Type
REMARK                         _______ _______ _______ _____ _____    ______ ____
ROOT
ATOM      1  C   UNL     1       4.459   5.429  17.452  0.00  0.00    +0.000 A 
ATOM      2  C   UNL     1       4.696   6.826  17.349  0.00  0.00    +0.000 A 
ATOM      3  C   UNL     1       3.694   7.769  17.573  0.00  0.00    +0.000 A 
ATOM      4  C   UNL     1       2.417   7.342  17.895  0.00  0.00    +0.000 A 
ATOM      5  C   UNL     1       2.150   5.978  17.983  0.00  0.00    +0.000 A 
ATOM      6  C   UNL     1       3.150   4.996  17.775  0.00  0.00    +0.000 A 
ENDROOT
BRANCH   1   7
ATOM      7  C   UNL     1       5.702   4.584  17.213  0.00  0.00    +0.000 C 
BRANCH   7  10
ATOM      8  O   UNL     1       6.257   5.480  14.598  0.00  0.00    +0.000 OA
ATOM      9  C   UNL     1       6.031   4.294  14.796  0.00  0.00    +0.000 C 
ATOM     10  N   UNL     1       5.731   3.769  16.027  0.00  0.00    +0.000 N 
ATOM     11  N   UNL     1       6.110   3.313  13.834  0.00  0.00    +0.000 N 
ATOM     12  H   UNL     1       5.407   2.816  16.092  0.00  0.00    +0.000 HD
ATOM     13  H   UNL     1       5.470   2.550  13.976  0.00  0.00    +0.000 HD
BRANCH  11  14
ATOM     14  C   UNL     1       6.403   3.650  12.437  0.00  0.00    +0.000 C 
ATOM     15  C   UNL     1       7.043   2.492  11.653  0.00  0.00    +0.000 C 
ATOM     16  C   UNL     1       6.066   1.346  11.406  0.00  0.00    +0.000 C 
ATOM     17  C   UNL     1       4.831   1.827  10.655  0.00  0.00    +0.000 C 
ATOM     18  C   UNL     1       4.160   3.007  11.352  0.00  0.00    +0.000 C 
ATOM     19  C   UNL     1       5.136   4.131  11.707  0.00  0.00    +0.000 C 
ENDBRANCH  11  14
ENDBRANCH   7  10
ENDBRANCH   1   7
BRANCH   6  20
ATOM     20  C   UNL     1       2.686   3.552  17.893  0.00  0.00    +0.000 C 
BRANCH  20  21
ATOM     21  N   UNL     1       2.333   3.152  19.266  0.00  0.00    +0.000 N 
ATOM     22  C   UNL     1       1.047   3.050  19.755  0.00  0.00    +0.000 A 
ATOM     23  C   UNL     1       1.105   2.785  21.100  0.00  0.00    +0.000 A 
ATOM     24  C   UNL     1       2.464   2.637  21.431  0.00  0.00    +0.000 A 
ATOM     25  C   UNL     1       3.222   2.775  20.271  0.00  0.00    +0.000 A 
BRANCH  25  26
ATOM     26  C   UNL     1       4.655   2.617  20.122  0.00  0.00    +0.000 C 
ATOM     27  O   UNL     1       5.493   3.502  20.208  0.00  0.00    +0.000 OA
BRANCH  26  28
ATOM     28  O   UNL     1       4.992   1.339  19.828  0.00  0.00    +0.000 OA
ATOM     29  H   UNL     1       5.946   1.215  19.690  0.00  0.00    +0.000 HD
ENDBRANCH  26  28
ENDBRANCH  25  26
ENDBRANCH  20  21
ENDBRANCH   6  20
TORSDOF 7
ENDMDL
MODEL 7
REMARK VINA RESULT:      -7.8      2.441      3.175
REMARK  Name = 
REMARK  7 active torsions:
REMARK  status: ('A' for Active; 'I' for Inactive)
REMARK    1  A    between atoms: N_3  and  C_4
REMARK    2  A    between atoms: C_4  and  C_5
REMARK    3  A    between atoms: C_10  and  C_11
REMARK    4  A    between atoms: C_11  and  N_12
REMARK    5  A    between atoms: C_16  and  C_17
REMARK    6  A    between atoms: C_17  and  O_19
REMARK    7  A    between atoms: N_20  and  C_21
REMARK                            x       y       z     vdW  Elec       q    Type
REMARK                         _______ _______ _______ _____ _____    ______ ____
ROOT
ATOM      1  C   UNL     1       1.813   7.673  20.005  0.00  0.00    +0.000 A 
ATOM      2  C   UNL     1       1.859   8.731  19.058  0.00  0.00    +0.000 A 
ATOM      3  C   UNL     1       2.499   8.601  17.827  0.00  0.00    +0.000 A 
ATOM      4  C   UNL     1       3.127   7.409  17.509  0.00  0.00    +0.000 A 
ATOM      5  C   UNL     1       3.117   6.361  18.427  0.00  0.00    +0.000 A 
ATOM      6  C   UNL     1       2.462   6.458  19.680  0.00  0.00    +0.000 A 
ENDROOT
BRANCH   1   7
ATOM      7  C   UNL     1       1.023   8.016  21.260  0.00  0.00    +0.000 C 
BRANCH   7  10
ATOM      8  O   UNL     1       0.442   9.750  23.404  0.00  0.00    +0.000 OA
ATOM      9  C   UNL     1      -0.045   9.966  22.303  0.00  0.00    +0.000 C 
ATOM     10  N   UNL     1       0.163   9.169  21.207  0.00  0.00    +0.000 N 
ATOM     11  N   UNL     1      -0.809  11.067  21.989  0.00  0.00    +0.000 N 
ATOM     12  H   UNL     1      -0.387   9.318  20.376  0.00  0.00    +0.000 HD
ATOM     13  H   UNL     1      -1.505  10.893  21.284  0.00  0.00    +0.000 HD
BRANCH  11  14
ATOM     14  C   UNL     1      -1.171  12.050  23.016  0.00  0.00    +0.000 C 
ATOM     15  C   UNL     1      -0.776  13.490  22.646  0.00  0.00    +0.000 C 
ATOM     16  C   UNL     1      -1.614  14.046  21.499  0.00  0.00    +0.000 C 
ATOM     17  C   UNL     1      -3.099  14.013  21.834  0.00  0.00    +0.000 C 
ATOM     18  C   UNL     1      -3.561  12.621  22.252  0.00  0.00    +0.000 C 
ATOM     19  C   UNL     1      -2.677  11.992  23.331  0.00  0.00    +0.000 C 
ENDBRANCH  11  14
ENDBRANCH   7  10
ENDBRANCH   1   7
BRANCH   6  20
ATOM     20  C   UNL     1       2.561   5.227  20.568  0.00  0.00    +0.000 C 
BRANCH  20  21
ATOM     21  N   UNL     1       2.192   3.973  19.889  0.00  0.00    +0.000 N 
ATOM     22  C   UNL     1       0.924   3.654  19.449  0.00  0.00    +0.000 A 
ATOM     23  C   UNL     1       0.926   2.361  18.989  0.00  0.00    +0.000 A 
ATOM     24  C   UNL     1       2.252   1.899  19.073  0.00  0.00    +0.000 A 
ATOM     25  C   UNL     1       3.055   2.934  19.547  0.00  0.00    +0.000 A 
BRANCH  25  26
ATOM     26  C   UNL     1       4.495   2.937  19.713  0.00  0.00    +0.000 C 
ATOM     27  O   UNL     1       5.285   3.684  19.156  0.00  0.00    +0.000 OA
BRANCH  26  28
ATOM     28  O   UNL     1       4.906   1.963  20.560  0.00  0.00    +0.000 OA
ATOM     29  H   UNL     1       5.840   2.045  20.815  0.00  0.00    +0.000 HD
ENDBRANCH  26  28
ENDBRANCH  25  26
ENDBRANCH  20  21
ENDBRANCH   6  20
TORSDOF 7
ENDMDL
MODEL 8
REMARK VINA RESULT:      -7.8      2.427      4.250
REMARK  Name = 
REMARK  7 active torsions:
REMARK  status: ('A' for Active; 'I' for Inactive)
REMARK    1  A    between atoms: N_3  and  C_4
REMARK    2  A    between atoms: C_4  and  C_5
REMARK    3  A    between atoms: C_10  and  C_11
REMARK    4  A    between atoms: C_11  and  N_12
REMARK    5  A    between atoms: C_16  and  C_17
REMARK    6  A    between atoms: C_17  and  O_19
REMARK    7  A    between atoms: N_20  and  C_21
REMARK                            x       y       z     vdW  Elec       q    Type
REMARK                         _______ _______ _______ _____ _____    ______ ____
ROOT
ATOM      1  C   UNL     1       2.824   5.221  19.205  0.00  0.00    +0.000 A 
ATOM      2  C   UNL     1       1.931   5.155  20.307  0.00  0.00    +0.000 A 
ATOM      3  C   UNL     1       1.875   4.051  21.156  0.00  0.00    +0.000 A 
ATOM      4  C   UNL     1       2.705   2.968  20.919  0.00  0.00    +0.000 A 
ATOM      5  C   UNL     1       3.577   2.995  19.833  0.00  0.00    +0.000 A 
ATOM      6  C   UNL     1       3.667   4.109  18.961  0.00  0.00    +0.000 A 
ENDROOT
BRANCH   1   7
ATOM      7  C   UNL     1       2.750   6.535  18.442  0.00  0.00    +0.000 C 
BRANCH   7  10
ATOM      8  O   UNL     1       2.170   9.044  17.295  0.00  0.00    +0.000 OA
ATOM      9  C   UNL     1       1.918   8.845  18.476  0.00  0.00    +0.000 C 
ATOM     10  N   UNL     1       2.183   7.667  19.126  0.00  0.00    +0.000 N 
ATOM     11  N   UNL     1       1.276   9.743  19.299  0.00  0.00    +0.000 N 
ATOM     12  H   UNL     1       2.090   7.625  20.128  0.00  0.00    +0.000 HD
ATOM     13  H   UNL     1       1.558   9.687  20.263  0.00  0.00    +0.000 HD
BRANCH  11  14
ATOM     14  C   UNL     1       0.910  11.079  18.816  0.00  0.00    +0.000 C 
ATOM     15  C   UNL     1      -0.581  11.212  18.464  0.00  0.00    +0.000 C 
ATOM     16  C   UNL     1      -1.477  11.166  19.697  0.00  0.00    +0.000 C 
ATOM     17  C   UNL     1      -1.106  12.261  20.688  0.00  0.00    +0.000 C 
ATOM     18  C   UNL     1       0.374  12.222  21.059  0.00  0.00    +0.000 C 
ATOM     19  C   UNL     1       1.298  12.162  19.840  0.00  0.00    +0.000 C 
ENDBRANCH  11  14
ENDBRANCH   7  10
ENDBRANCH   1   7
BRANCH   6  20
ATOM     20  C   UNL     1       4.659   3.968  17.817  0.00  0.00    +0.000 C 
BRANCH  20  21
ATOM     21  N   UNL     1       5.803   4.891  17.904  0.00  0.00    +0.000 N 
ATOM     22  C   UNL     1       6.599   5.062  19.017  0.00  0.00    +0.000 A 
ATOM     23  C   UNL     1       7.475   6.092  18.782  0.00  0.00    +0.000 A 
ATOM     24  C   UNL     1       7.268   6.510  17.454  0.00  0.00    +0.000 A 
ATOM     25  C   UNL     1       6.291   5.701  16.880  0.00  0.00    +0.000 A 
BRANCH  25  26
ATOM     26  C   UNL     1       5.818   5.714  15.510  0.00  0.00    +0.000 C 
ATOM     27  O   UNL     1       6.037   4.864  14.661  0.00  0.00    +0.000 OA
BRANCH  26  28
ATOM     28  O   UNL     1       5.103   6.831  15.236  0.00  0.00    +0.000 OA
ATOM     29  H   UNL     1       4.175   6.648  15.012  0.00  0.00    +0.000 HD
ENDBRANCH  26  28
ENDBRANCH  25  26
ENDBRANCH  20  21
ENDBRANCH   6  20
TORSDOF 7
ENDMDL
MODEL 9
REMARK VINA RESULT:      -7.8      1.979      3.584
REMARK  Name = 
REMARK  7 active torsions:
REMARK  status: ('A' for Active; 'I' for Inactive)
REMARK    1  A    between atoms: N_3  and  C_4
REMARK    2  A    between atoms: C_4  and  C_5
REMARK    3  A    between atoms: C_10  and  C_11
REMARK    4  A    between atoms: C_11  and  N_12
REMARK    5  A    between atoms: C_16  and  C_17
REMARK    6  A    between atoms: C_17  and  O_19
REMARK    7  A    between atoms: N_20  and  C_21
REMARK                            x       y       z     vdW  Elec       q    Type
REMARK                         _______ _______ _______ _____ _____    ______ ____
ROOT
ATOM      1  C   UNL     1       2.169   5.112  19.498  0.00  0.00    +0.000 A 
ATOM      2  C   UNL     1       1.238   4.191  20.047  0.00  0.00    +0.000 A 
ATOM      3  C   UNL     1       0.976   2.955  19.458  0.00  0.00    +0.000 A 
ATOM      4  C   UNL     1       1.631   2.607  18.289  0.00  0.00    +0.000 A 
ATOM      5  C   UNL     1       2.535   3.498  17.716  0.00  0.00    +0.000 A 
ATOM      6  C   UNL     1       2.832   4.755  18.299  0.00  0.00    +0.000 A 
ENDROOT
BRANCH   1   7
ATOM      7  C   UNL     1       2.333   6.377  20.328  0.00  0.00    +0.000 C 
BRANCH   7  10
ATOM      8  O   UNL     1       1.231   8.517  21.793  0.00  0.00    +0.000 OA
ATOM      9  C   UNL     1       1.315   8.598  20.575  0.00  0.00    +0.000 C 
ATOM     10  N   UNL     1       1.816   7.602  19.777  0.00  0.00    +0.000 N 
ATOM     11  N   UNL     1       0.985   9.715  19.842  0.00  0.00    +0.000 N 
ATOM     12  H   UNL     1       1.716   7.673  18.777  0.00  0.00    +0.000 HD
ATOM     13  H   UNL     1       0.640   9.510  18.920  0.00  0.00    +0.000 HD
BRANCH  11  14
ATOM     14  C   UNL     1       0.413  10.900  20.492  0.00  0.00    +0.000 C 
ATOM     15  C   UNL     1       1.248  12.173  20.279  0.00  0.00    +0.000 C 
ATOM     16  C   UNL     1       1.203  12.665  18.835  0.00  0.00    +0.000 C 
ATOM     17  C   UNL     1      -0.228  12.934  18.389  0.00  0.00    +0.000 C 
ATOM     18  C   UNL     1      -1.133  11.726  18.607  0.00  0.00    +0.000 C 
ATOM     19  C   UNL     1      -1.032  11.144  20.019  0.00  0.00    +0.000 C 
ENDBRANCH  11  14
ENDBRANCH   7  10
ENDBRANCH   1   7
BRANCH   6  20
ATOM     20  C   UNL     1       3.830   5.612  17.535  0.00  0.00    +0.000 C 
BRANCH  20  21
ATOM     21  N   UNL     1       5.235   5.344  17.885  0.00  0.00    +0.000 N 
ATOM     22  C   UNL     1       5.791   5.538  19.132  0.00  0.00    +0.000 A 
ATOM     23  C   UNL     1       7.143   5.312  19.055  0.00  0.00    +0.000 A 
ATOM     24  C   UNL     1       7.413   4.887  17.742  0.00  0.00    +0.000 A 
ATOM     25  C   UNL     1       6.211   4.819  17.040  0.00  0.00    +0.000 A 
BRANCH  25  26
ATOM     26  C   UNL     1       5.999   4.351  15.685  0.00  0.00    +0.000 C 
ATOM     27  O   UNL     1       5.804   5.048  14.702  0.00  0.00    +0.000 OA
BRANCH  26  28
ATOM     28  O   UNL     1       6.002   2.999  15.614  0.00  0.00    +0.000 OA
ATOM     29  H   UNL     1       5.912   2.662  14.706  0.00  0.00    +0.000 HD
ENDBRANCH  26  28
ENDBRANCH  25  26
ENDBRANCH  20  21
ENDBRANCH   6  20
TORSDOF 7
ENDMDL
