MODEL 1
REMARK VINA RESULT:      -8.0      0.000      0.000
REMARK  Name = 
REMARK  6 active torsions:
REMARK  status: ('A' for Active; 'I' for Inactive)
REMARK    1  A    between atoms: C_1  and  C_2
REMARK    2  A    between atoms: C_4  and  N_5
REMARK    3  A    between atoms: N_8  and  C_9
REMARK    4  A    between atoms: C_12  and  N_13
REMARK    5  A    between atoms: N_13  and  C_14
REMARK    6  A    between atoms: N_13  and  C_15
REMARK                            x       y       z     vdW  Elec       q    Type
REMARK                         _______ _______ _______ _____ _____    ______ ____
ROOT
ATOM      1  N   UNL     1       3.358   7.127  17.500  0.00  0.00    +0.000 N 
ATOM      2  C   UNL     1       2.447   7.919  18.172  0.00  0.00    +0.000 C 
ATOM      3  O   UNL     1       2.317   7.821  19.378  0.00  0.00    +0.000 OA
ATOM      4  N   UNL     1       1.729   8.892  17.533  0.00  0.00    +0.000 N 
ATOM      5  H   UNL     1       3.437   7.304  16.491  0.00  0.00    +0.000 HD
ATOM      6  H   UNL     1       1.938   9.118  16.547  0.00  0.00    +0.000 HD
ENDROOT
BRANCH   1  10
ATOM      7  C   UNL     1       7.916   5.734  19.097  0.00  0.00    +0.000 C 
ATOM      8  C   UNL     1       6.468   5.431  18.865  0.00  0.00    +0.000 A 
ATOM      9  C   UNL     1       5.612   6.390  18.336  0.00  0.00    +0.000 A 
ATOM     10  C   UNL     1       4.232   6.129  18.108  0.00  0.00    +0.000 A 
ATOM     11  C   UNL     1       3.753   4.829  18.502  0.00  0.00    +0.000 A 
ATOM     12  C   UNL     1       2.401   4.415  18.403  0.00  0.00    +0.000 A 
ATOM     13  C   UNL     1       2.015   3.126  18.811  0.00  0.00    +0.000 A 
ATOM     14 CL   UNL     1       0.334   2.631  18.710  0.00  0.00    +0.000 Cl
ATOM     15  C   UNL     1       2.958   2.224  19.300  0.00  0.00    +0.000 A 
ATOM     16  C   UNL     1       4.289   2.603  19.406  0.00  0.00    +0.000 A 
ATOM     17  C   UNL     1       4.689   3.886  19.030  0.00  0.00    +0.000 A 
ATOM     18  N   UNL     1       5.992   4.211  19.182  0.00  0.00    +0.000 NA
ENDBRANCH   1  10
BRANCH   4  19
ATOM     19  C   UNL     1       0.772   9.694  18.245  0.00  0.00    +0.000 A 
ATOM     20  C   UNL     1      -0.586   9.644  17.928  0.00  0.00    +0.000 A 
ATOM     21  C   UNL     1      -1.508  10.481  18.577  0.00  0.00    +0.000 A 
ATOM     22  C   UNL     1      -1.110  11.387  19.602  0.00  0.00    +0.000 A 
ATOM     23  C   UNL     1       0.269  11.394  19.927  0.00  0.00    +0.000 A 
ATOM     24  C   UNL     1       1.183  10.578  19.264  0.00  0.00    +0.000 A 
BRANCH  22  25
ATOM     25  N   UNL     1      -2.061  12.259  20.287  0.00  0.00    +0.000 N 
ATOM     26  C   UNL     1      -1.742  12.997  21.505  0.00  0.00    +0.000 C 
ATOM     27  C   UNL     1      -3.432  12.482  19.824  0.00  0.00    +0.000 C 
ENDBRANCH  22  25
ENDBRANCH   4  19
TORSDOF 3
ENDMDL
MODEL 2
REMARK VINA RESULT:      -7.9      2.690      3.660
REMARK  Name = 
REMARK  6 active torsions:
REMARK  status: ('A' for Active; 'I' for Inactive)
REMARK    1  A    between atoms: C_1  and  C_2
REMARK    2  A    between atoms: C_4  and  N_5
REMARK    3  A    between atoms: N_8  and  C_9
REMARK    4  A    between atoms: C_12  and  N_13
REMARK    5  A    between atoms: N_13  and  C_14
REMARK    6  A    between atoms: N_13  and  C_15
REMARK                            x       y       z     vdW  Elec       q    Type
REMARK                         _______ _______ _______ _____ _____    ______ ____
ROOT
ATOM      1  N   UNL     1       2.504   7.296  20.322  0.00  0.00    +0.000 N 
ATOM      2  C   UNL     1       1.399   8.020  20.729  0.00  0.00    +0.000 C 
ATOM      3  O   UNL     1       0.333   7.466  20.913  0.00  0.00    +0.000 OA
ATOM      4  N   UNL     1       1.481   9.353  21.025  0.00  0.00    +0.000 N 
ATOM      5  H   UNL     1       3.375   7.834  20.234  0.00  0.00    +0.000 HD
ATOM      6  H   UNL     1       2.404   9.817  21.047  0.00  0.00    +0.000 HD
ENDROOT
BRANCH   1  10
ATOM      7  C   UNL     1       1.316   2.613  21.711  0.00  0.00    +0.000 C 
ATOM      8  C   UNL     1       1.983   3.562  20.761  0.00  0.00    +0.000 A 
ATOM      9  C   UNL     1       1.915   4.936  20.959  0.00  0.00    +0.000 A 
ATOM     10  C   UNL     1       2.536   5.859  20.072  0.00  0.00    +0.000 A 
ATOM     11  C   UNL     1       3.201   5.296  18.925  0.00  0.00    +0.000 A 
ATOM     12  C   UNL     1       3.823   6.064  17.909  0.00  0.00    +0.000 A 
ATOM     13  C   UNL     1       4.451   5.435  16.819  0.00  0.00    +0.000 A 
ATOM     14 CL   UNL     1       5.195   6.393  15.552  0.00  0.00    +0.000 Cl
ATOM     15  C   UNL     1       4.493   4.045  16.730  0.00  0.00    +0.000 A 
ATOM     16  C   UNL     1       3.893   3.269  17.712  0.00  0.00    +0.000 A 
ATOM     17  C   UNL     1       3.243   3.874  18.788  0.00  0.00    +0.000 A 
ATOM     18  N   UNL     1       2.650   3.070  19.700  0.00  0.00    +0.000 NA
ENDBRANCH   1  10
BRANCH   4  19
ATOM     19  C   UNL     1       0.318  10.095  21.431  0.00  0.00    +0.000 A 
ATOM     20  C   UNL     1      -0.352  10.928  20.534  0.00  0.00    +0.000 A 
ATOM     21  C   UNL     1      -1.445  11.704  20.952  0.00  0.00    +0.000 A 
ATOM     22  C   UNL     1      -1.937  11.654  22.289  0.00  0.00    +0.000 A 
ATOM     23  C   UNL     1      -1.258  10.775  23.170  0.00  0.00    +0.000 A 
ATOM     24  C   UNL     1      -0.160  10.024  22.756  0.00  0.00    +0.000 A 
BRANCH  22  25
ATOM     25  N   UNL     1      -3.075  12.454  22.733  0.00  0.00    +0.000 N 
ATOM     26  C   UNL     1      -3.470  12.581  24.132  0.00  0.00    +0.000 C 
ATOM     27  C   UNL     1      -3.937  13.209  21.823  0.00  0.00    +0.000 C 
ENDBRANCH  22  25
ENDBRANCH   4  19
TORSDOF 3
ENDMDL
MODEL 3
REMARK VINA RESULT:      -7.7      5.643      7.141
REMARK  Name = 
REMARK  6 active torsions:
REMARK  status: ('A' for Active; 'I' for Inactive)
REMARK    1  A    between atoms: C_1  and  C_2
REMARK    2  A    between atoms: C_4  and  N_5
REMARK    3  A    between atoms: N_8  and  C_9
REMARK    4  A    between atoms: C_12  and  N_13
REMARK    5  A    between atoms: N_13  and  C_14
REMARK    6  A    between atoms: N_13  and  C_15
REMARK                            x       y       z     vdW  Elec       q    Type
REMARK                         _______ _______ _______ _____ _____    ______ ____
ROOT
ATOM      1  N   UNL     1       7.597   6.223  18.144  0.00  0.00    +0.000 N 
ATOM      2  C   UNL     1       7.872   7.575  18.064  0.00  0.00    +0.000 C 
ATOM      3  O   UNL     1       7.391   8.250  17.174  0.00  0.00    +0.000 OA
ATOM      4  N   UNL     1       8.614   8.217  19.017  0.00  0.00    +0.000 N 
ATOM      5  H   UNL     1       8.007   5.736  18.951  0.00  0.00    +0.000 HD
ATOM      6  H   UNL     1       8.893   7.711  19.874  0.00  0.00    +0.000 HD
ENDROOT
BRANCH   1  10
ATOM      7  C   UNL     1       6.810   4.189  13.615  0.00  0.00    +0.000 C 
ATOM      8  C   UNL     1       6.342   4.497  15.004  0.00  0.00    +0.000 A 
ATOM      9  C   UNL     1       7.163   5.167  15.904  0.00  0.00    +0.000 A 
ATOM     10  C   UNL     1       6.745   5.470  17.229  0.00  0.00    +0.000 A 
ATOM     11  C   UNL     1       5.437   5.002  17.610  0.00  0.00    +0.000 A 
ATOM     12  C   UNL     1       4.880   5.163  18.903  0.00  0.00    +0.000 A 
ATOM     13  C   UNL     1       3.594   4.674  19.195  0.00  0.00    +0.000 A 
ATOM     14 CL   UNL     1       2.922   4.853  20.806  0.00  0.00    +0.000 Cl
ATOM     15  C   UNL     1       2.835   4.044  18.210  0.00  0.00    +0.000 A 
ATOM     16  C   UNL     1       3.356   3.875  16.936  0.00  0.00    +0.000 A 
ATOM     17  C   UNL     1       4.639   4.330  16.633  0.00  0.00    +0.000 A 
ATOM     18  N   UNL     1       5.108   4.113  15.383  0.00  0.00    +0.000 NA
ENDBRANCH   1  10
BRANCH   4  19
ATOM     19  C   UNL     1       8.905   9.620  18.909  0.00  0.00    +0.000 A 
ATOM     20  C   UNL     1       9.611  10.287  19.911  0.00  0.00    +0.000 A 
ATOM     21  C   UNL     1       9.832  11.672  19.834  0.00  0.00    +0.000 A 
ATOM     22  C   UNL     1       9.382  12.446  18.727  0.00  0.00    +0.000 A 
ATOM     23  C   UNL     1       8.697  11.738  17.708  0.00  0.00    +0.000 A 
ATOM     24  C   UNL     1       8.460  10.368  17.799  0.00  0.00    +0.000 A 
BRANCH  22  25
ATOM     25  N   UNL     1       9.611  13.886  18.635  0.00  0.00    +0.000 N 
ATOM     26  C   UNL     1      10.902  14.513  18.898  0.00  0.00    +0.000 C 
ATOM     27  C   UNL     1       8.570  14.849  18.273  0.00  0.00    +0.000 C 
ENDBRANCH  22  25
ENDBRANCH   4  19
TORSDOF 3
ENDMDL
MODEL 4
REMARK VINA RESULT:      -7.6      2.828      3.988
REMARK  Name = 
REMARK  6 active torsions:
REMARK  status: ('A' for Active; 'I' for Inactive)
REMARK    1  A    between atoms: C_1  and  C_2
REMARK    2  A    between atoms: C_4  and  N_5
REMARK    3  A    between atoms: N_8  and  C_9
REMARK    4  A    between atoms: C_12  and  N_13
REMARK    5  A    between atoms: N_13  and  C_14
REMARK    6  A    between atoms: N_13  and  C_15
REMARK                            x       y       z     vdW  Elec       q    Type
REMARK                         _______ _______ _______ _____ _____    ______ ____
ROOT
ATOM      1  N   UNL     1       2.650   6.382  20.645  0.00  0.00    +0.000 N 
ATOM      2  C   UNL     1       1.753   7.425  20.778  0.00  0.00    +0.000 C 
ATOM      3  O   UNL     1       0.826   7.543  20.000  0.00  0.00    +0.000 OA
ATOM      4  N   UNL     1       1.818   8.301  21.827  0.00  0.00    +0.000 N 
ATOM      5  H   UNL     1       3.376   6.330  21.370  0.00  0.00    +0.000 HD
ATOM      6  H   UNL     1       2.484   8.128  22.598  0.00  0.00    +0.000 HD
ENDROOT
BRANCH   1  10
ATOM      7  C   UNL     1       0.517   2.267  18.699  0.00  0.00    +0.000 C 
ATOM      8  C   UNL     1       1.586   3.317  18.675  0.00  0.00    +0.000 A 
ATOM      9  C   UNL     1       1.607   4.338  19.617  0.00  0.00    +0.000 A 
ATOM     10  C   UNL     1       2.609   5.348  19.616  0.00  0.00    +0.000 A 
ATOM     11  C   UNL     1       3.577   5.287  18.551  0.00  0.00    +0.000 A 
ATOM     12  C   UNL     1       4.610   6.239  18.359  0.00  0.00    +0.000 A 
ATOM     13  C   UNL     1       5.516   6.107  17.293  0.00  0.00    +0.000 A 
ATOM     14 CL   UNL     1       6.775   7.305  17.045  0.00  0.00    +0.000 Cl
ATOM     15  C   UNL     1       5.430   5.025  16.419  0.00  0.00    +0.000 A 
ATOM     16  C   UNL     1       4.430   4.078  16.585  0.00  0.00    +0.000 A 
ATOM     17  C   UNL     1       3.505   4.204  17.622  0.00  0.00    +0.000 A 
ATOM     18  N   UNL     1       2.534   3.268  17.720  0.00  0.00    +0.000 NA
ENDBRANCH   1  10
BRANCH   4  19
ATOM     19  C   UNL     1       0.887   9.390  21.941  0.00  0.00    +0.000 A 
ATOM     20  C   UNL     1       0.932  10.469  21.057  0.00  0.00    +0.000 A 
ATOM     21  C   UNL     1       0.067  11.564  21.214  0.00  0.00    +0.000 A 
ATOM     22  C   UNL     1      -0.909  11.610  22.251  0.00  0.00    +0.000 A 
ATOM     23  C   UNL     1      -0.955  10.486  23.114  0.00  0.00    +0.000 A 
ATOM     24  C   UNL     1      -0.080   9.413  22.968  0.00  0.00    +0.000 A 
BRANCH  22  25
ATOM     25  N   UNL     1      -1.816  12.742  22.421  0.00  0.00    +0.000 N 
ATOM     26  C   UNL     1      -1.607  13.799  23.406  0.00  0.00    +0.000 C 
ATOM     27  C   UNL     1      -3.029  12.934  21.624  0.00  0.00    +0.000 C 
ENDBRANCH  22  25
ENDBRANCH   4  19
TORSDOF 3
ENDMDL
MODEL 5
REMARK VINA RESULT:      -7.6      5.644      7.182
REMARK  Name = 
REMARK  6 active torsions:
REMARK  status: ('A' for Active; 'I' for Inactive)
REMARK    1  A    between atoms: C_1  and  C_2
REMARK    2  A    between atoms: C_4  and  N_5
REMARK    3  A    between atoms: N_8  and  C_9
REMARK    4  A    between atoms: C_12  and  N_13
REMARK    5  A    between atoms: N_13  and  C_14
REMARK    6  A    between atoms: N_13  and  C_15
REMARK                            x       y       z     vdW  Elec       q    Type
REMARK                         _______ _______ _______ _____ _____    ______ ____
ROOT
ATOM      1  N   UNL     1       7.562   6.185  18.127  0.00  0.00    +0.000 N 
ATOM      2  C   UNL     1       7.829   7.537  18.020  0.00  0.00    +0.000 C 
ATOM      3  O   UNL     1       7.327   8.195  17.130  0.00  0.00    +0.000 OA
ATOM      4  N   UNL     1       8.584   8.198  18.949  0.00  0.00    +0.000 N 
ATOM      5  H   UNL     1       7.991   5.713  18.933  0.00  0.00    +0.000 HD
ATOM      6  H   UNL     1       8.883   7.707  19.809  0.00  0.00    +0.000 HD
ENDROOT
BRANCH   1  10
ATOM      7  C   UNL     1       6.710   4.061  13.651  0.00  0.00    +0.000 C 
ATOM      8  C   UNL     1       6.262   4.397  15.041  0.00  0.00    +0.000 A 
ATOM      9  C   UNL     1       7.096   5.085  15.914  0.00  0.00    +0.000 A 
ATOM     10  C   UNL     1       6.697   5.414  17.239  0.00  0.00    +0.000 A 
ATOM     11  C   UNL     1       5.396   4.952  17.650  0.00  0.00    +0.000 A 
ATOM     12  C   UNL     1       4.858   5.138  18.948  0.00  0.00    +0.000 A 
ATOM     13  C   UNL     1       3.578   4.654  19.268  0.00  0.00    +0.000 A 
ATOM     14 CL   UNL     1       2.930   4.864  20.885  0.00  0.00    +0.000 Cl
ATOM     15  C   UNL     1       2.805   4.003  18.308  0.00  0.00    +0.000 A 
ATOM     16  C   UNL     1       3.307   3.810  17.029  0.00  0.00    +0.000 A 
ATOM     17  C   UNL     1       4.585   4.260  16.698  0.00  0.00    +0.000 A 
ATOM     18  N   UNL     1       5.035   4.018  15.446  0.00  0.00    +0.000 NA
ENDBRANCH   1  10
BRANCH   4  19
ATOM     19  C   UNL     1       8.866   9.601  18.814  0.00  0.00    +0.000 A 
ATOM     20  C   UNL     1       8.293  10.352  17.786  0.00  0.00    +0.000 A 
ATOM     21  C   UNL     1       8.625  11.706  17.615  0.00  0.00    +0.000 A 
ATOM     22  C   UNL     1       9.526  12.377  18.491  0.00  0.00    +0.000 A 
ATOM     23  C   UNL     1      10.067  11.599  19.545  0.00  0.00    +0.000 A 
ATOM     24  C   UNL     1       9.752  10.251  19.697  0.00  0.00    +0.000 A 
BRANCH  22  25
ATOM     25  N   UNL     1       9.875  13.786  18.324  0.00  0.00    +0.000 N 
ATOM     26  C   UNL     1       9.015  14.884  18.755  0.00  0.00    +0.000 C 
ATOM     27  C   UNL     1      11.121  14.243  17.707  0.00  0.00    +0.000 C 
ENDBRANCH  22  25
ENDBRANCH   4  19
TORSDOF 3
ENDMDL
MODEL 6
REMARK VINA RESULT:      -7.6      2.410      3.554
REMARK  Name = 
REMARK  6 active torsions:
REMARK  status: ('A' for Active; 'I' for Inactive)
REMARK    1  A    between atoms: C_1  and  C_2
REMARK    2  A    between atoms: C_4  and  N_5
REMARK    3  A    between atoms: N_8  and  C_9
REMARK    4  A    between atoms: C_12  and  N_13
REMARK    5  A    between atoms: N_13  and  C_14
REMARK    6  A    between atoms: N_13  and  C_15
REMARK                            x       y       z     vdW  Elec       q    Type
REMARK                         _______ _______ _______ _____ _____    ______ ____
ROOT
ATOM      1  N   UNL     1       2.398   7.193  17.550  0.00  0.00    +0.000 N 
ATOM      2  C   UNL     1       1.985   8.092  18.514  0.00  0.00    +0.000 C 
ATOM      3  O   UNL     1       2.193   7.871  19.692  0.00  0.00    +0.000 OA
ATOM      4  N   UNL     1       1.415   9.291  18.185  0.00  0.00    +0.000 N 
ATOM      5  H   UNL     1       2.223   7.478  16.578  0.00  0.00    +0.000 HD
ATOM      6  H   UNL     1       1.381   9.586  17.195  0.00  0.00    +0.000 HD
ENDROOT
BRANCH   1  10
ATOM      7  C   UNL     1       2.257   2.260  18.505  0.00  0.00    +0.000 C 
ATOM      8  C   UNL     1       3.031   3.525  18.295  0.00  0.00    +0.000 A 
ATOM      9  C   UNL     1       2.383   4.720  18.005  0.00  0.00    +0.000 A 
ATOM     10  C   UNL     1       3.094   5.935  17.799  0.00  0.00    +0.000 A 
ATOM     11  C   UNL     1       4.531   5.853  17.857  0.00  0.00    +0.000 A 
ATOM     12  C   UNL     1       5.401   6.947  17.621  0.00  0.00    +0.000 A 
ATOM     13  C   UNL     1       6.795   6.784  17.697  0.00  0.00    +0.000 A 
ATOM     14 CL   UNL     1       7.866   8.136  17.377  0.00  0.00    +0.000 Cl
ATOM     15  C   UNL     1       7.347   5.547  18.029  0.00  0.00    +0.000 A 
ATOM     16  C   UNL     1       6.518   4.460  18.267  0.00  0.00    +0.000 A 
ATOM     17  C   UNL     1       5.133   4.596  18.172  0.00  0.00    +0.000 A 
ATOM     18  N   UNL     1       4.374   3.496  18.384  0.00  0.00    +0.000 NA
ENDBRANCH   1  10
BRANCH   4  19
ATOM     19  C   UNL     1       0.976  10.207  19.202  0.00  0.00    +0.000 A 
ATOM     20  C   UNL     1      -0.054   9.866  20.079  0.00  0.00    +0.000 A 
ATOM     21  C   UNL     1      -0.528  10.789  21.026  0.00  0.00    +0.000 A 
ATOM     22  C   UNL     1       0.036  12.091  21.155  0.00  0.00    +0.000 A 
ATOM     23  C   UNL     1       1.103  12.399  20.274  0.00  0.00    +0.000 A 
ATOM     24  C   UNL     1       1.554  11.488  19.322  0.00  0.00    +0.000 A 
BRANCH  22  25
ATOM     25  N   UNL     1      -0.446  13.058  22.139  0.00  0.00    +0.000 N 
ATOM     26  C   UNL     1       0.068  14.420  22.247  0.00  0.00    +0.000 C 
ATOM     27  C   UNL     1      -1.493  12.761  23.118  0.00  0.00    +0.000 C 
ENDBRANCH  22  25
ENDBRANCH   4  19
TORSDOF 3
ENDMDL
MODEL 7
REMARK VINA RESULT:      -7.5      2.360      3.662
REMARK  Name = 
REMARK  6 active torsions:
REMARK  status: ('A' for Active; 'I' for Inactive)
REMARK    1  A    between atoms: C_1  and  C_2
REMARK    2  A    between atoms: C_4  and  N_5
REMARK    3  A    between atoms: N_8  and  C_9
REMARK    4  A    between atoms: C_12  and  N_13
REMARK    5  A    between atoms: N_13  and  C_14
REMARK    6  A    between atoms: N_13  and  C_15
REMARK                            x       y       z     vdW  Elec       q    Type
REMARK                         _______ _______ _______ _____ _____    ______ ____
ROOT
ATOM      1  N   UNL     1       2.321   7.420  17.494  0.00  0.00    +0.000 N 
ATOM      2  C   UNL     1       1.878   8.341  18.424  0.00  0.00    +0.000 C 
ATOM      3  O   UNL     1       1.986   8.116  19.614  0.00  0.00    +0.000 OA
ATOM      4  N   UNL     1       1.389   9.563  18.051  0.00  0.00    +0.000 N 
ATOM      5  H   UNL     1       2.233   7.708  16.511  0.00  0.00    +0.000 HD
ATOM      6  H   UNL     1       1.443   9.855  17.061  0.00  0.00    +0.000 HD
ENDROOT
BRANCH   1  10
ATOM      7  C   UNL     1       1.877   2.539  18.613  0.00  0.00    +0.000 C 
ATOM      8  C   UNL     1       2.727   3.749  18.372  0.00  0.00    +0.000 A 
ATOM      9  C   UNL     1       2.155   4.970  18.032  0.00  0.00    +0.000 A 
ATOM     10  C   UNL     1       2.939   6.133  17.796  0.00  0.00    +0.000 A 
ATOM     11  C   UNL     1       4.367   5.970  17.879  0.00  0.00    +0.000 A 
ATOM     12  C   UNL     1       5.303   7.002  17.619  0.00  0.00    +0.000 A 
ATOM     13  C   UNL     1       6.684   6.760  17.722  0.00  0.00    +0.000 A 
ATOM     14 CL   UNL     1       7.836   8.036  17.372  0.00  0.00    +0.000 Cl
ATOM     15  C   UNL     1       7.157   5.506  18.104  0.00  0.00    +0.000 A 
ATOM     16  C   UNL     1       6.263   4.478  18.365  0.00  0.00    +0.000 A 
ATOM     17  C   UNL     1       4.890   4.690  18.245  0.00  0.00    +0.000 A 
ATOM     18  N   UNL     1       4.065   3.646  18.483  0.00  0.00    +0.000 NA
ENDBRANCH   1  10
BRANCH   4  19
ATOM     19  C   UNL     1       0.917  10.502  19.031  0.00  0.00    +0.000 A 
ATOM     20  C   UNL     1       1.652  11.647  19.342  0.00  0.00    +0.000 A 
ATOM     21  C   UNL     1       1.222  12.526  20.350  0.00  0.00    +0.000 A 
ATOM     22  C   UNL     1       0.012  12.310  21.071  0.00  0.00    +0.000 A 
ATOM     23  C   UNL     1      -0.731  11.158  20.712  0.00  0.00    +0.000 A 
ATOM     24  C   UNL     1      -0.289  10.277  19.728  0.00  0.00    +0.000 A 
BRANCH  22  25
ATOM     25  N   UNL     1      -0.446  13.220  22.118  0.00  0.00    +0.000 N 
ATOM     26  C   UNL     1      -1.378  12.829  23.172  0.00  0.00    +0.000 C 
ATOM     27  C   UNL     1      -0.020  14.617  22.219  0.00  0.00    +0.000 C 
ENDBRANCH  22  25
ENDBRANCH   4  19
TORSDOF 3
ENDMDL
MODEL 8
REMARK VINA RESULT:      -7.5      2.821      4.012
REMARK  Name = 
REMARK  6 active torsions:
REMARK  status: ('A' for Active; 'I' for Inactive)
REMARK    1  A    between atoms: C_1  and  C_2
REMARK    2  A    between atoms: C_4  and  N_5
REMARK    3  A    between atoms: N_8  and  C_9
REMARK    4  A    between atoms: C_12  and  N_13
REMARK    5  A    between atoms: N_13  and  C_14
REMARK    6  A    between atoms: N_13  and  C_15
REMARK                            x       y       z     vdW  Elec       q    Type
REMARK                         _______ _______ _______ _____ _____    ______ ____
ROOT
ATOM      1  N   UNL     1       2.706   6.486  20.629  0.00  0.00    +0.000 N 
ATOM      2  C   UNL     1       1.784   7.502  20.798  0.00  0.00    +0.000 C 
ATOM      3  O   UNL     1       0.819   7.586  20.063  0.00  0.00    +0.000 OA
ATOM      4  N   UNL     1       1.870   8.388  21.837  0.00  0.00    +0.000 N 
ATOM      5  H   UNL     1       3.466   6.461  21.320  0.00  0.00    +0.000 HD
ATOM      6  H   UNL     1       2.578   8.241  22.577  0.00  0.00    +0.000 HD
ENDROOT
BRANCH   1  10
ATOM      7  C   UNL     1       0.504   2.391  18.718  0.00  0.00    +0.000 C 
ATOM      8  C   UNL     1       1.591   3.421  18.686  0.00  0.00    +0.000 A 
ATOM      9  C   UNL     1       1.629   4.451  19.619  0.00  0.00    +0.000 A 
ATOM     10  C   UNL     1       2.648   5.443  19.610  0.00  0.00    +0.000 A 
ATOM     11  C   UNL     1       3.618   5.354  18.549  0.00  0.00    +0.000 A 
ATOM     12  C   UNL     1       4.667   6.286  18.350  0.00  0.00    +0.000 A 
ATOM     13  C   UNL     1       5.574   6.128  17.287  0.00  0.00    +0.000 A 
ATOM     14 CL   UNL     1       6.854   7.300  17.031  0.00  0.00    +0.000 Cl
ATOM     15  C   UNL     1       5.470   5.038  16.423  0.00  0.00    +0.000 A 
ATOM     16  C   UNL     1       4.453   4.111  16.597  0.00  0.00    +0.000 A 
ATOM     17  C   UNL     1       3.529   4.263  17.630  0.00  0.00    +0.000 A 
ATOM     18  N   UNL     1       2.540   3.346  17.734  0.00  0.00    +0.000 NA
ENDBRANCH   1  10
BRANCH   4  19
ATOM     19  C   UNL     1       0.913   9.449  21.987  0.00  0.00    +0.000 A 
ATOM     20  C   UNL     1      -0.033   9.424  23.012  0.00  0.00    +0.000 A 
ATOM     21  C   UNL     1      -1.011  10.427  23.114  0.00  0.00    +0.000 A 
ATOM     22  C   UNL     1      -1.063  11.522  22.204  0.00  0.00    +0.000 A 
ATOM     23  C   UNL     1      -0.070  11.541  21.193  0.00  0.00    +0.000 A 
ATOM     24  C   UNL     1       0.884  10.531  21.083  0.00  0.00    +0.000 A 
BRANCH  22  25
ATOM     25  N   UNL     1      -2.073  12.573  22.303  0.00  0.00    +0.000 N 
ATOM     26  C   UNL     1      -2.268  13.599  21.284  0.00  0.00    +0.000 C 
ATOM     27  C   UNL     1      -2.994  12.706  23.433  0.00  0.00    +0.000 C 
ENDBRANCH  22  25
ENDBRANCH   4  19
TORSDOF 3
ENDMDL
MODEL 9
REMARK VINA RESULT:      -7.4      2.228      8.448
REMARK  Name = 
REMARK  6 active torsions:
REMARK  status: ('A' for Active; 'I' for Inactive)
REMARK    1  A    between atoms: C_1  and  C_2
REMARK    2  A    between atoms: C_4  and  N_5
REMARK    3  A    between atoms: N_8  and  C_9
REMARK    4  A    between atoms: C_12  and  N_13
REMARK    5  A    between atoms: N_13  and  C_14
REMARK    6  A    between atoms: N_13  and  C_15
REMARK                            x       y       z     vdW  Elec       q    Type
REMARK                         _______ _______ _______ _____ _____    ______ ____
ROOT
ATOM      1  N   UNL     1       1.837  10.154  17.896  0.00  0.00    +0.000 N 
ATOM      2  C   UNL     1       2.104   8.868  18.324  0.00  0.00    +0.000 C 
ATOM      3  O   UNL     1       1.778   8.510  19.440  0.00  0.00    +0.000 OA
ATOM      4  N   UNL     1       2.657   7.932  17.494  0.00  0.00    +0.000 N 
ATOM      5  H   UNL     1       2.105  10.360  16.925  0.00  0.00    +0.000 HD
ATOM      6  H   UNL     1       2.787   8.150  16.492  0.00  0.00    +0.000 HD
ENDROOT
BRANCH   1  10
ATOM      7  C   UNL     1       2.088  14.058  21.053  0.00  0.00    +0.000 C 
ATOM      8  C   UNL     1       1.285  13.085  20.244  0.00  0.00    +0.000 A 
ATOM      9  C   UNL     1       1.908  12.125  19.455  0.00  0.00    +0.000 A 
ATOM     10  C   UNL     1       1.170  11.192  18.676  0.00  0.00    +0.000 A 
ATOM     11  C   UNL     1      -0.264  11.324  18.707  0.00  0.00    +0.000 A 
ATOM     12  C   UNL     1      -1.154  10.521  17.951  0.00  0.00    +0.000 A 
ATOM     13  C   UNL     1      -2.544  10.715  18.038  0.00  0.00    +0.000 A 
ATOM     14 CL   UNL     1      -3.638   9.735  17.079  0.00  0.00    +0.000 Cl
ATOM     15  C   UNL     1      -3.072  11.686  18.887  0.00  0.00    +0.000 A 
ATOM     16  C   UNL     1      -2.223  12.485  19.639  0.00  0.00    +0.000 A 
ATOM     17  C   UNL     1      -0.840  12.325  19.548  0.00  0.00    +0.000 A 
ATOM     18  N   UNL     1      -0.059  13.151  20.281  0.00  0.00    +0.000 NA
ENDBRANCH   1  10
BRANCH   4  19
ATOM     19  C   UNL     1       2.944   6.603  17.962  0.00  0.00    +0.000 A 
ATOM     20  C   UNL     1       4.219   6.260  18.411  0.00  0.00    +0.000 A 
ATOM     21  C   UNL     1       4.514   4.943  18.801  0.00  0.00    +0.000 A 
ATOM     22  C   UNL     1       3.527   3.915  18.788  0.00  0.00    +0.000 A 
ATOM     23  C   UNL     1       2.232   4.299  18.359  0.00  0.00    +0.000 A 
ATOM     24  C   UNL     1       1.951   5.601  17.951  0.00  0.00    +0.000 A 
BRANCH  22  25
ATOM     25  N   UNL     1       3.822   2.544  19.196  0.00  0.00    +0.000 N 
ATOM     26  C   UNL     1       3.534   1.379  18.365  0.00  0.00    +0.000 C 
ATOM     27  C   UNL     1       4.435   2.195  20.479  0.00  0.00    +0.000 C 
ENDBRANCH  22  25
ENDBRANCH   4  19
TORSDOF 3
ENDMDL
