MODEL 1
REMARK VINA RESULT:      -8.3      0.000      0.000
REMARK  Name = 
REMARK  9 active torsions:
REMARK  status: ('A' for Active; 'I' for Inactive)
REMARK    1  A    between atoms: C_1  and  C_2
REMARK    2  A    between atoms: C_2  and  N_3
REMARK    3  A    between atoms: N_6  and  C_7
REMARK    4  A    between atoms: C_7  and  C_8
REMARK    5  A    between atoms: C_11  and  N_12
REMARK    6  A    between atoms: C_17  and  N_18
REMARK    7  A    between atoms: C_19  and  C_21
REMARK    8  A    between atoms: C_24  and  O_25
REMARK    9  A    between atoms: O_25  and  C_26
REMARK                            x       y       z     vdW  Elec       q    Type
REMARK                         _______ _______ _______ _____ _____    ______ ____
ROOT
ATOM      1  N   UNL     1       6.486   6.651  16.803  0.00  0.00    +0.000 N 
ATOM      2  C   UNL     1       6.854   5.566  15.973  0.00  0.00    +0.000 A 
ATOM      3  O   UNL     1       7.874   5.453  15.321  0.00  0.00    +0.000 OA
ATOM      4  N   UNL     1       5.794   4.636  16.056  0.00  0.00    +0.000 N 
ATOM      5  C   UNL     1       4.835   5.112  16.959  0.00  0.00    +0.000 A 
ATOM      6  C   UNL     1       3.660   4.532  17.406  0.00  0.00    +0.000 A 
ATOM      7  C   UNL     1       2.854   5.230  18.330  0.00  0.00    +0.000 A 
ATOM      8  C   UNL     1       3.272   6.549  18.724  0.00  0.00    +0.000 A 
ATOM      9  C   UNL     1       4.484   7.108  18.266  0.00  0.00    +0.000 A 
ATOM     10  C   UNL     1       5.250   6.367  17.399  0.00  0.00    +0.000 A 
ENDROOT
BRANCH   7  11
ATOM     11  N   UNL     1       1.634   4.697  18.811  0.00  0.00    +0.000 N 
ATOM     12  C   UNL     1       1.439   4.481  20.258  0.00  0.00    +0.000 C 
ATOM     13  C   UNL     1       1.179   2.989  20.424  0.00  0.00    +0.000 C 
ATOM     14  C   UNL     1       0.551   2.576  19.110  0.00  0.00    +0.000 C 
ATOM     15  C   UNL     1       1.178   3.502  18.071  0.00  0.00    +0.000 C 
ENDBRANCH   7  11
BRANCH   8  16
ATOM     16  N   UNL     1       2.469   7.302  19.619  0.00  0.00    +0.000 N 
ATOM     17  C   UNL     1       1.815   8.460  19.213  0.00  0.00    +0.000 C 
ATOM     18  O   UNL     1       1.846   8.927  18.078  0.00  0.00    +0.000 OA
ATOM     19  H   UNL     1       2.077   6.768  20.387  0.00  0.00    +0.000 HD
BRANCH  17  20
ATOM     20  C   UNL     1       0.930   9.117  20.208  0.00  0.00    +0.000 A 
ATOM     21  C   UNL     1       0.994   8.817  21.572  0.00  0.00    +0.000 A 
ATOM     22  C   UNL     1       0.161   9.495  22.475  0.00  0.00    +0.000 A 
ATOM     23  C   UNL     1      -0.750  10.457  22.022  0.00  0.00    +0.000 A 
ATOM     24  C   UNL     1      -0.767  10.788  20.660  0.00  0.00    +0.000 A 
ATOM     25 BR   UNL     1      -1.931  12.126  19.977  0.00  0.00    +0.000 Br
ATOM     26  C   UNL     1       0.068  10.125  19.759  0.00  0.00    +0.000 A 
BRANCH  23  27
ATOM     27  O   UNL     1      -1.598  11.141  22.853  0.00  0.00    +0.000 OA
ATOM     28  C   UNL     1      -1.218  12.477  23.162  0.00  0.00    +0.000 C 
ENDBRANCH  23  27
ENDBRANCH  17  20
ENDBRANCH   8  16
BRANCH   1  30
ATOM     29  C   UNL     1       8.151   7.588  18.343  0.00  0.00    +0.000 C 
ATOM     30  C   UNL     1       7.327   7.787  17.081  0.00  0.00    +0.000 C 
ENDBRANCH   1  30
BRANCH   4  31
ATOM     31  C   UNL     1       5.747   3.390  15.331  0.00  0.00    +0.000 C 
ATOM     32  C   UNL     1       5.731   3.593  13.825  0.00  0.00    +0.000 C 
ENDBRANCH   4  31
TORSDOF 6
ENDMDL
MODEL 2
REMARK VINA RESULT:      -7.8      4.988      8.866
REMARK  Name = 
REMARK  9 active torsions:
REMARK  status: ('A' for Active; 'I' for Inactive)
REMARK    1  A    between atoms: C_1  and  C_2
REMARK    2  A    between atoms: C_2  and  N_3
REMARK    3  A    between atoms: N_6  and  C_7
REMARK    4  A    between atoms: C_7  and  C_8
REMARK    5  A    between atoms: C_11  and  N_12
REMARK    6  A    between atoms: C_17  and  N_18
REMARK    7  A    between atoms: C_19  and  C_21
REMARK    8  A    between atoms: C_24  and  O_25
REMARK    9  A    between atoms: O_25  and  C_26
REMARK                            x       y       z     vdW  Elec       q    Type
REMARK                         _______ _______ _______ _____ _____    ______ ____
ROOT
ATOM      1  N   UNL     1       2.765  15.336  19.095  0.00  0.00    +0.000 N 
ATOM      2  C   UNL     1       2.065  16.516  18.751  0.00  0.00    +0.000 A 
ATOM      3  O   UNL     1       2.530  17.629  18.601  0.00  0.00    +0.000 OA
ATOM      4  N   UNL     1       0.711  16.138  18.617  0.00  0.00    +0.000 N 
ATOM      5  C   UNL     1       0.597  14.756  18.812  0.00  0.00    +0.000 A 
ATOM      6  C   UNL     1      -0.509  13.928  18.727  0.00  0.00    +0.000 A 
ATOM      7  C   UNL     1      -0.358  12.547  18.976  0.00  0.00    +0.000 A 
ATOM      8  C   UNL     1       0.944  12.074  19.364  0.00  0.00    +0.000 A 
ATOM      9  C   UNL     1       2.058  12.938  19.425  0.00  0.00    +0.000 A 
ATOM     10  C   UNL     1       1.861  14.266  19.133  0.00  0.00    +0.000 A 
ENDROOT
BRANCH   7  11
ATOM     11  N   UNL     1      -1.453  11.652  18.921  0.00  0.00    +0.000 N 
ATOM     12  C   UNL     1      -1.776  10.951  17.663  0.00  0.00    +0.000 C 
ATOM     13  C   UNL     1      -3.193  11.376  17.302  0.00  0.00    +0.000 C 
ATOM     14  C   UNL     1      -3.836  11.686  18.637  0.00  0.00    +0.000 C 
ATOM     15  C   UNL     1      -2.694  12.198  19.510  0.00  0.00    +0.000 C 
ENDBRANCH   7  11
BRANCH   8  16
ATOM     16  N   UNL     1       1.130  10.699  19.665  0.00  0.00    +0.000 N 
ATOM     17  C   UNL     1       1.651   9.813  18.728  0.00  0.00    +0.000 C 
ATOM     18  O   UNL     1       2.010  10.115  17.594  0.00  0.00    +0.000 OA
ATOM     19  H   UNL     1       1.259  10.495  20.650  0.00  0.00    +0.000 HD
BRANCH  17  20
ATOM     20  C   UNL     1       1.885   8.418  19.180  0.00  0.00    +0.000 A 
ATOM     21  C   UNL     1       1.398   7.940  20.400  0.00  0.00    +0.000 A 
ATOM     22  C   UNL     1       1.615   6.602  20.761  0.00  0.00    +0.000 A 
ATOM     23  C   UNL     1       2.333   5.742  19.920  0.00  0.00    +0.000 A 
ATOM     24  C   UNL     1       2.770   6.218  18.677  0.00  0.00    +0.000 A 
ATOM     25 BR   UNL     1       3.698   5.097  17.455  0.00  0.00    +0.000 Br
ATOM     26  C   UNL     1       2.546   7.545  18.307  0.00  0.00    +0.000 A 
BRANCH  23  27
ATOM     27  O   UNL     1       2.589   4.431  20.226  0.00  0.00    +0.000 OA
ATOM     28  C   UNL     1       1.446   3.615  20.454  0.00  0.00    +0.000 C 
ENDBRANCH  23  27
ENDBRANCH  17  20
ENDBRANCH   8  16
BRANCH   1  30
ATOM     29  C   UNL     1       4.884  14.962  17.915  0.00  0.00    +0.000 C 
ATOM     30  C   UNL     1       4.196  15.249  19.240  0.00  0.00    +0.000 C 
ENDBRANCH   1  30
BRANCH   4  31
ATOM     31  C   UNL     1      -0.361  17.052  18.304  0.00  0.00    +0.000 C 
ATOM     32  C   UNL     1      -0.133  17.794  16.998  0.00  0.00    +0.000 C 
ENDBRANCH   4  31
TORSDOF 6
ENDMDL
MODEL 3
REMARK VINA RESULT:      -7.5      1.056      1.382
REMARK  Name = 
REMARK  9 active torsions:
REMARK  status: ('A' for Active; 'I' for Inactive)
REMARK    1  A    between atoms: C_1  and  C_2
REMARK    2  A    between atoms: C_2  and  N_3
REMARK    3  A    between atoms: N_6  and  C_7
REMARK    4  A    between atoms: C_7  and  C_8
REMARK    5  A    between atoms: C_11  and  N_12
REMARK    6  A    between atoms: C_17  and  N_18
REMARK    7  A    between atoms: C_19  and  C_21
REMARK    8  A    between atoms: C_24  and  O_25
REMARK    9  A    between atoms: O_25  and  C_26
REMARK                            x       y       z     vdW  Elec       q    Type
REMARK                         _______ _______ _______ _____ _____    ______ ____
ROOT
ATOM      1  N   UNL     1       6.537   6.743  16.682  0.00  0.00    +0.000 N 
ATOM      2  C   UNL     1       6.965   5.577  16.006  0.00  0.00    +0.000 A 
ATOM      3  O   UNL     1       8.025   5.405  15.437  0.00  0.00    +0.000 OA
ATOM      4  N   UNL     1       5.907   4.648  16.126  0.00  0.00    +0.000 N 
ATOM      5  C   UNL     1       4.888   5.210  16.907  0.00  0.00    +0.000 A 
ATOM      6  C   UNL     1       3.691   4.668  17.340  0.00  0.00    +0.000 A 
ATOM      7  C   UNL     1       2.822   5.455  18.127  0.00  0.00    +0.000 A 
ATOM      8  C   UNL     1       3.206   6.816  18.394  0.00  0.00    +0.000 A 
ATOM      9  C   UNL     1       4.442   7.336  17.954  0.00  0.00    +0.000 A 
ATOM     10  C   UNL     1       5.267   6.512  17.227  0.00  0.00    +0.000 A 
ENDROOT
BRANCH   7  11
ATOM     11  N   UNL     1       1.577   4.964  18.587  0.00  0.00    +0.000 N 
ATOM     12  C   UNL     1       1.310   4.858  20.034  0.00  0.00    +0.000 C 
ATOM     13  C   UNL     1       1.033   3.384  20.300  0.00  0.00    +0.000 C 
ATOM     14  C   UNL     1       0.467   2.874  18.991  0.00  0.00    +0.000 C 
ATOM     15  C   UNL     1       1.150   3.717  17.917  0.00  0.00    +0.000 C 
ENDBRANCH   7  11
BRANCH   8  16
ATOM     16  N   UNL     1       2.342   7.653  19.145  0.00  0.00    +0.000 N 
ATOM     17  C   UNL     1       1.810   8.821  18.607  0.00  0.00    +0.000 C 
ATOM     18  O   UNL     1       2.007   9.226  17.466  0.00  0.00    +0.000 OA
ATOM     19  H   UNL     1       1.828   7.181  19.881  0.00  0.00    +0.000 HD
BRANCH  17  20
ATOM     20  C   UNL     1       0.848   9.573  19.452  0.00  0.00    +0.000 A 
ATOM     21  C   UNL     1      -0.049  10.500  18.913  0.00  0.00    +0.000 A 
ATOM     22  C   UNL     1      -0.963  11.156  19.751  0.00  0.00    +0.000 A 
ATOM     23  C   UNL     1      -0.974  10.905  21.129  0.00  0.00    +0.000 A 
ATOM     24  C   UNL     1      -0.108   9.935  21.651  0.00  0.00    +0.000 A 
ATOM     25 BR   UNL     1      -0.105   9.496  23.499  0.00  0.00    +0.000 Br
ATOM     26  C   UNL     1       0.796   9.272  20.818  0.00  0.00    +0.000 A 
BRANCH  23  27
ATOM     27  O   UNL     1      -1.832  11.525  22.000  0.00  0.00    +0.000 OA
ATOM     28  C   UNL     1      -2.327  12.793  21.582  0.00  0.00    +0.000 C 
ENDBRANCH  23  27
ENDBRANCH  17  20
ENDBRANCH   8  16
BRANCH   1  30
ATOM     29  C   UNL     1       8.125   7.851  18.190  0.00  0.00    +0.000 C 
ATOM     30  C   UNL     1       7.351   7.915  16.883  0.00  0.00    +0.000 C 
ENDBRANCH   1  30
BRANCH   4  31
ATOM     31  C   UNL     1       5.914   3.328  15.545  0.00  0.00    +0.000 C 
ATOM     32  C   UNL     1       5.834   3.358  14.028  0.00  0.00    +0.000 C 
ENDBRANCH   4  31
TORSDOF 6
ENDMDL
MODEL 4
REMARK VINA RESULT:      -7.3      4.995      8.901
REMARK  Name = 
REMARK  9 active torsions:
REMARK  status: ('A' for Active; 'I' for Inactive)
REMARK    1  A    between atoms: C_1  and  C_2
REMARK    2  A    between atoms: C_2  and  N_3
REMARK    3  A    between atoms: N_6  and  C_7
REMARK    4  A    between atoms: C_7  and  C_8
REMARK    5  A    between atoms: C_11  and  N_12
REMARK    6  A    between atoms: C_17  and  N_18
REMARK    7  A    between atoms: C_19  and  C_21
REMARK    8  A    between atoms: C_24  and  O_25
REMARK    9  A    between atoms: O_25  and  C_26
REMARK                            x       y       z     vdW  Elec       q    Type
REMARK                         _______ _______ _______ _____ _____    ______ ____
ROOT
ATOM      1  N   UNL     1       3.164  15.236  18.197  0.00  0.00    +0.000 N 
ATOM      2  C   UNL     1       2.534  16.497  18.071  0.00  0.00    +0.000 A 
ATOM      3  O   UNL     1       3.022  17.522  17.639  0.00  0.00    +0.000 OA
ATOM      4  N   UNL     1       1.216  16.320  18.548  0.00  0.00    +0.000 N 
ATOM      5  C   UNL     1       1.029  14.977  18.898  0.00  0.00    +0.000 A 
ATOM      6  C   UNL     1      -0.099  14.320  19.358  0.00  0.00    +0.000 A 
ATOM      7  C   UNL     1      -0.026  12.941  19.645  0.00  0.00    +0.000 A 
ATOM      8  C   UNL     1       1.249  12.291  19.496  0.00  0.00    +0.000 A 
ATOM      9  C   UNL     1       2.379  12.982  19.008  0.00  0.00    +0.000 A 
ATOM     10  C   UNL     1       2.239  14.314  18.705  0.00  0.00    +0.000 A 
ENDROOT
BRANCH   7  11
ATOM     11  N   UNL     1      -1.140  12.217  20.133  0.00  0.00    +0.000 N 
ATOM     12  C   UNL     1      -2.421  12.244  19.401  0.00  0.00    +0.000 C 
ATOM     13  C   UNL     1      -3.442  12.825  20.371  0.00  0.00    +0.000 C 
ATOM     14  C   UNL     1      -2.912  12.442  21.737  0.00  0.00    +0.000 C 
ATOM     15  C   UNL     1      -1.395  12.426  21.575  0.00  0.00    +0.000 C 
ENDBRANCH   7  11
BRANCH   8  16
ATOM     16  N   UNL     1       1.376  10.914  19.815  0.00  0.00    +0.000 N 
ATOM     17  C   UNL     1       1.611   9.958  18.833  0.00  0.00    +0.000 C 
ATOM     18  O   UNL     1       1.747  10.193  17.637  0.00  0.00    +0.000 OA
ATOM     19  H   UNL     1       1.691  10.726  20.761  0.00  0.00    +0.000 HD
BRANCH  17  20
ATOM     20  C   UNL     1       1.815   8.560  19.291  0.00  0.00    +0.000 A 
ATOM     21  C   UNL     1       1.321   8.099  20.515  0.00  0.00    +0.000 A 
ATOM     22  C   UNL     1       1.509   6.758  20.883  0.00  0.00    +0.000 A 
ATOM     23  C   UNL     1       2.205   5.879  20.044  0.00  0.00    +0.000 A 
ATOM     24  C   UNL     1       2.650   6.338  18.797  0.00  0.00    +0.000 A 
ATOM     25 BR   UNL     1       3.549   5.191  17.578  0.00  0.00    +0.000 Br
ATOM     26  C   UNL     1       2.454   7.669  18.421  0.00  0.00    +0.000 A 
BRANCH  23  27
ATOM     27  O   UNL     1       2.433   4.564  20.355  0.00  0.00    +0.000 OA
ATOM     28  C   UNL     1       1.277   3.790  20.654  0.00  0.00    +0.000 C 
ENDBRANCH  23  27
ENDBRANCH  17  20
ENDBRANCH   8  16
BRANCH   1  30
ATOM     29  C   UNL     1       5.545  15.277  18.790  0.00  0.00    +0.000 C 
ATOM     30  C   UNL     1       4.498  14.942  17.739  0.00  0.00    +0.000 C 
ENDBRANCH   1  30
BRANCH   4  31
ATOM     31  C   UNL     1       0.233  17.373  18.630  0.00  0.00    +0.000 C 
ATOM     32  C   UNL     1      -0.441  17.646  17.296  0.00  0.00    +0.000 C 
ENDBRANCH   4  31
TORSDOF 6
ENDMDL
MODEL 5
REMARK VINA RESULT:      -7.2      2.418      5.115
REMARK  Name = 
REMARK  9 active torsions:
REMARK  status: ('A' for Active; 'I' for Inactive)
REMARK    1  A    between atoms: C_1  and  C_2
REMARK    2  A    between atoms: C_2  and  N_3
REMARK    3  A    between atoms: N_6  and  C_7
REMARK    4  A    between atoms: C_7  and  C_8
REMARK    5  A    between atoms: C_11  and  N_12
REMARK    6  A    between atoms: C_17  and  N_18
REMARK    7  A    between atoms: C_19  and  C_21
REMARK    8  A    between atoms: C_24  and  O_25
REMARK    9  A    between atoms: O_25  and  C_26
REMARK                            x       y       z     vdW  Elec       q    Type
REMARK                         _______ _______ _______ _____ _____    ______ ____
ROOT
ATOM      1  N   UNL     1       2.719   5.402  20.080  0.00  0.00    +0.000 N 
ATOM      2  C   UNL     1       3.624   4.963  19.085  0.00  0.00    +0.000 A 
ATOM      3  O   UNL     1       4.191   3.889  19.030  0.00  0.00    +0.000 OA
ATOM      4  N   UNL     1       3.733   6.028  18.163  0.00  0.00    +0.000 N 
ATOM      5  C   UNL     1       2.872   7.063  18.552  0.00  0.00    +0.000 A 
ATOM      6  C   UNL     1       2.595   8.274  17.942  0.00  0.00    +0.000 A 
ATOM      7  C   UNL     1       1.677   9.157  18.547  0.00  0.00    +0.000 A 
ATOM      8  C   UNL     1       1.110   8.773  19.813  0.00  0.00    +0.000 A 
ATOM      9  C   UNL     1       1.397   7.524  20.404  0.00  0.00    +0.000 A 
ATOM     10  C   UNL     1       2.267   6.686  19.749  0.00  0.00    +0.000 A 
ENDROOT
BRANCH   7  11
ATOM     11  N   UNL     1       1.364  10.416  17.981  0.00  0.00    +0.000 N 
ATOM     12  C   UNL     1       2.252  11.573  18.208  0.00  0.00    +0.000 C 
ATOM     13  C   UNL     1       1.397  12.622  18.909  0.00  0.00    +0.000 C 
ATOM     14  C   UNL     1      -0.008  12.335  18.425  0.00  0.00    +0.000 C 
ATOM     15  C   UNL     1      -0.040  10.827  18.193  0.00  0.00    +0.000 C 
ENDBRANCH   7  11
BRANCH   8  16
ATOM     16  N   UNL     1       0.215   9.652  20.476  0.00  0.00    +0.000 N 
ATOM     17  C   UNL     1       0.532  10.226  21.702  0.00  0.00    +0.000 C 
ATOM     18  O   UNL     1       1.585  10.057  22.310  0.00  0.00    +0.000 OA
ATOM     19  H   UNL     1      -0.430  10.140  19.864  0.00  0.00    +0.000 HD
BRANCH  17  20
ATOM     20  C   UNL     1      -0.441  11.199  22.261  0.00  0.00    +0.000 A 
ATOM     21  C   UNL     1      -1.517  10.799  23.060  0.00  0.00    +0.000 A 
ATOM     22  C   UNL     1      -2.385  11.762  23.594  0.00  0.00    +0.000 A 
ATOM     23  C   UNL     1      -2.198  13.123  23.318  0.00  0.00    +0.000 A 
ATOM     24  C   UNL     1      -1.086  13.516  22.561  0.00  0.00    +0.000 A 
ATOM     25 BR   UNL     1      -0.730  15.346  22.196  0.00  0.00    +0.000 Br
ATOM     26  C   UNL     1      -0.213  12.561  22.038  0.00  0.00    +0.000 A 
BRANCH  23  27
ATOM     27  O   UNL     1      -3.021  14.108  23.798  0.00  0.00    +0.000 OA
ATOM     28  C   UNL     1      -4.413  13.917  23.569  0.00  0.00    +0.000 C 
ENDBRANCH  23  27
ENDBRANCH  17  20
ENDBRANCH   8  16
BRANCH   1  30
ATOM     29  C   UNL     1       1.163   3.618  20.729  0.00  0.00    +0.000 C 
ATOM     30  C   UNL     1       2.249   4.587  21.172  0.00  0.00    +0.000 C 
ENDBRANCH   1  30
BRANCH   4  31
ATOM     31  C   UNL     1       4.587   6.013  17.002  0.00  0.00    +0.000 C 
ATOM     32  C   UNL     1       5.943   6.647  17.267  0.00  0.00    +0.000 C 
ENDBRANCH   4  31
TORSDOF 6
ENDMDL
MODEL 6
REMARK VINA RESULT:      -7.1      4.636      8.665
REMARK  Name = 
REMARK  9 active torsions:
REMARK  status: ('A' for Active; 'I' for Inactive)
REMARK    1  A    between atoms: C_1  and  C_2
REMARK    2  A    between atoms: C_2  and  N_3
REMARK    3  A    between atoms: N_6  and  C_7
REMARK    4  A    between atoms: C_7  and  C_8
REMARK    5  A    between atoms: C_11  and  N_12
REMARK    6  A    between atoms: C_17  and  N_18
REMARK    7  A    between atoms: C_19  and  C_21
REMARK    8  A    between atoms: C_24  and  O_25
REMARK    9  A    between atoms: O_25  and  C_26
REMARK                            x       y       z     vdW  Elec       q    Type
REMARK                         _______ _______ _______ _____ _____    ______ ____
ROOT
ATOM      1  N   UNL     1       2.580  14.922  18.857  0.00  0.00    +0.000 N 
ATOM      2  C   UNL     1       1.737  16.057  18.778  0.00  0.00    +0.000 A 
ATOM      3  O   UNL     1       2.077  17.223  18.758  0.00  0.00    +0.000 OA
ATOM      4  N   UNL     1       0.418  15.556  18.727  0.00  0.00    +0.000 N 
ATOM      5  C   UNL     1       0.456  14.156  18.712  0.00  0.00    +0.000 A 
ATOM      6  C   UNL     1      -0.571  13.233  18.612  0.00  0.00    +0.000 A 
ATOM      7  C   UNL     1      -0.264  11.856  18.622  0.00  0.00    +0.000 A 
ATOM      8  C   UNL     1       1.114  11.476  18.794  0.00  0.00    +0.000 A 
ATOM      9  C   UNL     1       2.142  12.440  18.876  0.00  0.00    +0.000 A 
ATOM     10  C   UNL     1       1.789  13.766  18.818  0.00  0.00    +0.000 A 
ENDROOT
BRANCH   7  11
ATOM     11  N   UNL     1      -1.270  10.864  18.540  0.00  0.00    +0.000 N 
ATOM     12  C   UNL     1      -1.288   9.918  17.407  0.00  0.00    +0.000 C 
ATOM     13  C   UNL     1      -2.625  10.131  16.709  0.00  0.00    +0.000 C 
ATOM     14  C   UNL     1      -3.543  10.615  17.811  0.00  0.00    +0.000 C 
ATOM     15  C   UNL     1      -2.635  11.386  18.765  0.00  0.00    +0.000 C 
ENDBRANCH   7  11
BRANCH   8  16
ATOM     16  N   UNL     1       1.460  10.102  18.853  0.00  0.00    +0.000 N 
ATOM     17  C   UNL     1       1.431   9.393  20.049  0.00  0.00    +0.000 C 
ATOM     18  O   UNL     1       1.098   9.856  21.136  0.00  0.00    +0.000 OA
ATOM     19  H   UNL     1       1.325   9.594  17.985  0.00  0.00    +0.000 HD
BRANCH  17  20
ATOM     20  C   UNL     1       1.727   7.940  19.978  0.00  0.00    +0.000 A 
ATOM     21  C   UNL     1       1.175   7.024  20.878  0.00  0.00    +0.000 A 
ATOM     22  C   UNL     1       1.458   5.656  20.743  0.00  0.00    +0.000 A 
ATOM     23  C   UNL     1       2.305   5.200  19.725  0.00  0.00    +0.000 A 
ATOM     24  C   UNL     1       2.809   6.121  18.796  0.00  0.00    +0.000 A 
ATOM     25 BR   UNL     1       3.914   5.571  17.352  0.00  0.00    +0.000 Br
ATOM     26  C   UNL     1       2.520   7.481  18.920  0.00  0.00    +0.000 A 
BRANCH  23  27
ATOM     27  O   UNL     1       2.630   3.880  19.551  0.00  0.00    +0.000 OA
ATOM     28  C   UNL     1       1.561   3.027  19.154  0.00  0.00    +0.000 C 
ENDBRANCH  23  27
ENDBRANCH  17  20
ENDBRANCH   8  16
BRANCH   1  30
ATOM     29  C   UNL     1       4.601  15.111  20.237  0.00  0.00    +0.000 C 
ATOM     30  C   UNL     1       4.019  14.973  18.838  0.00  0.00    +0.000 C 
ENDBRANCH   1  30
BRANCH   4  31
ATOM     31  C   UNL     1      -0.764  16.383  18.675  0.00  0.00    +0.000 C 
ATOM     32  C   UNL     1      -1.330  16.677  20.053  0.00  0.00    +0.000 C 
ENDBRANCH   4  31
TORSDOF 6
ENDMDL
MODEL 7
REMARK VINA RESULT:      -7.1      4.511      8.950
REMARK  Name = 
REMARK  9 active torsions:
REMARK  status: ('A' for Active; 'I' for Inactive)
REMARK    1  A    between atoms: C_1  and  C_2
REMARK    2  A    between atoms: C_2  and  N_3
REMARK    3  A    between atoms: N_6  and  C_7
REMARK    4  A    between atoms: C_7  and  C_8
REMARK    5  A    between atoms: C_11  and  N_12
REMARK    6  A    between atoms: C_17  and  N_18
REMARK    7  A    between atoms: C_19  and  C_21
REMARK    8  A    between atoms: C_24  and  O_25
REMARK    9  A    between atoms: O_25  and  C_26
REMARK                            x       y       z     vdW  Elec       q    Type
REMARK                         _______ _______ _______ _____ _____    ______ ____
ROOT
ATOM      1  N   UNL     1       2.143  15.133  19.245  0.00  0.00    +0.000 N 
ATOM      2  C   UNL     1       1.184  16.157  19.429  0.00  0.00    +0.000 A 
ATOM      3  O   UNL     1       1.397  17.342  19.591  0.00  0.00    +0.000 OA
ATOM      4  N   UNL     1      -0.076  15.520  19.383  0.00  0.00    +0.000 N 
ATOM      5  C   UNL     1       0.107  14.157  19.118  0.00  0.00    +0.000 A 
ATOM      6  C   UNL     1      -0.823  13.149  18.930  0.00  0.00    +0.000 A 
ATOM      7  C   UNL     1      -0.375  11.836  18.674  0.00  0.00    +0.000 A 
ATOM      8  C   UNL     1       1.044  11.598  18.678  0.00  0.00    +0.000 A 
ATOM      9  C   UNL     1       1.970  12.648  18.855  0.00  0.00    +0.000 A 
ATOM     10  C   UNL     1       1.477  13.914  19.059  0.00  0.00    +0.000 A 
ENDROOT
BRANCH   7  11
ATOM     11  N   UNL     1      -1.276  10.760  18.489  0.00  0.00    +0.000 N 
ATOM     12  C   UNL     1      -1.203   9.932  17.270  0.00  0.00    +0.000 C 
ATOM     13  C   UNL     1      -2.557  10.076  16.587  0.00  0.00    +0.000 C 
ATOM     14  C   UNL     1      -3.515  10.355  17.726  0.00  0.00    +0.000 C 
ATOM     15  C   UNL     1      -2.686  11.117  18.755  0.00  0.00    +0.000 C 
ENDBRANCH   7  11
BRANCH   8  16
ATOM     16  N   UNL     1       1.535  10.284  18.468  0.00  0.00    +0.000 N 
ATOM     17  C   UNL     1       1.610   9.359  19.504  0.00  0.00    +0.000 C 
ATOM     18  O   UNL     1       1.257   9.566  20.661  0.00  0.00    +0.000 OA
ATOM     19  H   UNL     1       1.434   9.941  17.519  0.00  0.00    +0.000 HD
BRANCH  17  20
ATOM     20  C   UNL     1       2.056   7.987  19.151  0.00  0.00    +0.000 A 
ATOM     21  C   UNL     1       2.719   7.707  17.953  0.00  0.00    +0.000 A 
ATOM     22  C   UNL     1       3.153   6.399  17.685  0.00  0.00    +0.000 A 
ATOM     23  C   UNL     1       2.911   5.366  18.599  0.00  0.00    +0.000 A 
ATOM     24  C   UNL     1       2.293   5.669  19.820  0.00  0.00    +0.000 A 
ATOM     25 BR   UNL     1       1.985   4.335  21.137  0.00  0.00    +0.000 Br
ATOM     26  C   UNL     1       1.871   6.971  20.096  0.00  0.00    +0.000 A 
BRANCH  23  27
ATOM     27  O   UNL     1       3.296   4.068  18.387  0.00  0.00    +0.000 OA
ATOM     28  C   UNL     1       2.512   3.335  17.452  0.00  0.00    +0.000 C 
ENDBRANCH  23  27
ENDBRANCH  17  20
ENDBRANCH   8  16
BRANCH   1  30
ATOM     29  C   UNL     1       4.001  15.505  17.684  0.00  0.00    +0.000 C 
ATOM     30  C   UNL     1       3.563  15.356  19.133  0.00  0.00    +0.000 C 
ENDBRANCH   1  30
BRANCH   4  31
ATOM     31  C   UNL     1      -1.336  16.199  19.562  0.00  0.00    +0.000 C 
ATOM     32  C   UNL     1      -1.744  16.294  21.023  0.00  0.00    +0.000 C 
ENDBRANCH   4  31
TORSDOF 6
ENDMDL
MODEL 8
REMARK VINA RESULT:      -7.0      4.065      9.064
REMARK  Name = 
REMARK  9 active torsions:
REMARK  status: ('A' for Active; 'I' for Inactive)
REMARK    1  A    between atoms: C_1  and  C_2
REMARK    2  A    between atoms: C_2  and  N_3
REMARK    3  A    between atoms: N_6  and  C_7
REMARK    4  A    between atoms: C_7  and  C_8
REMARK    5  A    between atoms: C_11  and  N_12
REMARK    6  A    between atoms: C_17  and  N_18
REMARK    7  A    between atoms: C_19  and  C_21
REMARK    8  A    between atoms: C_24  and  O_25
REMARK    9  A    between atoms: O_25  and  C_26
REMARK                            x       y       z     vdW  Elec       q    Type
REMARK                         _______ _______ _______ _____ _____    ______ ____
ROOT
ATOM      1  N   UNL     1       1.456  14.463  21.047  0.00  0.00    +0.000 N 
ATOM      2  C   UNL     1       0.528  15.530  21.007  0.00  0.00    +0.000 A 
ATOM      3  O   UNL     1       0.706  16.673  21.381  0.00  0.00    +0.000 OA
ATOM      4  N   UNL     1      -0.651  14.997  20.442  0.00  0.00    +0.000 N 
ATOM      5  C   UNL     1      -0.429  13.659  20.090  0.00  0.00    +0.000 A 
ATOM      6  C   UNL     1      -1.262  12.748  19.463  0.00  0.00    +0.000 A 
ATOM      7  C   UNL     1      -0.794  11.440  19.220  0.00  0.00    +0.000 A 
ATOM      8  C   UNL     1       0.522  11.098  19.693  0.00  0.00    +0.000 A 
ATOM      9  C   UNL     1       1.355  12.053  20.314  0.00  0.00    +0.000 A 
ATOM     10  C   UNL     1       0.863  13.323  20.488  0.00  0.00    +0.000 A 
ENDROOT
BRANCH   7  11
ATOM     11  N   UNL     1      -1.602  10.459  18.597  0.00  0.00    +0.000 N 
ATOM     12  C   UNL     1      -1.317  10.032  17.214  0.00  0.00    +0.000 C 
ATOM     13  C   UNL     1      -2.570  10.359  16.411  0.00  0.00    +0.000 C 
ATOM     14  C   UNL     1      -3.690  10.278  17.427  0.00  0.00    +0.000 C 
ATOM     15  C   UNL     1      -3.052  10.707  18.745  0.00  0.00    +0.000 C 
ENDBRANCH   7  11
BRANCH   8  16
ATOM     16  N   UNL     1       1.014   9.781  19.507  0.00  0.00    +0.000 N 
ATOM     17  C   UNL     1       1.869   9.464  18.456  0.00  0.00    +0.000 C 
ATOM     18  O   UNL     1       2.288  10.261  17.622  0.00  0.00    +0.000 OA
ATOM     19  H   UNL     1       1.056   9.221  20.352  0.00  0.00    +0.000 HD
BRANCH  17  20
ATOM     20  C   UNL     1       2.391   8.075  18.410  0.00  0.00    +0.000 A 
ATOM     21  C   UNL     1       3.335   7.667  17.463  0.00  0.00    +0.000 A 
ATOM     22  C   UNL     1       3.824   6.352  17.487  0.00  0.00    +0.000 A 
ATOM     23  C   UNL     1       3.361   5.435  18.440  0.00  0.00    +0.000 A 
ATOM     24  C   UNL     1       2.455   5.870  19.417  0.00  0.00    +0.000 A 
ATOM     25 BR   UNL     1       1.827   4.704  20.779  0.00  0.00    +0.000 Br
ATOM     26  C   UNL     1       1.975   7.181  19.404  0.00  0.00    +0.000 A 
BRANCH  23  27
ATOM     27  O   UNL     1       3.789   4.135  18.504  0.00  0.00    +0.000 OA
ATOM     28  C   UNL     1       5.131   3.947  18.943  0.00  0.00    +0.000 C 
ENDBRANCH  23  27
ENDBRANCH  17  20
ENDBRANCH   8  16
BRANCH   1  30
ATOM     29  C   UNL     1       3.747  14.954  20.314  0.00  0.00    +0.000 C 
ATOM     30  C   UNL     1       2.828  14.590  21.470  0.00  0.00    +0.000 C 
ENDBRANCH   1  30
BRANCH   4  31
ATOM     31  C   UNL     1      -1.870  15.744  20.250  0.00  0.00    +0.000 C 
ATOM     32  C   UNL     1      -2.817  15.629  21.432  0.00  0.00    +0.000 C 
ENDBRANCH   4  31
TORSDOF 6
ENDMDL
MODEL 9
REMARK VINA RESULT:      -7.0      4.933      9.292
REMARK  Name = 
REMARK  9 active torsions:
REMARK  status: ('A' for Active; 'I' for Inactive)
REMARK    1  A    between atoms: C_1  and  C_2
REMARK    2  A    between atoms: C_2  and  N_3
REMARK    3  A    between atoms: N_6  and  C_7
REMARK    4  A    between atoms: C_7  and  C_8
REMARK    5  A    between atoms: C_11  and  N_12
REMARK    6  A    between atoms: C_17  and  N_18
REMARK    7  A    between atoms: C_19  and  C_21
REMARK    8  A    between atoms: C_24  and  O_25
REMARK    9  A    between atoms: O_25  and  C_26
REMARK                            x       y       z     vdW  Elec       q    Type
REMARK                         _______ _______ _______ _____ _____    ______ ____
ROOT
ATOM      1  N   UNL     1       2.331  15.682  18.463  0.00  0.00    +0.000 N 
ATOM      2  C   UNL     1       1.610  16.899  18.524  0.00  0.00    +0.000 A 
ATOM      3  O   UNL     1       1.924  17.964  18.028  0.00  0.00    +0.000 OA
ATOM      4  N   UNL     1       0.448  16.624  19.277  0.00  0.00    +0.000 N 
ATOM      5  C   UNL     1       0.429  15.264  19.615  0.00  0.00    +0.000 A 
ATOM      6  C   UNL     1      -0.524  14.524  20.293  0.00  0.00    +0.000 A 
ATOM      7  C   UNL     1      -0.301  13.148  20.510  0.00  0.00    +0.000 A 
ATOM      8  C   UNL     1       0.946  12.589  20.058  0.00  0.00    +0.000 A 
ATOM      9  C   UNL     1       1.891  13.365  19.353  0.00  0.00    +0.000 A 
ATOM     10  C   UNL     1       1.603  14.690  19.134  0.00  0.00    +0.000 A 
ENDROOT
BRANCH   7  11
ATOM     11  N   UNL     1      -1.229  12.340  21.210  0.00  0.00    +0.000 N 
ATOM     12  C   UNL     1      -2.660  12.370  20.849  0.00  0.00    +0.000 C 
ATOM     13  C   UNL     1      -3.396  12.827  22.101  0.00  0.00    +0.000 C 
ATOM     14  C   UNL     1      -2.512  12.362  23.239  0.00  0.00    +0.000 C 
ATOM     15  C   UNL     1      -1.093  12.423  22.680  0.00  0.00    +0.000 C 
ENDBRANCH   7  11
BRANCH   8  16
ATOM     16  N   UNL     1       1.227  11.219  20.294  0.00  0.00    +0.000 N 
ATOM     17  C   UNL     1       1.025  10.254  19.313  0.00  0.00    +0.000 C 
ATOM     18  O   UNL     1       0.616  10.477  18.177  0.00  0.00    +0.000 OA
ATOM     19  H   UNL     1       1.930  11.047  21.005  0.00  0.00    +0.000 HD
BRANCH  17  20
ATOM     20  C   UNL     1       1.436   8.865  19.640  0.00  0.00    +0.000 A 
ATOM     21  C   UNL     1       1.029   8.227  20.814  0.00  0.00    +0.000 A 
ATOM     22  C   UNL     1       1.416   6.900  21.057  0.00  0.00    +0.000 A 
ATOM     23  C   UNL     1       2.225   6.213  20.142  0.00  0.00    +0.000 A 
ATOM     24  C   UNL     1       2.582   6.846  18.944  0.00  0.00    +0.000 A 
ATOM     25 BR   UNL     1       3.626   5.960  17.626  0.00  0.00    +0.000 Br
ATOM     26  C   UNL     1       2.190   8.162  18.693  0.00  0.00    +0.000 A 
BRANCH  23  27
ATOM     27  O   UNL     1       2.647   4.923  20.331  0.00  0.00    +0.000 OA
ATOM     28  C   UNL     1       1.692   4.038  20.906  0.00  0.00    +0.000 C 
ENDBRANCH  23  27
ENDBRANCH  17  20
ENDBRANCH   8  16
BRANCH   1  30
ATOM     29  C   UNL     1       4.778  15.863  18.514  0.00  0.00    +0.000 C 
ATOM     30  C   UNL     1       3.543  15.489  17.709  0.00  0.00    +0.000 C 
ENDBRANCH   1  30
BRANCH   4  31
ATOM     31  C   UNL     1      -0.555  17.606  19.612  0.00  0.00    +0.000 C 
ATOM     32  C   UNL     1      -1.500  17.890  18.457  0.00  0.00    +0.000 C 
ENDBRANCH   4  31
TORSDOF 6
ENDMDL
