MODEL 1
REMARK VINA RESULT:      -7.2      0.000      0.000
REMARK  Name = 
REMARK  8 active torsions:
REMARK  status: ('A' for Active; 'I' for Inactive)
REMARK    1  A    between atoms: C_1  and  C_2
REMARK    2  A    between atoms: C_3  and  C_4
REMARK    3  A    between atoms: C_4  and  O_5
REMARK    4  A    between atoms: C_20  and  C_21
REMARK    5  A    between atoms: C_24  and  N_25
REMARK    6  A    between atoms: N_25  and  C_26
REMARK    7  A    between atoms: N_25  and  C_27
REMARK    8  A    between atoms: C_31  and  C_32
REMARK                            x       y       z     vdW  Elec       q    Type
REMARK                         _______ _______ _______ _____ _____    ______ ____
ROOT
ATOM      1  C   UNL     1      -3.107  14.758  24.667  0.00  0.00    +0.000 C 
ATOM      2  C   UNL     1      -2.155  15.388  23.740  0.00  0.00    +0.000 C 
ATOM      3  C   UNL     1      -1.180  14.258  23.847  0.00  0.00    +0.000 C 
ATOM      4  C   UNL     1      -1.278  14.111  22.408  0.00  0.00    +0.000 C 
ATOM      5  C   UNL     1       0.069  13.683  21.789  0.00  0.00    +0.000 C 
ATOM      6  O   UNL     1       1.012  14.476  22.501  0.00  0.00    +0.000 OA
ATOM      7  C   UNL     1       1.465  15.634  21.848  0.00  0.00    +0.000 C 
ATOM      8  C   UNL     1       2.124  15.122  20.654  0.00  0.00    +0.000 C 
ATOM      9  C   UNL     1       3.420  15.476  20.476  0.00  0.00    +0.000 C 
ATOM     10  C   UNL     1       3.155  16.781  19.897  0.00  0.00    +0.000 C 
ATOM     11  O   UNL     1       3.080  17.925  20.676  0.00  0.00    +0.000 OA
ATOM     12  C   UNL     1       2.910  16.736  18.477  0.00  0.00    +0.000 C 
ATOM     13  C   UNL     1       1.936  15.324  18.230  0.00  0.00    +0.000 C 
ATOM     14  C   UNL     1       1.242  14.621  19.624  0.00  0.00    +0.000 C 
ATOM     15  C   UNL     1       0.257  13.803  20.214  0.00  0.00    +0.000 C 
ATOM     16  C   UNL     1      -0.831  12.757  19.910  0.00  0.00    +0.000 C 
ATOM     17  C   UNL     1      -2.441  13.206  20.871  0.00  0.00    +0.000 C 
ATOM     18  C   UNL     1      -2.773  13.552  22.887  0.00  0.00    +0.000 C 
ATOM     19  C   UNL     1      -2.462  11.838  22.966  0.00  0.00    +0.000 C 
ENDROOT
BRANCH  16  20
ATOM     20  C   UNL     1       0.015  11.176  19.912  0.00  0.00    +0.000 A 
ATOM     21  C   UNL     1       0.613  10.735  18.722  0.00  0.00    +0.000 A 
ATOM     22  C   UNL     1       1.274   9.441  18.563  0.00  0.00    +0.000 A 
ATOM     23  C   UNL     1       1.573   8.513  19.559  0.00  0.00    +0.000 A 
ATOM     24  C   UNL     1       1.043   8.914  20.804  0.00  0.00    +0.000 A 
ATOM     25  C   UNL     1       0.329  10.243  20.993  0.00  0.00    +0.000 A 
BRANCH  23  26
ATOM     26  N   UNL     1       2.318   7.371  19.273  0.00  0.00    +0.000 N 
ATOM     27  C   UNL     1       2.230   6.164  20.134  0.00  0.00    +0.000 C 
ATOM     28  C   UNL     1       3.154   7.165  18.097  0.00  0.00    +0.000 C 
ENDBRANCH  23  26
ENDBRANCH  16  20
BRANCH   1  31
ATOM     29  C   UNL     1      -4.871  18.621  25.583  0.00  0.00    +0.000 C 
ATOM     30  C   UNL     1      -4.254  17.270  25.263  0.00  0.00    +0.000 C 
ATOM     31  C   UNL     1      -3.724  16.110  24.988  0.00  0.00    +0.000 C 
ENDBRANCH   1  31
BRANCH   1  32
ATOM     32  O   UNL     1      -4.167  13.871  24.895  0.00  0.00    +0.000 OA
ATOM     33  H   UNL     1      -4.279  13.362  24.067  0.00  0.00    +0.000 HD
ENDBRANCH   1  32
TORSDOF 4
ENDMDL
MODEL 2
REMARK VINA RESULT:      -6.6      0.856      1.319
REMARK  Name = 
REMARK  8 active torsions:
REMARK  status: ('A' for Active; 'I' for Inactive)
REMARK    1  A    between atoms: C_1  and  C_2
REMARK    2  A    between atoms: C_3  and  C_4
REMARK    3  A    between atoms: C_4  and  O_5
REMARK    4  A    between atoms: C_20  and  C_21
REMARK    5  A    between atoms: C_24  and  N_25
REMARK    6  A    between atoms: N_25  and  C_26
REMARK    7  A    between atoms: N_25  and  C_27
REMARK    8  A    between atoms: C_31  and  C_32
REMARK                            x       y       z     vdW  Elec       q    Type
REMARK                         _______ _______ _______ _____ _____    ______ ____
ROOT
ATOM      1  C   UNL     1      -2.629  14.368  24.017  0.00  0.00    +0.000 C 
ATOM      2  C   UNL     1      -1.613  15.023  23.179  0.00  0.00    +0.000 C 
ATOM      3  C   UNL     1      -0.675  13.860  23.268  0.00  0.00    +0.000 C 
ATOM      4  C   UNL     1      -0.701  13.800  21.820  0.00  0.00    +0.000 C 
ATOM      5  C   UNL     1       0.665  13.369  21.246  0.00  0.00    +0.000 C 
ATOM      6  O   UNL     1       1.589  14.092  22.050  0.00  0.00    +0.000 OA
ATOM      7  C   UNL     1       2.107  15.272  21.491  0.00  0.00    +0.000 C 
ATOM      8  C   UNL     1       2.814  14.811  20.304  0.00  0.00    +0.000 C 
ATOM      9  C   UNL     1       4.127  15.136  20.214  0.00  0.00    +0.000 C 
ATOM     10  C   UNL     1       3.926  16.480  19.701  0.00  0.00    +0.000 C 
ATOM     11  O   UNL     1       3.841  17.578  20.542  0.00  0.00    +0.000 OA
ATOM     12  C   UNL     1       3.756  16.525  18.270  0.00  0.00    +0.000 C 
ATOM     13  C   UNL     1       2.759  15.159  17.891  0.00  0.00    +0.000 C 
ATOM     14  C   UNL     1       1.975  14.396  19.203  0.00  0.00    +0.000 C 
ATOM     15  C   UNL     1       0.939  13.575  19.692  0.00  0.00    +0.000 C 
ATOM     16  C   UNL     1      -0.159  12.580  19.272  0.00  0.00    +0.000 C 
ATOM     17  C   UNL     1      -1.804  13.020  20.175  0.00  0.00    +0.000 C 
ATOM     18  C   UNL     1      -2.233  13.257  22.188  0.00  0.00    +0.000 C 
ATOM     19  C   UNL     1      -1.972  11.534  22.180  0.00  0.00    +0.000 C 
ENDROOT
BRANCH  16  20
ATOM     20  C   UNL     1       0.645  10.978  19.223  0.00  0.00    +0.000 A 
ATOM     21  C   UNL     1       0.406  10.076  20.272  0.00  0.00    +0.000 A 
ATOM     22  C   UNL     1       1.045   8.768  20.395  0.00  0.00    +0.000 A 
ATOM     23  C   UNL     1       1.845   8.122  19.454  0.00  0.00    +0.000 A 
ATOM     24  C   UNL     1       2.090   8.954  18.340  0.00  0.00    +0.000 A 
ATOM     25  C   UNL     1       1.459  10.329  18.197  0.00  0.00    +0.000 A 
BRANCH  23  26
ATOM     26  N   UNL     1       2.287   6.819  19.664  0.00  0.00    +0.000 N 
ATOM     27  C   UNL     1       3.446   6.272  18.912  0.00  0.00    +0.000 C 
ATOM     28  C   UNL     1       1.782   5.894  20.671  0.00  0.00    +0.000 C 
ENDBRANCH  23  26
ENDBRANCH  16  20
BRANCH   1  31
ATOM     29  C   UNL     1      -4.337  18.221  25.070  0.00  0.00    +0.000 C 
ATOM     30  C   UNL     1      -3.739  16.873  24.701  0.00  0.00    +0.000 C 
ATOM     31  C   UNL     1      -3.226  15.716  24.385  0.00  0.00    +0.000 C 
ENDBRANCH   1  31
BRANCH   1  32
ATOM     32  O   UNL     1      -3.722  13.500  24.137  0.00  0.00    +0.000 OA
ATOM     33  H   UNL     1      -3.420  12.757  24.696  0.00  0.00    +0.000 HD
ENDBRANCH   1  32
TORSDOF 4
ENDMDL
MODEL 3
REMARK VINA RESULT:      -6.5      1.321      1.937
REMARK  Name = 
REMARK  8 active torsions:
REMARK  status: ('A' for Active; 'I' for Inactive)
REMARK    1  A    between atoms: C_1  and  C_2
REMARK    2  A    between atoms: C_3  and  C_4
REMARK    3  A    between atoms: C_4  and  O_5
REMARK    4  A    between atoms: C_20  and  C_21
REMARK    5  A    between atoms: C_24  and  N_25
REMARK    6  A    between atoms: N_25  and  C_26
REMARK    7  A    between atoms: N_25  and  C_27
REMARK    8  A    between atoms: C_31  and  C_32
REMARK                            x       y       z     vdW  Elec       q    Type
REMARK                         _______ _______ _______ _____ _____    ______ ____
ROOT
ATOM      1  C   UNL     1      -2.553  13.163  23.532  0.00  0.00    +0.000 C 
ATOM      2  C   UNL     1      -1.583  13.909  22.716  0.00  0.00    +0.000 C 
ATOM      3  C   UNL     1      -0.544  12.837  22.827  0.00  0.00    +0.000 C 
ATOM      4  C   UNL     1      -0.532  12.777  21.378  0.00  0.00    +0.000 C 
ATOM      5  C   UNL     1       0.880  12.473  20.835  0.00  0.00    +0.000 C 
ATOM      6  O   UNL     1       1.716  13.277  21.660  0.00  0.00    +0.000 OA
ATOM      7  C   UNL     1       2.136  14.500  21.112  0.00  0.00    +0.000 C 
ATOM      8  C   UNL     1       2.909  14.107  19.941  0.00  0.00    +0.000 C 
ATOM      9  C   UNL     1       4.188  14.551  19.880  0.00  0.00    +0.000 C 
ATOM     10  C   UNL     1       3.877  15.871  19.362  0.00  0.00    +0.000 C 
ATOM     11  O   UNL     1       3.672  16.956  20.200  0.00  0.00    +0.000 OA
ATOM     12  C   UNL     1       3.735  15.902  17.927  0.00  0.00    +0.000 C 
ATOM     13  C   UNL     1       2.876  14.451  17.527  0.00  0.00    +0.000 C 
ATOM     14  C   UNL     1       2.136  13.619  18.821  0.00  0.00    +0.000 C 
ATOM     15  C   UNL     1       1.168  12.705  19.288  0.00  0.00    +0.000 C 
ATOM     16  C   UNL     1       0.176  11.615  18.844  0.00  0.00    +0.000 C 
ATOM     17  C   UNL     1      -1.523  11.901  19.710  0.00  0.00    +0.000 C 
ATOM     18  C   UNL     1      -2.016  12.096  21.713  0.00  0.00    +0.000 C 
ATOM     19  C   UNL     1      -1.598  10.404  21.712  0.00  0.00    +0.000 C 
ENDROOT
BRANCH  16  20
ATOM     20  C   UNL     1       1.124  10.093  18.815  0.00  0.00    +0.000 A 
ATOM     21  C   UNL     1       1.060   9.242  19.929  0.00  0.00    +0.000 A 
ATOM     22  C   UNL     1       1.830   8.008  20.069  0.00  0.00    +0.000 A 
ATOM     23  C   UNL     1       2.609   7.380  19.098  0.00  0.00    +0.000 A 
ATOM     24  C   UNL     1       2.680   8.157  17.922  0.00  0.00    +0.000 A 
ATOM     25  C   UNL     1       1.910   9.457  17.759  0.00  0.00    +0.000 A 
BRANCH  23  26
ATOM     26  N   UNL     1       3.190   6.138  19.341  0.00  0.00    +0.000 N 
ATOM     27  C   UNL     1       2.423   5.047  19.997  0.00  0.00    +0.000 C 
ATOM     28  C   UNL     1       4.517   5.714  18.911  0.00  0.00    +0.000 C 
ENDBRANCH  23  26
ENDBRANCH  16  20
BRANCH   1  31
ATOM     29  C   UNL     1      -4.628  16.843  24.544  0.00  0.00    +0.000 C 
ATOM     30  C   UNL     1      -3.902  15.555  24.190  0.00  0.00    +0.000 C 
ATOM     31  C   UNL     1      -3.279  14.451  23.886  0.00  0.00    +0.000 C 
ENDBRANCH   1  31
BRANCH   1  32
ATOM     32  O   UNL     1      -3.564  12.199  23.628  0.00  0.00    +0.000 OA
ATOM     33  H   UNL     1      -3.149  11.407  24.023  0.00  0.00    +0.000 HD
ENDBRANCH   1  32
TORSDOF 4
ENDMDL
MODEL 4
REMARK VINA RESULT:      -6.1      3.453      7.987
REMARK  Name = 
REMARK  8 active torsions:
REMARK  status: ('A' for Active; 'I' for Inactive)
REMARK    1  A    between atoms: C_1  and  C_2
REMARK    2  A    between atoms: C_3  and  C_4
REMARK    3  A    between atoms: C_4  and  O_5
REMARK    4  A    between atoms: C_20  and  C_21
REMARK    5  A    between atoms: C_24  and  N_25
REMARK    6  A    between atoms: N_25  and  C_26
REMARK    7  A    between atoms: N_25  and  C_27
REMARK    8  A    between atoms: C_31  and  C_32
REMARK                            x       y       z     vdW  Elec       q    Type
REMARK                         _______ _______ _______ _____ _____    ______ ____
ROOT
ATOM      1  C   UNL     1       2.027   6.577  19.568  0.00  0.00    +0.000 C 
ATOM      2  C   UNL     1       2.569   7.941  19.477  0.00  0.00    +0.000 C 
ATOM      3  C   UNL     1       1.252   8.525  19.073  0.00  0.00    +0.000 C 
ATOM      4  C   UNL     1       1.352   9.403  20.221  0.00  0.00    +0.000 C 
ATOM      5  C   UNL     1       0.741  10.790  19.930  0.00  0.00    +0.000 C 
ATOM      6  O   UNL     1       1.192  11.063  18.608  0.00  0.00    +0.000 OA
ATOM      7  C   UNL     1       2.310  11.906  18.497  0.00  0.00    +0.000 C 
ATOM      8  C   UNL     1       1.856  13.161  19.082  0.00  0.00    +0.000 C 
ATOM      9  C   UNL     1       1.943  14.263  18.298  0.00  0.00    +0.000 C 
ATOM     10  C   UNL     1       3.347  14.532  18.550  0.00  0.00    +0.000 C 
ATOM     11  O   UNL     1       4.347  14.027  17.734  0.00  0.00    +0.000 OA
ATOM     12  C   UNL     1       3.575  15.296  19.752  0.00  0.00    +0.000 C 
ATOM     13  C   UNL     1       2.464  14.651  20.915  0.00  0.00    +0.000 C 
ATOM     14  C   UNL     1       1.723  13.163  20.521  0.00  0.00    +0.000 C 
ATOM     15  C   UNL     1       1.058  11.988  20.928  0.00  0.00    +0.000 C 
ATOM     16  C   UNL     1       0.333  11.319  22.109  0.00  0.00    +0.000 C 
ATOM     17  C   UNL     1       0.968   9.511  22.313  0.00  0.00    +0.000 C 
ATOM     18  C   UNL     1       1.064   7.940  20.965  0.00  0.00    +0.000 C 
ATOM     19  C   UNL     1      -0.667   8.013  21.154  0.00  0.00    +0.000 C 
ENDROOT
BRANCH  16  20
ATOM     20  C   UNL     1      -1.376  11.849  21.980  0.00  0.00    +0.000 A 
ATOM     21  C   UNL     1      -2.125  11.987  23.158  0.00  0.00    +0.000 A 
ATOM     22  C   UNL     1      -3.542  12.343  23.197  0.00  0.00    +0.000 A 
ATOM     23  C   UNL     1      -4.341  12.762  22.134  0.00  0.00    +0.000 A 
ATOM     24  C   UNL     1      -3.636  12.698  20.913  0.00  0.00    +0.000 A 
ATOM     25  C   UNL     1      -2.169  12.306  20.840  0.00  0.00    +0.000 A 
BRANCH  23  26
ATOM     26  N   UNL     1      -5.650  13.186  22.346  0.00  0.00    +0.000 N 
ATOM     27  C   UNL     1      -6.291  13.057  23.680  0.00  0.00    +0.000 C 
ATOM     28  C   UNL     1      -6.493  13.880  21.380  0.00  0.00    +0.000 C 
ENDBRANCH  23  26
ENDBRANCH  16  20
BRANCH   1  31
ATOM     29  C   UNL     1       5.994   4.894  19.018  0.00  0.00    +0.000 C 
ATOM     30  C   UNL     1       4.606   5.483  19.210  0.00  0.00    +0.000 C 
ATOM     31  C   UNL     1       3.415   5.988  19.375  0.00  0.00    +0.000 C 
ENDBRANCH   1  31
BRANCH   1  32
ATOM     32  O   UNL     1       1.367   5.584  20.303  0.00  0.00    +0.000 OA
ATOM     33  H   UNL     1       1.199   4.850  19.680  0.00  0.00    +0.000 HD
ENDBRANCH   1  32
TORSDOF 4
ENDMDL
MODEL 5
REMARK VINA RESULT:      -6.1      1.892      2.136
REMARK  Name = 
REMARK  8 active torsions:
REMARK  status: ('A' for Active; 'I' for Inactive)
REMARK    1  A    between atoms: C_1  and  C_2
REMARK    2  A    between atoms: C_3  and  C_4
REMARK    3  A    between atoms: C_4  and  O_5
REMARK    4  A    between atoms: C_20  and  C_21
REMARK    5  A    between atoms: C_24  and  N_25
REMARK    6  A    between atoms: N_25  and  C_26
REMARK    7  A    between atoms: N_25  and  C_27
REMARK    8  A    between atoms: C_31  and  C_32
REMARK                            x       y       z     vdW  Elec       q    Type
REMARK                         _______ _______ _______ _____ _____    ______ ____
ROOT
ATOM      1  C   UNL     1      -3.318  14.549  21.786  0.00  0.00    +0.000 C 
ATOM      2  C   UNL     1      -1.972  15.031  21.439  0.00  0.00    +0.000 C 
ATOM      3  C   UNL     1      -1.313  13.774  21.916  0.00  0.00    +0.000 C 
ATOM      4  C   UNL     1      -0.751  13.632  20.587  0.00  0.00    +0.000 C 
ATOM      5  C   UNL     1       0.661  13.011  20.632  0.00  0.00    +0.000 C 
ATOM      6  O   UNL     1       1.261  13.669  21.743  0.00  0.00    +0.000 OA
ATOM      7  C   UNL     1       2.110  14.745  21.441  0.00  0.00    +0.000 C 
ATOM      8  C   UNL     1       3.176  14.136  20.655  0.00  0.00    +0.000 C 
ATOM      9  C   UNL     1       4.440  14.300  21.115  0.00  0.00    +0.000 C 
ATOM     10  C   UNL     1       4.644  15.625  20.557  0.00  0.00    +0.000 C 
ATOM     11  O   UNL     1       4.366  16.774  21.280  0.00  0.00    +0.000 OA
ATOM     12  C   UNL     1       5.082  15.605  19.183  0.00  0.00    +0.000 C 
ATOM     13  C   UNL     1       4.159  14.344  18.433  0.00  0.00    +0.000 C 
ATOM     14  C   UNL     1       2.815  13.757  19.308  0.00  0.00    +0.000 C 
ATOM     15  C   UNL     1       1.571  13.092  19.329  0.00  0.00    +0.000 C 
ATOM     16  C   UNL     1       0.623  12.209  18.499  0.00  0.00    +0.000 C 
ATOM     17  C   UNL     1      -1.175  12.889  18.637  0.00  0.00    +0.000 C 
ATOM     18  C   UNL     1      -2.356  13.294  20.291  0.00  0.00    +0.000 C 
ATOM     19  C   UNL     1      -2.342  11.554  20.403  0.00  0.00    +0.000 C 
ENDROOT
BRANCH  16  20
ATOM     20  C   UNL     1       1.159  10.523  18.796  0.00  0.00    +0.000 A 
ATOM     21  C   UNL     1       1.987   9.906  17.846  0.00  0.00    +0.000 A 
ATOM     22  C   UNL     1       2.441   8.519  17.925  0.00  0.00    +0.000 A 
ATOM     23  C   UNL     1       2.289   7.637  18.994  0.00  0.00    +0.000 A 
ATOM     24  C   UNL     1       1.504   8.209  20.017  0.00  0.00    +0.000 A 
ATOM     25  C   UNL     1       0.996   9.640  19.949  0.00  0.00    +0.000 A 
BRANCH  23  26
ATOM     26  N   UNL     1       2.884   6.378  18.973  0.00  0.00    +0.000 N 
ATOM     27  C   UNL     1       2.805   5.474  20.149  0.00  0.00    +0.000 C 
ATOM     28  C   UNL     1       3.532   5.755  17.825  0.00  0.00    +0.000 C 
ENDBRANCH  23  26
ENDBRANCH  16  20
BRANCH   1  31
ATOM     29  C   UNL     1      -4.788  18.631  22.016  0.00  0.00    +0.000 C 
ATOM     30  C   UNL     1      -4.274  17.203  21.935  0.00  0.00    +0.000 C 
ATOM     31  C   UNL     1      -3.832  15.977  21.867  0.00  0.00    +0.000 C 
ENDBRANCH   1  31
BRANCH   1  32
ATOM     32  O   UNL     1      -4.467  13.823  21.448  0.00  0.00    +0.000 OA
ATOM     33  H   UNL     1      -4.964  13.697  22.281  0.00  0.00    +0.000 HD
ENDBRANCH   1  32
TORSDOF 4
ENDMDL
MODEL 6
REMARK VINA RESULT:      -6.0      1.814      2.317
REMARK  Name = 
REMARK  8 active torsions:
REMARK  status: ('A' for Active; 'I' for Inactive)
REMARK    1  A    between atoms: C_1  and  C_2
REMARK    2  A    between atoms: C_3  and  C_4
REMARK    3  A    between atoms: C_4  and  O_5
REMARK    4  A    between atoms: C_20  and  C_21
REMARK    5  A    between atoms: C_24  and  N_25
REMARK    6  A    between atoms: N_25  and  C_26
REMARK    7  A    between atoms: N_25  and  C_27
REMARK    8  A    between atoms: C_31  and  C_32
REMARK                            x       y       z     vdW  Elec       q    Type
REMARK                         _______ _______ _______ _____ _____    ______ ____
ROOT
ATOM      1  C   UNL     1      -3.461  13.987  21.909  0.00  0.00    +0.000 C 
ATOM      2  C   UNL     1      -2.155  14.584  21.588  0.00  0.00    +0.000 C 
ATOM      3  C   UNL     1      -1.404  13.352  21.985  0.00  0.00    +0.000 C 
ATOM      4  C   UNL     1      -0.844  13.331  20.648  0.00  0.00    +0.000 C 
ATOM      5  C   UNL     1       0.610  12.812  20.651  0.00  0.00    +0.000 C 
ATOM      6  O   UNL     1       1.169  13.443  21.798  0.00  0.00    +0.000 OA
ATOM      7  C   UNL     1       1.937  14.594  21.559  0.00  0.00    +0.000 C 
ATOM      8  C   UNL     1       3.037  14.111  20.735  0.00  0.00    +0.000 C 
ATOM      9  C   UNL     1       4.290  14.338  21.200  0.00  0.00    +0.000 C 
ATOM     10  C   UNL     1       4.394  15.705  20.723  0.00  0.00    +0.000 C 
ATOM     11  O   UNL     1       4.040  16.786  21.515  0.00  0.00    +0.000 OA
ATOM     12  C   UNL     1       4.822  15.800  19.349  0.00  0.00    +0.000 C 
ATOM     13  C   UNL     1       3.986  14.523  18.527  0.00  0.00    +0.000 C 
ATOM     14  C   UNL     1       2.694  13.789  19.368  0.00  0.00    +0.000 C 
ATOM     15  C   UNL     1       1.502  13.036  19.353  0.00  0.00    +0.000 C 
ATOM     16  C   UNL     1       0.613  12.139  18.473  0.00  0.00    +0.000 C 
ATOM     17  C   UNL     1      -1.228  12.678  18.659  0.00  0.00    +0.000 C 
ATOM     18  C   UNL     1      -2.422  12.896  20.338  0.00  0.00    +0.000 C 
ATOM     19  C   UNL     1      -2.283  11.159  20.343  0.00  0.00    +0.000 C 
ENDROOT
BRANCH  16  20
ATOM     20  C   UNL     1       1.271  10.481  18.666  0.00  0.00    +0.000 A 
ATOM     21  C   UNL     1       0.922   9.752  19.813  0.00  0.00    +0.000 A 
ATOM     22  C   UNL     1       1.438   8.422  20.132  0.00  0.00    +0.000 A 
ATOM     23  C   UNL     1       2.204   7.591  19.316  0.00  0.00    +0.000 A 
ATOM     24  C   UNL     1       2.555   8.243  18.114  0.00  0.00    +0.000 A 
ATOM     25  C   UNL     1       2.054   9.635  17.768  0.00  0.00    +0.000 A 
BRANCH  23  26
ATOM     26  N   UNL     1       2.522   6.294  19.711  0.00  0.00    +0.000 N 
ATOM     27  C   UNL     1       3.754   5.624  19.221  0.00  0.00    +0.000 C 
ATOM     28  C   UNL     1       1.798   5.495  20.693  0.00  0.00    +0.000 C 
ENDBRANCH  23  26
ENDBRANCH  16  20
BRANCH   1  31
ATOM     29  C   UNL     1      -5.218  17.931  22.390  0.00  0.00    +0.000 C 
ATOM     30  C   UNL     1      -4.604  16.551  22.222  0.00  0.00    +0.000 C 
ATOM     31  C   UNL     1      -4.076  15.367  22.077  0.00  0.00    +0.000 C 
ENDBRANCH   1  31
BRANCH   1  32
ATOM     32  O   UNL     1      -4.558  13.202  21.531  0.00  0.00    +0.000 OA
ATOM     33  H   UNL     1      -4.485  13.080  20.564  0.00  0.00    +0.000 HD
ENDBRANCH   1  32
TORSDOF 4
ENDMDL
MODEL 7
REMARK VINA RESULT:      -6.0      6.327      9.478
REMARK  Name = 
REMARK  8 active torsions:
REMARK  status: ('A' for Active; 'I' for Inactive)
REMARK    1  A    between atoms: C_1  and  C_2
REMARK    2  A    between atoms: C_3  and  C_4
REMARK    3  A    between atoms: C_4  and  O_5
REMARK    4  A    between atoms: C_20  and  C_21
REMARK    5  A    between atoms: C_24  and  N_25
REMARK    6  A    between atoms: N_25  and  C_26
REMARK    7  A    between atoms: N_25  and  C_27
REMARK    8  A    between atoms: C_31  and  C_32
REMARK                            x       y       z     vdW  Elec       q    Type
REMARK                         _______ _______ _______ _____ _____    ______ ____
ROOT
ATOM      1  C   UNL     1       8.541  15.346  25.714  0.00  0.00    +0.000 C 
ATOM      2  C   UNL     1       9.252  14.872  24.517  0.00  0.00    +0.000 C 
ATOM      3  C   UNL     1       8.085  14.061  24.047  0.00  0.00    +0.000 C 
ATOM      4  C   UNL     1       8.126  14.819  22.812  0.00  0.00    +0.000 C 
ATOM      5  C   UNL     1       7.735  13.949  21.600  0.00  0.00    +0.000 C 
ATOM      6  O   UNL     1       8.399  12.719  21.865  0.00  0.00    +0.000 OA
ATOM      7  C   UNL     1       9.615  12.514  21.193  0.00  0.00    +0.000 C 
ATOM      8  C   UNL     1       9.238  12.522  19.785  0.00  0.00    +0.000 C 
ATOM      9  C   UNL     1       9.567  11.425  19.061  0.00  0.00    +0.000 C 
ATOM     10  C   UNL     1      10.944  11.809  18.802  0.00  0.00    +0.000 C 
ATOM     11  O   UNL     1      11.981  11.417  19.634  0.00  0.00    +0.000 OA
ATOM     12  C   UNL     1      11.089  12.679  17.662  0.00  0.00    +0.000 C 
ATOM     13  C   UNL     1       9.754  13.780  17.760  0.00  0.00    +0.000 C 
ATOM     14  C   UNL     1       8.902  13.818  19.240  0.00  0.00    +0.000 C 
ATOM     15  C   UNL     1       8.049  14.493  20.138  0.00  0.00    +0.000 C 
ATOM     16  C   UNL     1       7.088  15.687  20.274  0.00  0.00    +0.000 C 
ATOM     17  C   UNL     1       7.464  16.631  21.913  0.00  0.00    +0.000 C 
ATOM     18  C   UNL     1       7.561  15.972  23.874  0.00  0.00    +0.000 C 
ATOM     19  C   UNL     1       5.842  15.814  23.632  0.00  0.00    +0.000 C 
ENDROOT
BRANCH  16  20
ATOM     20  C   UNL     1       5.492  15.078  19.729  0.00  0.00    +0.000 A 
ATOM     21  C   UNL     1       4.479  14.905  20.684  0.00  0.00    +0.000 A 
ATOM     22  C   UNL     1       3.157  14.353  20.393  0.00  0.00    +0.000 A 
ATOM     23  C   UNL     1       2.614  14.068  19.141  0.00  0.00    +0.000 A 
ATOM     24  C   UNL     1       3.565  14.267  18.117  0.00  0.00    +0.000 A 
ATOM     25  C   UNL     1       4.956  14.815  18.395  0.00  0.00    +0.000 A 
BRANCH  23  26
ATOM     26  N   UNL     1       1.290  13.658  19.011  0.00  0.00    +0.000 N 
ATOM     27  C   UNL     1       0.190  14.648  18.883  0.00  0.00    +0.000 C 
ATOM     28  C   UNL     1       0.827  12.282  18.876  0.00  0.00    +0.000 C 
ENDBRANCH  23  26
ENDBRANCH  16  20
BRANCH   1  31
ATOM     29  C   UNL     1      12.313  16.144  27.716  0.00  0.00    +0.000 C 
ATOM     30  C   UNL     1      10.993  15.865  27.016  0.00  0.00    +0.000 C 
ATOM     31  C   UNL     1       9.861  15.625  26.415  0.00  0.00    +0.000 C 
ENDBRANCH   1  31
BRANCH   1  32
ATOM     32  O   UNL     1       7.668  16.259  26.321  0.00  0.00    +0.000 OA
ATOM     33  H   UNL     1       7.788  16.150  27.285  0.00  0.00    +0.000 HD
ENDBRANCH   1  32
TORSDOF 4
ENDMDL
MODEL 8
REMARK VINA RESULT:      -5.8      2.918      4.140
REMARK  Name = 
REMARK  8 active torsions:
REMARK  status: ('A' for Active; 'I' for Inactive)
REMARK    1  A    between atoms: C_1  and  C_2
REMARK    2  A    between atoms: C_3  and  C_4
REMARK    3  A    between atoms: C_4  and  O_5
REMARK    4  A    between atoms: C_20  and  C_21
REMARK    5  A    between atoms: C_24  and  N_25
REMARK    6  A    between atoms: N_25  and  C_26
REMARK    7  A    between atoms: N_25  and  C_27
REMARK    8  A    between atoms: C_31  and  C_32
REMARK                            x       y       z     vdW  Elec       q    Type
REMARK                         _______ _______ _______ _____ _____    ______ ____
ROOT
ATOM      1  C   UNL     1      -5.445  12.102  18.933  0.00  0.00    +0.000 C 
ATOM      2  C   UNL     1      -4.268  12.965  19.115  0.00  0.00    +0.000 C 
ATOM      3  C   UNL     1      -3.567  11.962  19.977  0.00  0.00    +0.000 C 
ATOM      4  C   UNL     1      -2.470  11.998  19.029  0.00  0.00    +0.000 C 
ATOM      5  C   UNL     1      -1.107  11.829  19.732  0.00  0.00    +0.000 C 
ATOM      6  O   UNL     1      -1.250  12.633  20.897  0.00  0.00    +0.000 OA
ATOM      7  C   UNL     1      -0.681  13.915  20.839  0.00  0.00    +0.000 C 
ATOM      8  C   UNL     1       0.740  13.654  20.648  0.00  0.00    +0.000 C 
ATOM      9  C   UNL     1       1.584  14.189  21.564  0.00  0.00    +0.000 C 
ATOM     10  C   UNL     1       1.642  15.515  20.976  0.00  0.00    +0.000 C 
ATOM     11  O   UNL     1       0.779  16.527  21.367  0.00  0.00    +0.000 OA
ATOM     12  C   UNL     1       2.618  15.630  19.921  0.00  0.00    +0.000 C 
ATOM     13  C   UNL     1       2.490  14.153  19.024  0.00  0.00    +0.000 C 
ATOM     14  C   UNL     1       1.115  13.188  19.332  0.00  0.00    +0.000 C 
ATOM     15  C   UNL     1       0.217  12.181  18.923  0.00  0.00    +0.000 C 
ATOM     16  C   UNL     1      -0.000  11.056  17.895  0.00  0.00    +0.000 C 
ATOM     17  C   UNL     1      -1.791  11.167  17.190  0.00  0.00    +0.000 C 
ATOM     18  C   UNL     1      -3.631  11.195  18.142  0.00  0.00    +0.000 C 
ATOM     19  C   UNL     1      -3.196   9.540  18.470  0.00  0.00    +0.000 C 
ENDROOT
BRANCH  16  20
ATOM     20  C   UNL     1       0.789   9.608  18.599  0.00  0.00    +0.000 A 
ATOM     21  C   UNL     1       1.570   8.797  17.762  0.00  0.00    +0.000 A 
ATOM     22  C   UNL     1       2.212   7.554  18.185  0.00  0.00    +0.000 A 
ATOM     23  C   UNL     1       2.311   7.048  19.480  0.00  0.00    +0.000 A 
ATOM     24  C   UNL     1       1.586   7.844  20.393  0.00  0.00    +0.000 A 
ATOM     25  C   UNL     1       0.888   9.128  19.976  0.00  0.00    +0.000 A 
BRANCH  23  26
ATOM     26  N   UNL     1       3.062   5.906  19.747  0.00  0.00    +0.000 N 
ATOM     27  C   UNL     1       2.500   4.791  20.552  0.00  0.00    +0.000 C 
ATOM     28  C   UNL     1       4.385   5.606  19.213  0.00  0.00    +0.000 C 
ENDBRANCH  23  26
ENDBRANCH  16  20
BRANCH   1  31
ATOM     29  C   UNL     1      -7.915  15.555  18.012  0.00  0.00    +0.000 C 
ATOM     30  C   UNL     1      -7.051  14.346  18.334  0.00  0.00    +0.000 C 
ATOM     31  C   UNL     1      -6.309  13.310  18.610  0.00  0.00    +0.000 C 
ENDBRANCH   1  31
BRANCH   1  32
ATOM     32  O   UNL     1      -6.091  11.066  18.246  0.00  0.00    +0.000 OA
ATOM     33  H   UNL     1      -6.954  10.942  18.689  0.00  0.00    +0.000 HD
ENDBRANCH   1  32
TORSDOF 4
ENDMDL
MODEL 9
REMARK VINA RESULT:      -5.8      3.311      7.129
REMARK  Name = 
REMARK  8 active torsions:
REMARK  status: ('A' for Active; 'I' for Inactive)
REMARK    1  A    between atoms: C_1  and  C_2
REMARK    2  A    between atoms: C_3  and  C_4
REMARK    3  A    between atoms: C_4  and  O_5
REMARK    4  A    between atoms: C_20  and  C_21
REMARK    5  A    between atoms: C_24  and  N_25
REMARK    6  A    between atoms: N_25  and  C_26
REMARK    7  A    between atoms: N_25  and  C_27
REMARK    8  A    between atoms: C_31  and  C_32
REMARK                            x       y       z     vdW  Elec       q    Type
REMARK                         _______ _______ _______ _____ _____    ______ ____
ROOT
ATOM      1  C   UNL     1       3.734  14.853  18.728  0.00  0.00    +0.000 C 
ATOM      2  C   UNL     1       3.178  15.302  20.014  0.00  0.00    +0.000 C 
ATOM      3  C   UNL     1       1.809  15.505  19.443  0.00  0.00    +0.000 C 
ATOM      4  C   UNL     1       1.315  14.581  20.445  0.00  0.00    +0.000 C 
ATOM      5  C   UNL     1      -0.095  14.974  20.932  0.00  0.00    +0.000 C 
ATOM      6  O   UNL     1      -0.007  16.389  21.050  0.00  0.00    +0.000 OA
ATOM      7  C   UNL     1       0.212  16.891  22.344  0.00  0.00    +0.000 C 
ATOM      8  C   UNL     1      -0.962  16.453  23.087  0.00  0.00    +0.000 C 
ATOM      9  C   UNL     1      -1.691  17.420  23.696  0.00  0.00    +0.000 C 
ATOM     10  C   UNL     1      -0.855  17.533  24.878  0.00  0.00    +0.000 C 
ATOM     11  O   UNL     1       0.186  18.446  24.953  0.00  0.00    +0.000 OA
ATOM     12  C   UNL     1      -1.176  16.566  25.899  0.00  0.00    +0.000 C 
ATOM     13  C   UNL     1      -1.488  15.092  25.042  0.00  0.00    +0.000 C 
ATOM     14  C   UNL     1      -1.008  15.044  23.404  0.00  0.00    +0.000 C 
ATOM     15  C   UNL     1      -0.660  14.299  22.258  0.00  0.00    +0.000 C 
ATOM     16  C   UNL     1      -0.677  12.888  21.644  0.00  0.00    +0.000 C 
ATOM     17  C   UNL     1       1.040  12.509  20.852  0.00  0.00    +0.000 C 
ATOM     18  C   UNL     1       2.147  13.544  19.440  0.00  0.00    +0.000 C 
ATOM     19  C   UNL     1       0.855  12.997  18.406  0.00  0.00    +0.000 C 
ENDROOT
BRANCH  16  20
ATOM     20  C   UNL     1      -2.280  12.731  20.855  0.00  0.00    +0.000 A 
ATOM     21  C   UNL     1      -2.366  12.024  19.647  0.00  0.00    +0.000 A 
ATOM     22  C   UNL     1      -3.591  11.878  18.863  0.00  0.00    +0.000 A 
ATOM     23  C   UNL     1      -4.884  12.247  19.232  0.00  0.00    +0.000 A 
ATOM     24  C   UNL     1      -4.884  12.925  20.470  0.00  0.00    +0.000 A 
ATOM     25  C   UNL     1      -3.621  13.115  21.294  0.00  0.00    +0.000 A 
BRANCH  23  26
ATOM     26  N   UNL     1      -5.976  11.933  18.427  0.00  0.00    +0.000 N 
ATOM     27  C   UNL     1      -6.358  12.799  17.282  0.00  0.00    +0.000 C 
ATOM     28  C   UNL     1      -6.785  10.723  18.514  0.00  0.00    +0.000 C 
ENDBRANCH  23  26
ENDBRANCH  16  20
BRANCH   1  31
ATOM     29  C   UNL     1       7.739  15.949  20.003  0.00  0.00    +0.000 C 
ATOM     30  C   UNL     1       6.338  15.566  19.557  0.00  0.00    +0.000 C 
ATOM     31  C   UNL     1       5.135  15.237  19.174  0.00  0.00    +0.000 C 
ENDBRANCH   1  31
BRANCH   1  32
ATOM     32  O   UNL     1       3.971  13.827  17.805  0.00  0.00    +0.000 OA
ATOM     33  H   UNL     1       4.845  13.451  18.035  0.00  0.00    +0.000 HD
ENDBRANCH   1  32
TORSDOF 4
ENDMDL
