MODEL 1
REMARK VINA RESULT:      -7.1      0.000      0.000
REMARK  Name = 
REMARK  4 active torsions:
REMARK  status: ('A' for Active; 'I' for Inactive)
REMARK    1  A    between atoms: N_3  and  C_4
REMARK    2  A    between atoms: C_4  and  C_5
REMARK    3  A    between atoms: N_13  and  C_14
REMARK    4  A    between atoms: C_16  and  C_17
REMARK                            x       y       z     vdW  Elec       q    Type
REMARK                         _______ _______ _______ _____ _____    ______ ____
ROOT
ATOM      1  O   UNL     1       8.066  10.320  17.446  0.00  0.00    +0.000 OA
ATOM      2  C   UNL     1       8.497   9.539  18.281  0.00  0.00    +0.000 C 
ATOM      3  N   UNL     1       8.308   8.182  18.239  0.00  0.00    +0.000 N 
ATOM      4  N   UNL     1       9.240   9.910  19.374  0.00  0.00    +0.000 N 
ATOM      5  H   UNL     1       8.992   7.613  18.716  0.00  0.00    +0.000 HD
ATOM      6  H   UNL     1       9.323   9.211  20.099  0.00  0.00    +0.000 HD
ENDROOT
BRANCH   4   7
ATOM      7  C   UNL     1       9.641  11.298  19.633  0.00  0.00    +0.000 C 
ATOM      8  C   UNL     1      10.001  11.650  21.097  0.00  0.00    +0.000 C 
ATOM      9  C   UNL     1      11.188  12.492  20.541  0.00  0.00    +0.000 C 
ATOM     10  C   UNL     1      11.123  11.575  19.291  0.00  0.00    +0.000 C 
BRANCH   9  11
ATOM     11  C   UNL     1      10.958  13.969  20.300  0.00  0.00    +0.000 C 
ATOM     12  F   UNL     1      10.475  14.592  21.396  0.00  0.00    +0.000 F 
ATOM     13  F   UNL     1      12.118  14.571  19.953  0.00  0.00    +0.000 F 
ATOM     14  F   UNL     1      10.079  14.164  19.290  0.00  0.00    +0.000 F 
ENDBRANCH   9  11
ENDBRANCH   4   7
BRANCH   3  15
ATOM     15  C   UNL     1       7.542   7.548  17.171  0.00  0.00    +0.000 C 
BRANCH  15  16
ATOM     16  C   UNL     1       6.413   6.645  17.673  0.00  0.00    +0.000 C 
ATOM     17  C   UNL     1       5.360   6.370  16.592  0.00  0.00    +0.000 C 
ATOM     18  C   UNL     1       4.207   5.498  17.095  0.00  0.00    +0.000 C 
ATOM     19  C   UNL     1       4.658   4.124  17.585  0.00  0.00    +0.000 C 
ATOM     20  C   UNL     1       5.647   4.215  18.737  0.00  0.00    +0.000 C 
ATOM     21  S   UNL     1       7.113   5.105  18.260  0.00  0.00    +0.000 S 
ATOM     22  O   UNL     1       7.879   5.369  19.461  0.00  0.00    +0.000 OA
ATOM     23  O   UNL     1       7.716   4.415  17.136  0.00  0.00    +0.000 OA
ENDBRANCH  15  16
ENDBRANCH   3  15
TORSDOF 4
ENDMDL
MODEL 2
REMARK VINA RESULT:      -7.1      1.921      2.285
REMARK  Name = 
REMARK  4 active torsions:
REMARK  status: ('A' for Active; 'I' for Inactive)
REMARK    1  A    between atoms: N_3  and  C_4
REMARK    2  A    between atoms: C_4  and  C_5
REMARK    3  A    between atoms: N_13  and  C_14
REMARK    4  A    between atoms: C_16  and  C_17
REMARK                            x       y       z     vdW  Elec       q    Type
REMARK                         _______ _______ _______ _____ _____    ______ ____
ROOT
ATOM      1  O   UNL     1       8.563   7.572  18.797  0.00  0.00    +0.000 OA
ATOM      2  C   UNL     1       8.041   8.289  17.957  0.00  0.00    +0.000 C 
ATOM      3  N   UNL     1       7.051   7.879  17.101  0.00  0.00    +0.000 N 
ATOM      4  N   UNL     1       8.364   9.608  17.759  0.00  0.00    +0.000 N 
ATOM      5  H   UNL     1       6.439   8.596  16.740  0.00  0.00    +0.000 HD
ATOM      6  H   UNL     1       8.038  10.009  16.890  0.00  0.00    +0.000 HD
ENDROOT
BRANCH   4   7
ATOM      7  C   UNL     1       9.352  10.320  18.578  0.00  0.00    +0.000 C 
ATOM      8  C   UNL     1      10.360  11.218  17.820  0.00  0.00    +0.000 C 
ATOM      9  C   UNL     1      10.179  12.275  18.949  0.00  0.00    +0.000 C 
ATOM     10  C   UNL     1       8.796  11.619  19.206  0.00  0.00    +0.000 C 
BRANCH   9  11
ATOM     11  C   UNL     1      11.155  12.250  20.106  0.00  0.00    +0.000 C 
ATOM     12  F   UNL     1      10.571  11.842  21.253  0.00  0.00    +0.000 F 
ATOM     13  F   UNL     1      12.179  11.410  19.836  0.00  0.00    +0.000 F 
ATOM     14  F   UNL     1      11.682  13.478  20.323  0.00  0.00    +0.000 F 
ENDBRANCH   9  11
ENDBRANCH   4   7
BRANCH   3  15
ATOM     15  C   UNL     1       6.541   6.513  17.117  0.00  0.00    +0.000 C 
BRANCH  15  16
ATOM     16  C   UNL     1       5.264   6.341  17.942  0.00  0.00    +0.000 C 
ATOM     17  C   UNL     1       4.057   7.040  17.304  0.00  0.00    +0.000 C 
ATOM     18  C   UNL     1       2.782   6.906  18.140  0.00  0.00    +0.000 C 
ATOM     19  C   UNL     1       2.348   5.456  18.352  0.00  0.00    +0.000 C 
ATOM     20  C   UNL     1       3.408   4.634  19.069  0.00  0.00    +0.000 C 
ATOM     21  S   UNL     1       4.928   4.593  18.145  0.00  0.00    +0.000 S 
ATOM     22  O   UNL     1       5.949   4.019  18.998  0.00  0.00    +0.000 OA
ATOM     23  O   UNL     1       4.651   4.024  16.840  0.00  0.00    +0.000 OA
ENDBRANCH  15  16
ENDBRANCH   3  15
TORSDOF 4
ENDMDL
MODEL 3
REMARK VINA RESULT:      -7.0      2.032      2.503
REMARK  Name = 
REMARK  4 active torsions:
REMARK  status: ('A' for Active; 'I' for Inactive)
REMARK    1  A    between atoms: N_3  and  C_4
REMARK    2  A    between atoms: C_4  and  C_5
REMARK    3  A    between atoms: N_13  and  C_14
REMARK    4  A    between atoms: C_16  and  C_17
REMARK                            x       y       z     vdW  Elec       q    Type
REMARK                         _______ _______ _______ _____ _____    ______ ____
ROOT
ATOM      1  O   UNL     1       8.576   7.428  18.677  0.00  0.00    +0.000 OA
ATOM      2  C   UNL     1       7.888   8.068  17.896  0.00  0.00    +0.000 C 
ATOM      3  N   UNL     1       6.793   7.565  17.241  0.00  0.00    +0.000 N 
ATOM      4  N   UNL     1       8.108   9.384  17.573  0.00  0.00    +0.000 N 
ATOM      5  H   UNL     1       6.095   8.232  16.947  0.00  0.00    +0.000 HD
ATOM      6  H   UNL     1       7.624   9.714  16.749  0.00  0.00    +0.000 HD
ENDROOT
BRANCH   4   7
ATOM      7  C   UNL     1       9.179  10.186  18.175  0.00  0.00    +0.000 C 
ATOM      8  C   UNL     1       9.045  11.723  18.048  0.00  0.00    +0.000 C 
ATOM      9  C   UNL     1       9.537  11.829  19.522  0.00  0.00    +0.000 C 
ATOM     10  C   UNL     1       9.008  10.381  19.699  0.00  0.00    +0.000 C 
BRANCH   9  11
ATOM     11  C   UNL     1      11.018  12.033  19.763  0.00  0.00    +0.000 C 
ATOM     12  F   UNL     1      11.417  13.281  19.435  0.00  0.00    +0.000 F 
ATOM     13  F   UNL     1      11.312  11.827  21.066  0.00  0.00    +0.000 F 
ATOM     14  F   UNL     1      11.752  11.159  19.036  0.00  0.00    +0.000 F 
ENDBRANCH   9  11
ENDBRANCH   4   7
BRANCH   3  15
ATOM     15  C   UNL     1       6.362   6.183  17.420  0.00  0.00    +0.000 C 
BRANCH  15  16
ATOM     16  C   UNL     1       5.039   6.042  18.176  0.00  0.00    +0.000 C 
ATOM     17  C   UNL     1       3.874   6.724  17.449  0.00  0.00    +0.000 C 
ATOM     18  C   UNL     1       2.554   6.621  18.215  0.00  0.00    +0.000 C 
ATOM     19  C   UNL     1       2.101   5.181  18.450  0.00  0.00    +0.000 C 
ATOM     20  C   UNL     1       3.114   4.378  19.251  0.00  0.00    +0.000 C 
ATOM     21  S   UNL     1       4.684   4.303  18.416  0.00  0.00    +0.000 S 
ATOM     22  O   UNL     1       5.652   3.753  19.344  0.00  0.00    +0.000 OA
ATOM     23  O   UNL     1       4.478   3.692  17.116  0.00  0.00    +0.000 OA
ENDBRANCH  15  16
ENDBRANCH   3  15
TORSDOF 4
ENDMDL
MODEL 4
REMARK VINA RESULT:      -6.9      2.091      2.780
REMARK  Name = 
REMARK  4 active torsions:
REMARK  status: ('A' for Active; 'I' for Inactive)
REMARK    1  A    between atoms: N_3  and  C_4
REMARK    2  A    between atoms: C_4  and  C_5
REMARK    3  A    between atoms: N_13  and  C_14
REMARK    4  A    between atoms: C_16  and  C_17
REMARK                            x       y       z     vdW  Elec       q    Type
REMARK                         _______ _______ _______ _____ _____    ______ ____
ROOT
ATOM      1  O   UNL     1       7.565   7.860  16.933  0.00  0.00    +0.000 OA
ATOM      2  C   UNL     1       7.859   7.567  18.082  0.00  0.00    +0.000 C 
ATOM      3  N   UNL     1       7.457   6.417  18.712  0.00  0.00    +0.000 N 
ATOM      4  N   UNL     1       8.641   8.342  18.901  0.00  0.00    +0.000 N 
ATOM      5  H   UNL     1       8.038   6.088  19.469  0.00  0.00    +0.000 HD
ATOM      6  H   UNL     1       8.606   8.108  19.883  0.00  0.00    +0.000 HD
ENDROOT
BRANCH   4   7
ATOM      7  C   UNL     1       9.255   9.601  18.461  0.00  0.00    +0.000 C 
ATOM      8  C   UNL     1       8.285  10.746  18.079  0.00  0.00    +0.000 C 
ATOM      9  C   UNL     1       9.246  11.726  18.815  0.00  0.00    +0.000 C 
ATOM     10  C   UNL     1       9.715  10.494  19.635  0.00  0.00    +0.000 C 
BRANCH   9  11
ATOM     11  C   UNL     1      10.309  12.427  17.995  0.00  0.00    +0.000 C 
ATOM     12  F   UNL     1      11.181  11.555  17.446  0.00  0.00    +0.000 F 
ATOM     13  F   UNL     1       9.736  13.133  16.995  0.00  0.00    +0.000 F 
ATOM     14  F   UNL     1      11.014  13.296  18.756  0.00  0.00    +0.000 F 
ENDBRANCH   9  11
ENDBRANCH   4   7
BRANCH   3  15
ATOM     15  C   UNL     1       6.611   5.434  18.044  0.00  0.00    +0.000 C 
BRANCH  15  16
ATOM     16  C   UNL     1       5.146   5.481  18.484  0.00  0.00    +0.000 C 
ATOM     17  C   UNL     1       4.294   6.383  17.583  0.00  0.00    +0.000 C 
ATOM     18  C   UNL     1       2.835   6.468  18.036  0.00  0.00    +0.000 C 
ATOM     19  C   UNL     1       2.126   5.114  18.046  0.00  0.00    +0.000 C 
ATOM     20  C   UNL     1       2.796   4.116  18.977  0.00  0.00    +0.000 C 
ATOM     21  S   UNL     1       4.484   3.817  18.495  0.00  0.00    +0.000 S 
ATOM     22  O   UNL     1       5.120   3.069  19.561  0.00  0.00    +0.000 OA
ATOM     23  O   UNL     1       4.485   3.312  17.136  0.00  0.00    +0.000 OA
ENDBRANCH  15  16
ENDBRANCH   3  15
TORSDOF 4
ENDMDL
MODEL 5
REMARK VINA RESULT:      -6.9      5.160      8.813
REMARK  Name = 
REMARK  4 active torsions:
REMARK  status: ('A' for Active; 'I' for Inactive)
REMARK    1  A    between atoms: N_3  and  C_4
REMARK    2  A    between atoms: C_4  and  C_5
REMARK    3  A    between atoms: N_13  and  C_14
REMARK    4  A    between atoms: C_16  and  C_17
REMARK                            x       y       z     vdW  Elec       q    Type
REMARK                         _______ _______ _______ _____ _____    ______ ____
ROOT
ATOM      1  O   UNL     1       8.530   7.286  18.787  0.00  0.00    +0.000 OA
ATOM      2  C   UNL     1       8.023   8.170  18.113  0.00  0.00    +0.000 C 
ATOM      3  N   UNL     1       8.390   9.490  18.171  0.00  0.00    +0.000 N 
ATOM      4  N   UNL     1       7.021   7.965  17.197  0.00  0.00    +0.000 N 
ATOM      5  H   UNL     1       8.211  10.047  17.348  0.00  0.00    +0.000 HD
ATOM      6  H   UNL     1       6.535   8.798  16.893  0.00  0.00    +0.000 HD
ENDROOT
BRANCH   4   7
ATOM      7  C   UNL     1       6.479   6.637  16.891  0.00  0.00    +0.000 C 
ATOM      8  C   UNL     1       5.536   6.015  17.950  0.00  0.00    +0.000 C 
ATOM      9  C   UNL     1       4.637   5.524  16.777  0.00  0.00    +0.000 C 
ATOM     10  C   UNL     1       5.253   6.684  15.950  0.00  0.00    +0.000 C 
BRANCH   9  11
ATOM     11  C   UNL     1       4.869   4.126  16.243  0.00  0.00    +0.000 C 
ATOM     12  F   UNL     1       6.128   3.697  16.479  0.00  0.00    +0.000 F 
ATOM     13  F   UNL     1       4.014   3.256  16.826  0.00  0.00    +0.000 F 
ATOM     14  F   UNL     1       4.656   4.075  14.908  0.00  0.00    +0.000 F 
ENDBRANCH   9  11
ENDBRANCH   4   7
BRANCH   3  15
ATOM     15  C   UNL     1       9.434   9.956  19.077  0.00  0.00    +0.000 C 
BRANCH  15  16
ATOM     16  C   UNL     1       9.262  11.411  19.519  0.00  0.00    +0.000 C 
ATOM     17  C   UNL     1      10.347  11.854  20.509  0.00  0.00    +0.000 C 
ATOM     18  C   UNL     1      10.163  13.296  20.986  0.00  0.00    +0.000 C 
ATOM     19  C   UNL     1      10.205  14.318  19.851  0.00  0.00    +0.000 C 
ATOM     20  C   UNL     1       9.118  14.078  18.815  0.00  0.00    +0.000 C 
ATOM     21  S   UNL     1       9.278  12.468  18.073  0.00  0.00    +0.000 S 
ATOM     22  O   UNL     1       8.078  12.218  17.300  0.00  0.00    +0.000 OA
ATOM     23  O   UNL     1      10.587  12.382  17.454  0.00  0.00    +0.000 OA
ENDBRANCH  15  16
ENDBRANCH   3  15
TORSDOF 4
ENDMDL
MODEL 6
REMARK VINA RESULT:      -6.8      6.927      7.994
REMARK  Name = 
REMARK  4 active torsions:
REMARK  status: ('A' for Active; 'I' for Inactive)
REMARK    1  A    between atoms: N_3  and  C_4
REMARK    2  A    between atoms: C_4  and  C_5
REMARK    3  A    between atoms: N_13  and  C_14
REMARK    4  A    between atoms: C_16  and  C_17
REMARK                            x       y       z     vdW  Elec       q    Type
REMARK                         _______ _______ _______ _____ _____    ______ ____
ROOT
ATOM      1  O   UNL     1       1.749   5.298  20.767  0.00  0.00    +0.000 OA
ATOM      2  C   UNL     1       2.397   6.053  20.059  0.00  0.00    +0.000 C 
ATOM      3  N   UNL     1       3.362   5.645  19.174  0.00  0.00    +0.000 N 
ATOM      4  N   UNL     1       2.244   7.418  20.042  0.00  0.00    +0.000 N 
ATOM      5  H   UNL     1       3.550   6.257  18.394  0.00  0.00    +0.000 HD
ATOM      6  H   UNL     1       2.993   7.932  19.600  0.00  0.00    +0.000 HD
ENDROOT
BRANCH   4   7
ATOM      7  C   UNL     1       1.239   8.118  20.849  0.00  0.00    +0.000 C 
ATOM      8  C   UNL     1       1.756   8.855  22.109  0.00  0.00    +0.000 C 
ATOM      9  C   UNL     1       0.791  10.024  21.750  0.00  0.00    +0.000 C 
ATOM     10  C   UNL     1       0.873   9.512  20.288  0.00  0.00    +0.000 C 
BRANCH   9  11
ATOM     11  C   UNL     1      -0.585  10.026  22.381  0.00  0.00    +0.000 C 
ATOM     12  F   UNL     1      -0.579  10.588  23.609  0.00  0.00    +0.000 F 
ATOM     13  F   UNL     1      -1.452  10.719  21.609  0.00  0.00    +0.000 F 
ATOM     14  F   UNL     1      -1.065   8.767  22.503  0.00  0.00    +0.000 F 
ENDBRANCH   9  11
ENDBRANCH   4   7
BRANCH   3  15
ATOM     15  C   UNL     1       3.709   4.236  19.017  0.00  0.00    +0.000 C 
BRANCH  15  16
ATOM     16  C   UNL     1       4.949   4.000  18.152  0.00  0.00    +0.000 C 
ATOM     17  C   UNL     1       4.617   3.939  16.656  0.00  0.00    +0.000 C 
ATOM     18  C   UNL     1       5.845   3.666  15.785  0.00  0.00    +0.000 C 
ATOM     19  C   UNL     1       6.930   4.733  15.919  0.00  0.00    +0.000 C 
ATOM     20  C   UNL     1       7.446   4.860  17.343  0.00  0.00    +0.000 C 
ATOM     21  S   UNL     1       6.139   5.302  18.467  0.00  0.00    +0.000 S 
ATOM     22  O   UNL     1       6.647   5.152  19.816  0.00  0.00    +0.000 OA
ATOM     23  O   UNL     1       5.569   6.562  18.028  0.00  0.00    +0.000 OA
ENDBRANCH  15  16
ENDBRANCH   3  15
TORSDOF 4
ENDMDL
MODEL 7
REMARK VINA RESULT:      -6.8      5.112      8.823
REMARK  Name = 
REMARK  4 active torsions:
REMARK  status: ('A' for Active; 'I' for Inactive)
REMARK    1  A    between atoms: N_3  and  C_4
REMARK    2  A    between atoms: C_4  and  C_5
REMARK    3  A    between atoms: N_13  and  C_14
REMARK    4  A    between atoms: C_16  and  C_17
REMARK                            x       y       z     vdW  Elec       q    Type
REMARK                         _______ _______ _______ _____ _____    ______ ____
ROOT
ATOM      1  O   UNL     1       8.516   7.435  18.834  0.00  0.00    +0.000 OA
ATOM      2  C   UNL     1       8.011   8.267  18.096  0.00  0.00    +0.000 C 
ATOM      3  N   UNL     1       8.437   9.566  17.991  0.00  0.00    +0.000 N 
ATOM      4  N   UNL     1       6.951   8.016  17.260  0.00  0.00    +0.000 N 
ATOM      5  H   UNL     1       8.236  10.041  17.123  0.00  0.00    +0.000 HD
ATOM      6  H   UNL     1       6.485   8.835  16.893  0.00  0.00    +0.000 HD
ENDROOT
BRANCH   4   7
ATOM      7  C   UNL     1       6.335   6.691  17.128  0.00  0.00    +0.000 C 
ATOM      8  C   UNL     1       5.062   6.606  16.251  0.00  0.00    +0.000 C 
ATOM      9  C   UNL     1       5.621   5.272  15.672  0.00  0.00    +0.000 C 
ATOM     10  C   UNL     1       7.024   5.805  16.066  0.00  0.00    +0.000 C 
BRANCH   9  11
ATOM     11  C   UNL     1       5.188   3.978  16.328  0.00  0.00    +0.000 C 
ATOM     12  F   UNL     1       3.850   3.808  16.280  0.00  0.00    +0.000 F 
ATOM     13  F   UNL     1       5.767   2.925  15.709  0.00  0.00    +0.000 F 
ATOM     14  F   UNL     1       5.564   3.944  17.628  0.00  0.00    +0.000 F 
ENDBRANCH   9  11
ENDBRANCH   4   7
BRANCH   3  15
ATOM     15  C   UNL     1       9.550  10.073  18.787  0.00  0.00    +0.000 C 
BRANCH  15  16
ATOM     16  C   UNL     1       9.302  11.463  19.378  0.00  0.00    +0.000 C 
ATOM     17  C   UNL     1      10.382  11.870  20.388  0.00  0.00    +0.000 C 
ATOM     18  C   UNL     1      10.124  13.243  21.013  0.00  0.00    +0.000 C 
ATOM     19  C   UNL     1      10.078  14.374  19.988  0.00  0.00    +0.000 C 
ATOM     20  C   UNL     1       8.983  14.173  18.952  0.00  0.00    +0.000 C 
ATOM     21  S   UNL     1       9.221  12.659  18.047  0.00  0.00    +0.000 S 
ATOM     22  O   UNL     1       8.020  12.414  17.273  0.00  0.00    +0.000 OA
ATOM     23  O   UNL     1      10.518  12.716  17.400  0.00  0.00    +0.000 OA
ENDBRANCH  15  16
ENDBRANCH   3  15
TORSDOF 4
ENDMDL
MODEL 8
REMARK VINA RESULT:      -6.8      7.281      8.633
REMARK  Name = 
REMARK  4 active torsions:
REMARK  status: ('A' for Active; 'I' for Inactive)
REMARK    1  A    between atoms: N_3  and  C_4
REMARK    2  A    between atoms: C_4  and  C_5
REMARK    3  A    between atoms: N_13  and  C_14
REMARK    4  A    between atoms: C_16  and  C_17
REMARK                            x       y       z     vdW  Elec       q    Type
REMARK                         _______ _______ _______ _____ _____    ______ ____
ROOT
ATOM      1  O   UNL     1       6.194   4.141  17.049  0.00  0.00    +0.000 OA
ATOM      2  C   UNL     1       5.434   5.092  16.946  0.00  0.00    +0.000 C 
ATOM      3  N   UNL     1       4.856   5.736  18.009  0.00  0.00    +0.000 N 
ATOM      4  N   UNL     1       5.060   5.656  15.752  0.00  0.00    +0.000 N 
ATOM      5  H   UNL     1       4.581   6.697  17.863  0.00  0.00    +0.000 HD
ATOM      6  H   UNL     1       4.255   6.265  15.793  0.00  0.00    +0.000 HD
ENDROOT
BRANCH   4   7
ATOM      7  C   UNL     1       5.578   5.200  14.456  0.00  0.00    +0.000 C 
ATOM      8  C   UNL     1       7.096   4.901  14.387  0.00  0.00    +0.000 C 
ATOM      9  C   UNL     1       6.750   3.645  13.533  0.00  0.00    +0.000 C 
ATOM     10  C   UNL     1       5.355   3.690  14.211  0.00  0.00    +0.000 C 
BRANCH   9  11
ATOM     11  C   UNL     1       6.764   3.787  12.025  0.00  0.00    +0.000 C 
ATOM     12  F   UNL     1       5.518   3.880  11.513  0.00  0.00    +0.000 F 
ATOM     13  F   UNL     1       7.448   4.896  11.667  0.00  0.00    +0.000 F 
ATOM     14  F   UNL     1       7.373   2.727  11.444  0.00  0.00    +0.000 F 
ENDBRANCH   9  11
ENDBRANCH   4   7
BRANCH   3  15
ATOM     15  C   UNL     1       5.098   5.314  19.385  0.00  0.00    +0.000 C 
BRANCH  15  16
ATOM     16  C   UNL     1       3.861   4.747  20.083  0.00  0.00    +0.000 C 
ATOM     17  C   UNL     1       2.587   5.531  19.744  0.00  0.00    +0.000 C 
ATOM     18  C   UNL     1       1.349   4.994  20.466  0.00  0.00    +0.000 C 
ATOM     19  C   UNL     1       1.034   3.539  20.126  0.00  0.00    +0.000 C 
ATOM     20  C   UNL     1       2.173   2.599  20.492  0.00  0.00    +0.000 C 
ATOM     21  S   UNL     1       3.667   3.026  19.624  0.00  0.00    +0.000 S 
ATOM     22  O   UNL     1       4.751   2.263  20.209  0.00  0.00    +0.000 OA
ATOM     23  O   UNL     1       3.399   2.957  18.200  0.00  0.00    +0.000 OA
ENDBRANCH  15  16
ENDBRANCH   3  15
TORSDOF 4
ENDMDL
MODEL 9
REMARK VINA RESULT:      -6.8      7.202      8.210
REMARK  Name = 
REMARK  4 active torsions:
REMARK  status: ('A' for Active; 'I' for Inactive)
REMARK    1  A    between atoms: N_3  and  C_4
REMARK    2  A    between atoms: C_4  and  C_5
REMARK    3  A    between atoms: N_13  and  C_14
REMARK    4  A    between atoms: C_16  and  C_17
REMARK                            x       y       z     vdW  Elec       q    Type
REMARK                         _______ _______ _______ _____ _____    ______ ____
ROOT
ATOM      1  O   UNL     1       2.339   8.257  17.803  0.00  0.00    +0.000 OA
ATOM      2  C   UNL     1       2.078   8.088  18.984  0.00  0.00    +0.000 C 
ATOM      3  N   UNL     1       2.515   7.021  19.727  0.00  0.00    +0.000 N 
ATOM      4  N   UNL     1       1.317   8.947  19.738  0.00  0.00    +0.000 N 
ATOM      5  H   UNL     1       2.583   7.160  20.724  0.00  0.00    +0.000 HD
ATOM      6  H   UNL     1       0.982   8.574  20.615  0.00  0.00    +0.000 HD
ENDROOT
BRANCH   4   7
ATOM      7  C   UNL     1       0.769  10.202  19.209  0.00  0.00    +0.000 C 
ATOM      8  C   UNL     1      -0.757  10.410  19.368  0.00  0.00    +0.000 C 
ATOM      9  C   UNL     1      -0.456  11.893  19.739  0.00  0.00    +0.000 C 
ATOM     10  C   UNL     1       0.948  11.396  20.174  0.00  0.00    +0.000 C 
BRANCH   9  11
ATOM     11  C   UNL     1      -0.487  12.922  18.628  0.00  0.00    +0.000 C 
ATOM     12  F   UNL     1      -1.313  12.558  17.624  0.00  0.00    +0.000 F 
ATOM     13  F   UNL     1      -0.910  14.113  19.107  0.00  0.00    +0.000 F 
ATOM     14  F   UNL     1       0.747  13.107  18.104  0.00  0.00    +0.000 F 
ENDBRANCH   9  11
ENDBRANCH   4   7
BRANCH   3  15
ATOM     15  C   UNL     1       3.338   5.968  19.142  0.00  0.00    +0.000 C 
BRANCH  15  16
ATOM     16  C   UNL     1       2.831   4.554  19.436  0.00  0.00    +0.000 C 
ATOM     17  C   UNL     1       1.646   4.549  20.410  0.00  0.00    +0.000 C 
ATOM     18  C   UNL     1       1.154   3.138  20.740  0.00  0.00    +0.000 C 
ATOM     19  C   UNL     1       0.677   2.362  19.514  0.00  0.00    +0.000 C 
ATOM     20  C   UNL     1       1.773   2.191  18.473  0.00  0.00    +0.000 C 
ATOM     21  S   UNL     1       2.366   3.767  17.896  0.00  0.00    +0.000 S 
ATOM     22  O   UNL     1       3.563   3.529  17.114  0.00  0.00    +0.000 OA
ATOM     23  O   UNL     1       1.245   4.493  17.328  0.00  0.00    +0.000 OA
ENDBRANCH  15  16
ENDBRANCH   3  15
TORSDOF 4
ENDMDL
