MODEL 1
REMARK VINA RESULT:      -7.1      0.000      0.000
REMARK  Name = 
REMARK  3 active torsions:
REMARK  status: ('A' for Active; 'I' for Inactive)
REMARK    1  A    between atoms: C_1  and  C_2
REMARK    2  A    between atoms: N_6  and  C_7
REMARK    3  A    between atoms: C_10  and  C_11
REMARK                            x       y       z     vdW  Elec       q    Type
REMARK                         _______ _______ _______ _____ _____    ______ ____
ROOT
ATOM      1  C   UNL     1      -0.435  13.233  18.299  0.00  0.00    +0.000 C 
ATOM      2  C   UNL     1      -0.479  12.260  19.450  0.00  0.00    +0.000 A 
ATOM      3  C   UNL     1      -1.234  12.477  20.632  0.00  0.00    +0.000 A 
ATOM      4  C   UNL     1      -2.072  13.599  20.765  0.00  0.00    +0.000 A 
ATOM      5  C   UNL     1      -2.785  13.827  21.931  0.00  0.00    +0.000 A 
ATOM      6  N   UNL     1      -2.677  12.971  22.961  0.00  0.00    +0.000 N 
ATOM      7  C   UNL     1      -3.388  13.229  24.220  0.00  0.00    +0.000 C 
ATOM      8  C   UNL     1      -1.920  11.862  22.857  0.00  0.00    +0.000 A 
ATOM      9  C   UNL     1      -1.174  11.555  21.711  0.00  0.00    +0.000 A 
ATOM     10  C   UNL     1      -0.389  10.363  21.621  0.00  0.00    +0.000 A 
ATOM     11  C   UNL     1      -0.312   9.340  22.721  0.00  0.00    +0.000 C 
ATOM     12  C   UNL     1       0.302  10.109  20.400  0.00  0.00    +0.000 A 
ATOM     13  C   UNL     1       0.215  11.035  19.367  0.00  0.00    +0.000 A 
ATOM     14  N   UNL     1       0.859  10.473  18.278  0.00  0.00    +0.000 N 
ATOM     15  C   UNL     1       1.476   9.293  18.615  0.00  0.00    +0.000 A 
ATOM     16  C   UNL     1       2.255   8.429  17.833  0.00  0.00    +0.000 A 
ATOM     17  C   UNL     1       2.703   7.243  18.422  0.00  0.00    +0.000 A 
ATOM     18  C   UNL     1       2.373   6.931  19.736  0.00  0.00    +0.000 A 
ATOM     19  C   UNL     1       1.591   7.807  20.500  0.00  0.00    +0.000 A 
ATOM     20  C   UNL     1       1.129   9.019  19.935  0.00  0.00    +0.000 A 
ATOM     21  H   UNL     1       0.771  10.821  17.329  0.00  0.00    +0.000 HD
ENDROOT
TORSDOF 0
ENDMDL
MODEL 2
REMARK VINA RESULT:      -7.1      2.952      8.241
REMARK  Name = 
REMARK  3 active torsions:
REMARK  status: ('A' for Active; 'I' for Inactive)
REMARK    1  A    between atoms: C_1  and  C_2
REMARK    2  A    between atoms: N_6  and  C_7
REMARK    3  A    between atoms: C_10  and  C_11
REMARK                            x       y       z     vdW  Elec       q    Type
REMARK                         _______ _______ _______ _____ _____    ______ ____
ROOT
ATOM      1  C   UNL     1       2.220   4.009  21.367  0.00  0.00    +0.000 C 
ATOM      2  C   UNL     1       2.459   5.058  20.311  0.00  0.00    +0.000 A 
ATOM      3  C   UNL     1       3.182   4.815  19.115  0.00  0.00    +0.000 A 
ATOM      4  C   UNL     1       3.656   3.530  18.797  0.00  0.00    +0.000 A 
ATOM      5  C   UNL     1       4.389   3.299  17.644  0.00  0.00    +0.000 A 
ATOM      6  N   UNL     1       4.662   4.316  16.810  0.00  0.00    +0.000 N 
ATOM      7  C   UNL     1       5.481   4.095  15.610  0.00  0.00    +0.000 C 
ATOM      8  C   UNL     1       4.190   5.553  17.055  0.00  0.00    +0.000 A 
ATOM      9  C   UNL     1       3.436   5.867  18.194  0.00  0.00    +0.000 A 
ATOM     10  C   UNL     1       2.934   7.188  18.425  0.00  0.00    +0.000 A 
ATOM     11  C   UNL     1       3.149   8.330  17.470  0.00  0.00    +0.000 C 
ATOM     12  C   UNL     1       2.138   7.406  19.587  0.00  0.00    +0.000 A 
ATOM     13  C   UNL     1       1.911   6.349  20.461  0.00  0.00    +0.000 A 
ATOM     14  N   UNL     1       1.011   6.806  21.408  0.00  0.00    +0.000 N 
ATOM     15  C   UNL     1       0.768   8.150  21.259  0.00  0.00    +0.000 A 
ATOM     16  C   UNL     1      -0.043   9.008  22.016  0.00  0.00    +0.000 A 
ATOM     17  C   UNL     1      -0.166  10.333  21.589  0.00  0.00    +0.000 A 
ATOM     18  C   UNL     1       0.485  10.776  20.444  0.00  0.00    +0.000 A 
ATOM     19  C   UNL     1       1.289   9.903  19.700  0.00  0.00    +0.000 A 
ATOM     20  C   UNL     1       1.441   8.557  20.110  0.00  0.00    +0.000 A 
ATOM     21  H   UNL     1       0.501   6.200  22.041  0.00  0.00    +0.000 HD
ENDROOT
TORSDOF 0
ENDMDL
MODEL 3
REMARK VINA RESULT:      -6.8      2.870      5.971
REMARK  Name = 
REMARK  3 active torsions:
REMARK  status: ('A' for Active; 'I' for Inactive)
REMARK    1  A    between atoms: C_1  and  C_2
REMARK    2  A    between atoms: N_6  and  C_7
REMARK    3  A    between atoms: C_10  and  C_11
REMARK                            x       y       z     vdW  Elec       q    Type
REMARK                         _______ _______ _______ _____ _____    ______ ____
ROOT
ATOM      1  C   UNL     1       1.860   4.606  21.186  0.00  0.00    +0.000 C 
ATOM      2  C   UNL     1       2.127   5.764  20.257  0.00  0.00    +0.000 A 
ATOM      3  C   UNL     1       1.561   7.053  20.429  0.00  0.00    +0.000 A 
ATOM      4  C   UNL     1       0.768   7.358  21.550  0.00  0.00    +0.000 A 
ATOM      5  C   UNL     1       0.190   8.608  21.702  0.00  0.00    +0.000 A 
ATOM      6  N   UNL     1       0.380   9.552  20.765  0.00  0.00    +0.000 N 
ATOM      7  C   UNL     1      -0.269  10.865  20.889  0.00  0.00    +0.000 C 
ATOM      8  C   UNL     1       1.168   9.315  19.699  0.00  0.00    +0.000 A 
ATOM      9  C   UNL     1       1.794   8.081  19.476  0.00  0.00    +0.000 A 
ATOM     10  C   UNL     1       2.639   7.859  18.342  0.00  0.00    +0.000 A 
ATOM     11  C   UNL     1       2.941   8.919  17.318  0.00  0.00    +0.000 C 
ATOM     12  C   UNL     1       3.270   6.587  18.219  0.00  0.00    +0.000 A 
ATOM     13  C   UNL     1       3.018   5.610  19.175  0.00  0.00    +0.000 A 
ATOM     14  N   UNL     1       3.856   4.547  18.883  0.00  0.00    +0.000 N 
ATOM     15  C   UNL     1       4.524   4.747  17.700  0.00  0.00    +0.000 A 
ATOM     16  C   UNL     1       5.432   3.917  17.027  0.00  0.00    +0.000 A 
ATOM     17  C   UNL     1       6.026   4.410  15.862  0.00  0.00    +0.000 A 
ATOM     18  C   UNL     1       5.732   5.687  15.398  0.00  0.00    +0.000 A 
ATOM     19  C   UNL     1       4.824   6.502  16.087  0.00  0.00    +0.000 A 
ATOM     20  C   UNL     1       4.200   6.029  17.265  0.00  0.00    +0.000 A 
ATOM     21  H   UNL     1       4.047   3.786  19.526  0.00  0.00    +0.000 HD
ENDROOT
TORSDOF 0
ENDMDL
MODEL 4
REMARK VINA RESULT:      -6.7      1.956      3.848
REMARK  Name = 
REMARK  3 active torsions:
REMARK  status: ('A' for Active; 'I' for Inactive)
REMARK    1  A    between atoms: C_1  and  C_2
REMARK    2  A    between atoms: N_6  and  C_7
REMARK    3  A    between atoms: C_10  and  C_11
REMARK                            x       y       z     vdW  Elec       q    Type
REMARK                         _______ _______ _______ _____ _____    ______ ____
ROOT
ATOM      1  C   UNL     1      -0.086   9.255  23.075  0.00  0.00    +0.000 C 
ATOM      2  C   UNL     1       0.426   9.477  21.674  0.00  0.00    +0.000 A 
ATOM      3  C   UNL     1       0.347  10.722  20.999  0.00  0.00    +0.000 A 
ATOM      4  C   UNL     1      -0.148  11.870  21.643  0.00  0.00    +0.000 A 
ATOM      5  C   UNL     1      -0.253  13.079  20.973  0.00  0.00    +0.000 A 
ATOM      6  N   UNL     1       0.114  13.165  19.684  0.00  0.00    +0.000 N 
ATOM      7  C   UNL     1      -0.041  14.428  18.949  0.00  0.00    +0.000 C 
ATOM      8  C   UNL     1       0.634  12.100  19.044  0.00  0.00    +0.000 A 
ATOM      9  C   UNL     1       0.780  10.845  19.651  0.00  0.00    +0.000 A 
ATOM     10  C   UNL     1       1.348   9.733  18.953  0.00  0.00    +0.000 A 
ATOM     11  C   UNL     1       1.848   9.815  17.537  0.00  0.00    +0.000 C 
ATOM     12  C   UNL     1       1.500   8.506  19.663  0.00  0.00    +0.000 A 
ATOM     13  C   UNL     1       1.066   8.428  20.981  0.00  0.00    +0.000 A 
ATOM     14  N   UNL     1       1.458   7.187  21.453  0.00  0.00    +0.000 N 
ATOM     15  C   UNL     1       1.995   6.417  20.450  0.00  0.00    +0.000 A 
ATOM     16  C   UNL     1       2.480   5.102  20.486  0.00  0.00    +0.000 A 
ATOM     17  C   UNL     1       3.046   4.584  19.318  0.00  0.00    +0.000 A 
ATOM     18  C   UNL     1       3.134   5.358  18.165  0.00  0.00    +0.000 A 
ATOM     19  C   UNL     1       2.646   6.671  18.151  0.00  0.00    +0.000 A 
ATOM     20  C   UNL     1       2.059   7.221  19.315  0.00  0.00    +0.000 A 
ATOM     21  H   UNL     1       1.468   6.934  22.435  0.00  0.00    +0.000 HD
ENDROOT
TORSDOF 0
ENDMDL
MODEL 5
REMARK VINA RESULT:      -6.6      9.740     11.645
REMARK  Name = 
REMARK  3 active torsions:
REMARK  status: ('A' for Active; 'I' for Inactive)
REMARK    1  A    between atoms: C_1  and  C_2
REMARK    2  A    between atoms: N_6  and  C_7
REMARK    3  A    between atoms: C_10  and  C_11
REMARK                            x       y       z     vdW  Elec       q    Type
REMARK                         _______ _______ _______ _____ _____    ______ ____
ROOT
ATOM      1  C   UNL     1       9.480  10.295  19.543  0.00  0.00    +0.000 C 
ATOM      2  C   UNL     1       9.687  11.688  20.082  0.00  0.00    +0.000 A 
ATOM      3  C   UNL     1      10.314  12.728  19.347  0.00  0.00    +0.000 A 
ATOM      4  C   UNL     1      10.712  12.539  18.012  0.00  0.00    +0.000 A 
ATOM      5  C   UNL     1      11.352  13.544  17.305  0.00  0.00    +0.000 A 
ATOM      6  N   UNL     1      11.608  14.721  17.898  0.00  0.00    +0.000 N 
ATOM      7  C   UNL     1      12.332  15.777  17.175  0.00  0.00    +0.000 C 
ATOM      8  C   UNL     1      11.205  14.958  19.161  0.00  0.00    +0.000 A 
ATOM      9  C   UNL     1      10.546  13.997  19.941  0.00  0.00    +0.000 A 
ATOM     10  C   UNL     1      10.116  14.278  21.277  0.00  0.00    +0.000 A 
ATOM     11  C   UNL     1      10.310  15.613  21.943  0.00  0.00    +0.000 C 
ATOM     12  C   UNL     1       9.412  13.257  21.980  0.00  0.00    +0.000 A 
ATOM     13  C   UNL     1       9.204  12.030  21.363  0.00  0.00    +0.000 A 
ATOM     14  N   UNL     1       8.392  11.295  22.209  0.00  0.00    +0.000 N 
ATOM     15  C   UNL     1       8.194  11.946  23.402  0.00  0.00    +0.000 A 
ATOM     16  C   UNL     1       7.474  11.547  24.537  0.00  0.00    +0.000 A 
ATOM     17  C   UNL     1       7.375  12.452  25.598  0.00  0.00    +0.000 A 
ATOM     18  C   UNL     1       7.962  13.709  25.518  0.00  0.00    +0.000 A 
ATOM     19  C   UNL     1       8.675  14.090  24.374  0.00  0.00    +0.000 A 
ATOM     20  C   UNL     1       8.801  13.193  23.287  0.00  0.00    +0.000 A 
ATOM     21  H   UNL     1       7.903  10.451  21.930  0.00  0.00    +0.000 HD
ENDROOT
TORSDOF 0
ENDMDL
MODEL 6
REMARK VINA RESULT:      -6.5      3.728      7.260
REMARK  Name = 
REMARK  3 active torsions:
REMARK  status: ('A' for Active; 'I' for Inactive)
REMARK    1  A    between atoms: C_1  and  C_2
REMARK    2  A    between atoms: N_6  and  C_7
REMARK    3  A    between atoms: C_10  and  C_11
REMARK                            x       y       z     vdW  Elec       q    Type
REMARK                         _______ _______ _______ _____ _____    ______ ____
ROOT
ATOM      1  C   UNL     1       2.398   3.125  19.929  0.00  0.00    +0.000 C 
ATOM      2  C   UNL     1       2.732   4.449  19.290  0.00  0.00    +0.000 A 
ATOM      3  C   UNL     1       2.249   5.694  19.770  0.00  0.00    +0.000 A 
ATOM      4  C   UNL     1       1.483   5.774  20.947  0.00  0.00    +0.000 A 
ATOM      5  C   UNL     1       0.986   6.986  21.398  0.00  0.00    +0.000 A 
ATOM      6  N   UNL     1       1.229   8.110  20.704  0.00  0.00    +0.000 N 
ATOM      7  C   UNL     1       0.665   9.394  21.144  0.00  0.00    +0.000 C 
ATOM      8  C   UNL     1       1.994   8.083  19.596  0.00  0.00    +0.000 A 
ATOM      9  C   UNL     1       2.540   6.900  19.078  0.00  0.00    +0.000 A 
ATOM     10  C   UNL     1       3.362   6.900  17.907  0.00  0.00    +0.000 A 
ATOM     11  C   UNL     1       3.724   8.151  17.152  0.00  0.00    +0.000 C 
ATOM     12  C   UNL     1       3.912   5.657  17.477  0.00  0.00    +0.000 A 
ATOM     13  C   UNL     1       3.605   4.500  18.183  0.00  0.00    +0.000 A 
ATOM     14  N   UNL     1       4.372   3.487  17.635  0.00  0.00    +0.000 N 
ATOM     15  C   UNL     1       5.045   3.919  16.517  0.00  0.00    +0.000 A 
ATOM     16  C   UNL     1       5.894   3.216  15.651  0.00  0.00    +0.000 A 
ATOM     17  C   UNL     1       6.510   3.932  14.620  0.00  0.00    +0.000 A 
ATOM     18  C   UNL     1       6.294   5.298  14.473  0.00  0.00    +0.000 A 
ATOM     19  C   UNL     1       5.444   5.982  15.352  0.00  0.00    +0.000 A 
ATOM     20  C   UNL     1       4.798   5.284  16.400  0.00  0.00    +0.000 A 
ATOM     21  H   UNL     1       4.519   2.587  18.078  0.00  0.00    +0.000 HD
ENDROOT
TORSDOF 0
ENDMDL
MODEL 7
REMARK VINA RESULT:      -6.5      3.817      7.638
REMARK  Name = 
REMARK  3 active torsions:
REMARK  status: ('A' for Active; 'I' for Inactive)
REMARK    1  A    between atoms: C_1  and  C_2
REMARK    2  A    between atoms: N_6  and  C_7
REMARK    3  A    between atoms: C_10  and  C_11
REMARK                            x       y       z     vdW  Elec       q    Type
REMARK                         _______ _______ _______ _____ _____    ______ ____
ROOT
ATOM      1  C   UNL     1      -1.419  12.872  20.262  0.00  0.00    +0.000 C 
ATOM      2  C   UNL     1      -2.787  12.433  19.802  0.00  0.00    +0.000 A 
ATOM      3  C   UNL     1      -3.036  11.849  18.533  0.00  0.00    +0.000 A 
ATOM      4  C   UNL     1      -1.986  11.561  17.644  0.00  0.00    +0.000 A 
ATOM      5  C   UNL     1      -2.233  11.019  16.393  0.00  0.00    +0.000 A 
ATOM      6  N   UNL     1      -3.495  10.766  16.010  0.00  0.00    +0.000 N 
ATOM      7  C   UNL     1      -3.774  10.239  14.666  0.00  0.00    +0.000 C 
ATOM      8  C   UNL     1      -4.526  10.987  16.848  0.00  0.00    +0.000 A 
ATOM      9  C   UNL     1      -4.360  11.526  18.131  0.00  0.00    +0.000 A 
ATOM     10  C   UNL     1      -5.471  11.737  19.008  0.00  0.00    +0.000 A 
ATOM     11  C   UNL     1      -6.888  11.387  18.645  0.00  0.00    +0.000 C 
ATOM     12  C   UNL     1      -5.204  12.247  20.312  0.00  0.00    +0.000 A 
ATOM     13  C   UNL     1      -3.895  12.548  20.667  0.00  0.00    +0.000 A 
ATOM     14  N   UNL     1      -3.917  12.887  22.009  0.00  0.00    +0.000 N 
ATOM     15  C   UNL     1      -5.204  12.955  22.486  0.00  0.00    +0.000 A 
ATOM     16  C   UNL     1      -5.673  13.293  23.763  0.00  0.00    +0.000 A 
ATOM     17  C   UNL     1      -7.049  13.207  23.995  0.00  0.00    +0.000 A 
ATOM     18  C   UNL     1      -7.916  12.788  22.992  0.00  0.00    +0.000 A 
ATOM     19  C   UNL     1      -7.426  12.452  21.723  0.00  0.00    +0.000 A 
ATOM     20  C   UNL     1      -6.039  12.537  21.455  0.00  0.00    +0.000 A 
ATOM     21  H   UNL     1      -3.088  12.946  22.590  0.00  0.00    +0.000 HD
ENDROOT
TORSDOF 0
ENDMDL
MODEL 8
REMARK VINA RESULT:      -6.4      1.344      2.960
REMARK  Name = 
REMARK  3 active torsions:
REMARK  status: ('A' for Active; 'I' for Inactive)
REMARK    1  A    between atoms: C_1  and  C_2
REMARK    2  A    between atoms: N_6  and  C_7
REMARK    3  A    between atoms: C_10  and  C_11
REMARK                            x       y       z     vdW  Elec       q    Type
REMARK                         _______ _______ _______ _____ _____    ______ ____
ROOT
ATOM      1  C   UNL     1      -0.236   9.324  23.617  0.00  0.00    +0.000 C 
ATOM      2  C   UNL     1      -0.100  10.010  22.280  0.00  0.00    +0.000 A 
ATOM      3  C   UNL     1      -0.618  11.302  22.006  0.00  0.00    +0.000 A 
ATOM      4  C   UNL     1      -1.228  12.071  23.013  0.00  0.00    +0.000 A 
ATOM      5  C   UNL     1      -1.762  13.320  22.738  0.00  0.00    +0.000 A 
ATOM      6  N   UNL     1      -1.706  13.812  21.489  0.00  0.00    +0.000 N 
ATOM      7  C   UNL     1      -2.313  15.113  21.174  0.00  0.00    +0.000 C 
ATOM      8  C   UNL     1      -1.092  13.126  20.506  0.00  0.00    +0.000 A 
ATOM      9  C   UNL     1      -0.522  11.861  20.704  0.00  0.00    +0.000 A 
ATOM     10  C   UNL     1       0.138  11.159  19.646  0.00  0.00    +0.000 A 
ATOM     11  C   UNL     1       0.293  11.716  18.257  0.00  0.00    +0.000 C 
ATOM     12  C   UNL     1       0.729   9.897  19.948  0.00  0.00    +0.000 A 
ATOM     13  C   UNL     1       0.614   9.387  21.236  0.00  0.00    +0.000 A 
ATOM     14  N   UNL     1       1.385   8.238  21.275  0.00  0.00    +0.000 N 
ATOM     15  C   UNL     1       1.868   7.917  20.030  0.00  0.00    +0.000 A 
ATOM     16  C   UNL     1       2.653   6.829  19.622  0.00  0.00    +0.000 A 
ATOM     17  C   UNL     1       3.068   6.789  18.288  0.00  0.00    +0.000 A 
ATOM     18  C   UNL     1       2.722   7.805  17.403  0.00  0.00    +0.000 A 
ATOM     19  C   UNL     1       1.939   8.885  17.832  0.00  0.00    +0.000 A 
ATOM     20  C   UNL     1       1.496   8.950  19.174  0.00  0.00    +0.000 A 
ATOM     21  H   UNL     1       1.663   7.774  22.133  0.00  0.00    +0.000 HD
ENDROOT
TORSDOF 0
ENDMDL
MODEL 9
REMARK VINA RESULT:      -6.3      2.963      7.589
REMARK  Name = 
REMARK  3 active torsions:
REMARK  status: ('A' for Active; 'I' for Inactive)
REMARK    1  A    between atoms: C_1  and  C_2
REMARK    2  A    between atoms: N_6  and  C_7
REMARK    3  A    between atoms: C_10  and  C_11
REMARK                            x       y       z     vdW  Elec       q    Type
REMARK                         _______ _______ _______ _____ _____    ______ ____
ROOT
ATOM      1  C   UNL     1       4.468   7.349  16.179  0.00  0.00    +0.000 C 
ATOM      2  C   UNL     1       3.751   6.994  17.458  0.00  0.00    +0.000 A 
ATOM      3  C   UNL     1       3.943   5.770  18.149  0.00  0.00    +0.000 A 
ATOM      4  C   UNL     1       4.897   4.831  17.718  0.00  0.00    +0.000 A 
ATOM      5  C   UNL     1       5.061   3.622  18.375  0.00  0.00    +0.000 A 
ATOM      6  N   UNL     1       4.298   3.329  19.440  0.00  0.00    +0.000 N 
ATOM      7  C   UNL     1       4.428   2.029  20.114  0.00  0.00    +0.000 C 
ATOM      8  C   UNL     1       3.403   4.219  19.911  0.00  0.00    +0.000 A 
ATOM      9  C   UNL     1       3.181   5.465  19.309  0.00  0.00    +0.000 A 
ATOM     10  C   UNL     1       2.234   6.398  19.837  0.00  0.00    +0.000 A 
ATOM     11  C   UNL     1       1.423   6.139  21.077  0.00  0.00    +0.000 C 
ATOM     12  C   UNL     1       2.106   7.660  19.186  0.00  0.00    +0.000 A 
ATOM     13  C   UNL     1       2.872   7.920  18.056  0.00  0.00    +0.000 A 
ATOM     14  N   UNL     1       2.647   9.245  17.723  0.00  0.00    +0.000 N 
ATOM     15  C   UNL     1       1.662   9.797  18.506  0.00  0.00    +0.000 A 
ATOM     16  C   UNL     1       1.108  11.085  18.480  0.00  0.00    +0.000 A 
ATOM     17  C   UNL     1       0.157  11.405  19.453  0.00  0.00    +0.000 A 
ATOM     18  C   UNL     1      -0.212  10.476  20.420  0.00  0.00    +0.000 A 
ATOM     19  C   UNL     1       0.355   9.195  20.430  0.00  0.00    +0.000 A 
ATOM     20  C   UNL     1       1.314   8.838  19.453  0.00  0.00    +0.000 A 
ATOM     21  H   UNL     1       3.226   9.771  17.078  0.00  0.00    +0.000 HD
ENDROOT
TORSDOF 0
ENDMDL
