MODEL 1
REMARK VINA RESULT:      -7.6      0.000      0.000
REMARK  Name = 
REMARK  8 active torsions:
REMARK  status: ('A' for Active; 'I' for Inactive)
REMARK    1  A    between atoms: C_1  and  O_2
REMARK    2  A    between atoms: O_2  and  C_3
REMARK    3  A    between atoms: C_8  and  O_9
REMARK    4  A    between atoms: O_9  and  C_10
REMARK    5  A    between atoms: C_11  and  C_12
REMARK    6  A    between atoms: C_12  and  C_13
REMARK    7  A    between atoms: C_13  and  C_14
REMARK    8  A    between atoms: C_14  and  C_15
REMARK                            x       y       z     vdW  Elec       q    Type
REMARK                         _______ _______ _______ _____ _____    ______ ____
ROOT
ATOM      1  C   UNL     1      -0.403  12.439  22.155  0.00  0.00    +0.000 A 
ATOM      2  C   UNL     1      -0.510  13.050  20.894  0.00  0.00    +0.000 A 
ATOM      3  C   UNL     1      -0.574  12.280  19.733  0.00  0.00    +0.000 A 
ATOM      4  C   UNL     1      -0.489  10.884  19.830  0.00  0.00    +0.000 A 
ATOM      5  C   UNL     1      -0.398  10.270  21.089  0.00  0.00    +0.000 A 
ATOM      6  C   UNL     1      -0.369  11.035  22.258  0.00  0.00    +0.000 A 
ATOM      7  C   UNL     1      -0.427  10.061  18.557  0.00  0.00    +0.000 C 
ATOM      8  N   UNL     1      -1.383  10.576  17.567  0.00  0.00    +0.000 N 
ATOM      9  C   UNL     1      -2.128   9.721  16.788  0.00  0.00    +0.000 C 
ATOM     10  O   UNL     1      -2.988  10.066  15.972  0.00  0.00    +0.000 OA
ATOM     11  C   UNL     1      -1.690  12.009  17.536  0.00  0.00    +0.000 C 
ATOM     12  C   UNL     1      -0.738  12.881  18.361  0.00  0.00    +0.000 C 
ENDROOT
BRANCH   1  14
ATOM     13  C   UNL     1      -1.683  13.932  23.498  0.00  0.00    +0.000 C 
ATOM     14  O   UNL     1      -0.429  13.332  23.198  0.00  0.00    +0.000 OA
ENDBRANCH   1  14
BRANCH   6  15
ATOM     15  O   UNL     1      -0.342  10.482  23.508  0.00  0.00    +0.000 OA
ATOM     16  C   UNL     1       0.312   9.238  23.695  0.00  0.00    +0.000 C 
ENDBRANCH   6  15
BRANCH   7  17
ATOM     17  C   UNL     1       1.022  10.040  17.997  0.00  0.00    +0.000 C 
BRANCH  17  18
ATOM     18  C   UNL     1       1.485   8.602  17.715  0.00  0.00    +0.000 C 
BRANCH  18  19
ATOM     19  C   UNL     1       2.435   8.032  18.762  0.00  0.00    +0.000 C 
BRANCH  19  20
ATOM     20  C   UNL     1       2.805   6.604  18.458  0.00  0.00    +0.000 A 
ATOM     21  C   UNL     1       2.236   5.503  19.063  0.00  0.00    +0.000 A 
ATOM     22  N   UNL     1       2.775   4.373  18.512  0.00  0.00    +0.000 N 
ATOM     23  C   UNL     1       3.713   4.705  17.564  0.00  0.00    +0.000 A 
ATOM     24  C   UNL     1       4.493   3.871  16.758  0.00  0.00    +0.000 A 
ATOM     25  C   UNL     1       5.389   4.472  15.872  0.00  0.00    +0.000 A 
ATOM     26  C   UNL     1       5.496   5.860  15.807  0.00  0.00    +0.000 A 
ATOM     27  C   UNL     1       4.699   6.682  16.619  0.00  0.00    +0.000 A 
ATOM     28  C   UNL     1       3.774   6.102  17.517  0.00  0.00    +0.000 A 
ATOM     29  H   UNL     1       2.524   3.427  18.761  0.00  0.00    +0.000 HD
ENDBRANCH  19  20
ENDBRANCH  18  19
ENDBRANCH  17  18
ENDBRANCH   7  17
TORSDOF 6
ENDMDL
MODEL 2
REMARK VINA RESULT:      -7.5      3.746      8.680
REMARK  Name = 
REMARK  8 active torsions:
REMARK  status: ('A' for Active; 'I' for Inactive)
REMARK    1  A    between atoms: C_1  and  O_2
REMARK    2  A    between atoms: O_2  and  C_3
REMARK    3  A    between atoms: C_8  and  O_9
REMARK    4  A    between atoms: O_9  and  C_10
REMARK    5  A    between atoms: C_11  and  C_12
REMARK    6  A    between atoms: C_12  and  C_13
REMARK    7  A    between atoms: C_13  and  C_14
REMARK    8  A    between atoms: C_14  and  C_15
REMARK                            x       y       z     vdW  Elec       q    Type
REMARK                         _______ _______ _______ _____ _____    ______ ____
ROOT
ATOM      1  C   UNL     1       3.278   2.921  18.718  0.00  0.00    +0.000 A 
ATOM      2  C   UNL     1       3.812   3.310  17.478  0.00  0.00    +0.000 A 
ATOM      3  C   UNL     1       4.309   4.600  17.290  0.00  0.00    +0.000 A 
ATOM      4  C   UNL     1       4.234   5.524  18.341  0.00  0.00    +0.000 A 
ATOM      5  C   UNL     1       3.715   5.134  19.585  0.00  0.00    +0.000 A 
ATOM      6  C   UNL     1       3.248   3.834  19.790  0.00  0.00    +0.000 A 
ATOM      7  C   UNL     1       4.655   6.960  18.088  0.00  0.00    +0.000 C 
ATOM      8  N   UNL     1       5.887   6.999  17.289  0.00  0.00    +0.000 N 
ATOM      9  C   UNL     1       6.885   7.904  17.567  0.00  0.00    +0.000 C 
ATOM     10  O   UNL     1       7.970   7.972  16.983  0.00  0.00    +0.000 OA
ATOM     11  C   UNL     1       6.145   5.943  16.304  0.00  0.00    +0.000 C 
ATOM     12  C   UNL     1       4.937   5.053  15.997  0.00  0.00    +0.000 C 
ENDROOT
BRANCH   1  14
ATOM     13  C   UNL     1       3.950   0.638  18.804  0.00  0.00    +0.000 C 
ATOM     14  O   UNL     1       2.903   1.601  18.761  0.00  0.00    +0.000 OA
ENDBRANCH   1  14
BRANCH   6  15
ATOM     15  O   UNL     1       2.791   3.389  21.000  0.00  0.00    +0.000 OA
ATOM     16  C   UNL     1       1.395   3.235  21.192  0.00  0.00    +0.000 C 
ENDBRANCH   6  15
BRANCH   7  17
ATOM     17  C   UNL     1       3.503   7.748  17.405  0.00  0.00    +0.000 C 
BRANCH  17  18
ATOM     18  C   UNL     1       2.403   8.107  18.418  0.00  0.00    +0.000 C 
BRANCH  18  19
ATOM     19  C   UNL     1       1.381   9.113  17.903  0.00  0.00    +0.000 C 
BRANCH  19  20
ATOM     20  C   UNL     1       1.029  10.134  18.953  0.00  0.00    +0.000 A 
ATOM     21  C   UNL     1       1.166  11.497  18.796  0.00  0.00    +0.000 A 
ATOM     22  N   UNL     1       0.708  12.117  19.925  0.00  0.00    +0.000 N 
ATOM     23  C   UNL     1       0.287  11.185  20.844  0.00  0.00    +0.000 A 
ATOM     24  C   UNL     1      -0.256  11.377  22.118  0.00  0.00    +0.000 A 
ATOM     25  C   UNL     1      -0.594  10.244  22.860  0.00  0.00    +0.000 A 
ATOM     26  C   UNL     1      -0.387   8.968  22.338  0.00  0.00    +0.000 A 
ATOM     27  C   UNL     1       0.153   8.795  21.054  0.00  0.00    +0.000 A 
ATOM     28  C   UNL     1       0.494   9.924  20.274  0.00  0.00    +0.000 A 
ATOM     29  H   UNL     1       0.678  13.116  20.070  0.00  0.00    +0.000 HD
ENDBRANCH  19  20
ENDBRANCH  18  19
ENDBRANCH  17  18
ENDBRANCH   7  17
TORSDOF 6
ENDMDL
MODEL 3
REMARK VINA RESULT:      -7.5      2.354      4.842
REMARK  Name = 
REMARK  8 active torsions:
REMARK  status: ('A' for Active; 'I' for Inactive)
REMARK    1  A    between atoms: C_1  and  O_2
REMARK    2  A    between atoms: O_2  and  C_3
REMARK    3  A    between atoms: C_8  and  O_9
REMARK    4  A    between atoms: O_9  and  C_10
REMARK    5  A    between atoms: C_11  and  C_12
REMARK    6  A    between atoms: C_12  and  C_13
REMARK    7  A    between atoms: C_13  and  C_14
REMARK    8  A    between atoms: C_14  and  C_15
REMARK                            x       y       z     vdW  Elec       q    Type
REMARK                         _______ _______ _______ _____ _____    ______ ____
ROOT
ATOM      1  C   UNL     1      -3.842  11.011  17.528  0.00  0.00    +0.000 A 
ATOM      2  C   UNL     1      -3.609  11.833  18.643  0.00  0.00    +0.000 A 
ATOM      3  C   UNL     1      -2.358  11.857  19.260  0.00  0.00    +0.000 A 
ATOM      4  C   UNL     1      -1.341  11.019  18.782  0.00  0.00    +0.000 A 
ATOM      5  C   UNL     1      -1.566  10.209  17.659  0.00  0.00    +0.000 A 
ATOM      6  C   UNL     1      -2.806  10.206  17.015  0.00  0.00    +0.000 A 
ATOM      7  C   UNL     1      -0.027  10.954  19.538  0.00  0.00    +0.000 C 
ATOM      8  N   UNL     1       0.394  12.300  19.949  0.00  0.00    +0.000 N 
ATOM      9  C   UNL     1       1.713  12.686  19.873  0.00  0.00    +0.000 C 
ATOM     10  O   UNL     1       2.145  13.810  20.148  0.00  0.00    +0.000 OA
ATOM     11  C   UNL     1      -0.620  13.310  20.268  0.00  0.00    +0.000 C 
ATOM     12  C   UNL     1      -2.040  12.756  20.427  0.00  0.00    +0.000 C 
ENDROOT
BRANCH   1  14
ATOM     13  C   UNL     1      -5.797  12.355  17.319  0.00  0.00    +0.000 C 
ATOM     14  O   UNL     1      -5.098  11.160  16.992  0.00  0.00    +0.000 OA
ENDBRANCH   1  14
BRANCH   6  15
ATOM     15  O   UNL     1      -3.055   9.481  15.883  0.00  0.00    +0.000 OA
ATOM     16  C   UNL     1      -2.947  10.119  14.621  0.00  0.00    +0.000 C 
ENDBRANCH   6  15
BRANCH   7  17
ATOM     17  C   UNL     1      -0.150   9.995  20.753  0.00  0.00    +0.000 C 
BRANCH  17  18
ATOM     18  C   UNL     1       1.186   9.291  21.039  0.00  0.00    +0.000 C 
BRANCH  18  19
ATOM     19  C   UNL     1       1.074   7.782  21.227  0.00  0.00    +0.000 C 
BRANCH  19  20
ATOM     20  C   UNL     1       1.823   7.031  20.158  0.00  0.00    +0.000 A 
ATOM     21  C   UNL     1       2.350   7.607  19.020  0.00  0.00    +0.000 A 
ATOM     22  N   UNL     1       3.000   6.643  18.302  0.00  0.00    +0.000 N 
ATOM     23  C   UNL     1       2.896   5.426  18.932  0.00  0.00    +0.000 A 
ATOM     24  C   UNL     1       3.414   4.183  18.555  0.00  0.00    +0.000 A 
ATOM     25  C   UNL     1       3.148   3.089  19.380  0.00  0.00    +0.000 A 
ATOM     26  C   UNL     1       2.387   3.242  20.537  0.00  0.00    +0.000 A 
ATOM     27  C   UNL     1       1.880   4.498  20.903  0.00  0.00    +0.000 A 
ATOM     28  C   UNL     1       2.142   5.628  20.094  0.00  0.00    +0.000 A 
ATOM     29  H   UNL     1       3.491   6.795  17.432  0.00  0.00    +0.000 HD
ENDBRANCH  19  20
ENDBRANCH  18  19
ENDBRANCH  17  18
ENDBRANCH   7  17
TORSDOF 6
ENDMDL
MODEL 4
REMARK VINA RESULT:      -7.5      1.111      2.228
REMARK  Name = 
REMARK  8 active torsions:
REMARK  status: ('A' for Active; 'I' for Inactive)
REMARK    1  A    between atoms: C_1  and  O_2
REMARK    2  A    between atoms: O_2  and  C_3
REMARK    3  A    between atoms: C_8  and  O_9
REMARK    4  A    between atoms: O_9  and  C_10
REMARK    5  A    between atoms: C_11  and  C_12
REMARK    6  A    between atoms: C_12  and  C_13
REMARK    7  A    between atoms: C_13  and  C_14
REMARK    8  A    between atoms: C_14  and  C_15
REMARK                            x       y       z     vdW  Elec       q    Type
REMARK                         _______ _______ _______ _____ _____    ______ ____
ROOT
ATOM      1  C   UNL     1      -0.349  12.200  22.210  0.00  0.00    +0.000 A 
ATOM      2  C   UNL     1      -0.472  12.860  20.976  0.00  0.00    +0.000 A 
ATOM      3  C   UNL     1      -0.497  12.138  19.783  0.00  0.00    +0.000 A 
ATOM      4  C   UNL     1      -0.357  10.744  19.821  0.00  0.00    +0.000 A 
ATOM      5  C   UNL     1      -0.249  10.081  21.053  0.00  0.00    +0.000 A 
ATOM      6  C   UNL     1      -0.259  10.795  22.254  0.00  0.00    +0.000 A 
ATOM      7  C   UNL     1      -0.253   9.979  18.515  0.00  0.00    +0.000 C 
ATOM      8  N   UNL     1      -1.223  10.498  17.540  0.00  0.00    +0.000 N 
ATOM      9  C   UNL     1      -1.927   9.648  16.719  0.00  0.00    +0.000 C 
ATOM     10  O   UNL     1      -2.795   9.992  15.911  0.00  0.00    +0.000 OA
ATOM     11  C   UNL     1      -1.587  11.918  17.567  0.00  0.00    +0.000 C 
ATOM     12  C   UNL     1      -0.677  12.791  18.437  0.00  0.00    +0.000 C 
ENDROOT
BRANCH   1  14
ATOM     13  C   UNL     1      -0.770  14.398  23.026  0.00  0.00    +0.000 C 
ATOM     14  O   UNL     1      -0.418  13.046  23.291  0.00  0.00    +0.000 OA
ENDBRANCH   1  14
BRANCH   6  15
ATOM     15  O   UNL     1      -0.218  10.192  23.480  0.00  0.00    +0.000 OA
ATOM     16  C   UNL     1       0.796   9.235  23.741  0.00  0.00    +0.000 C 
ENDBRANCH   6  15
BRANCH   7  17
ATOM     17  C   UNL     1       1.199  10.041  17.967  0.00  0.00    +0.000 C 
BRANCH  17  18
ATOM     18  C   UNL     1       1.769   8.629  17.752  0.00  0.00    +0.000 C 
BRANCH  18  19
ATOM     19  C   UNL     1       2.144   7.902  19.038  0.00  0.00    +0.000 C 
BRANCH  19  20
ATOM     20  C   UNL     1       2.617   6.498  18.765  0.00  0.00    +0.000 A 
ATOM     21  C   UNL     1       3.526   6.156  17.785  0.00  0.00    +0.000 A 
ATOM     22  N   UNL     1       3.758   4.810  17.853  0.00  0.00    +0.000 N 
ATOM     23  C   UNL     1       2.999   4.245  18.851  0.00  0.00    +0.000 A 
ATOM     24  C   UNL     1       2.931   2.912  19.268  0.00  0.00    +0.000 A 
ATOM     25  C   UNL     1       2.058   2.599  20.311  0.00  0.00    +0.000 A 
ATOM     26  C   UNL     1       1.282   3.591  20.906  0.00  0.00    +0.000 A 
ATOM     27  C   UNL     1       1.368   4.926  20.479  0.00  0.00    +0.000 A 
ATOM     28  C   UNL     1       2.252   5.275  19.433  0.00  0.00    +0.000 A 
ATOM     29  H   UNL     1       4.395   4.298  17.260  0.00  0.00    +0.000 HD
ENDBRANCH  19  20
ENDBRANCH  18  19
ENDBRANCH  17  18
ENDBRANCH   7  17
TORSDOF 6
ENDMDL
MODEL 5
REMARK VINA RESULT:      -7.4      2.321      4.535
REMARK  Name = 
REMARK  8 active torsions:
REMARK  status: ('A' for Active; 'I' for Inactive)
REMARK    1  A    between atoms: C_1  and  O_2
REMARK    2  A    between atoms: O_2  and  C_3
REMARK    3  A    between atoms: C_8  and  O_9
REMARK    4  A    between atoms: O_9  and  C_10
REMARK    5  A    between atoms: C_11  and  C_12
REMARK    6  A    between atoms: C_12  and  C_13
REMARK    7  A    between atoms: C_13  and  C_14
REMARK    8  A    between atoms: C_14  and  C_15
REMARK                            x       y       z     vdW  Elec       q    Type
REMARK                         _______ _______ _______ _____ _____    ______ ____
ROOT
ATOM      1  C   UNL     1      -4.523  11.291  17.626  0.00  0.00    +0.000 A 
ATOM      2  C   UNL     1      -4.036  11.754  18.859  0.00  0.00    +0.000 A 
ATOM      3  C   UNL     1      -2.669  11.946  19.058  0.00  0.00    +0.000 A 
ATOM      4  C   UNL     1      -1.775  11.634  18.025  0.00  0.00    +0.000 A 
ATOM      5  C   UNL     1      -2.259  11.186  16.787  0.00  0.00    +0.000 A 
ATOM      6  C   UNL     1      -3.630  11.024  16.570  0.00  0.00    +0.000 A 
ATOM      7  C   UNL     1      -0.284  11.720  18.292  0.00  0.00    +0.000 C 
ATOM      8  N   UNL     1       0.028  12.932  19.063  0.00  0.00    +0.000 N 
ATOM      9  C   UNL     1       1.142  13.688  18.778  0.00  0.00    +0.000 C 
ATOM     10  O   UNL     1       1.451  14.744  19.338  0.00  0.00    +0.000 OA
ATOM     11  C   UNL     1      -0.951  13.451  20.023  0.00  0.00    +0.000 C 
ATOM     12  C   UNL     1      -2.099  12.488  20.343  0.00  0.00    +0.000 C 
ENDROOT
BRANCH   1  14
ATOM     13  C   UNL     1      -6.593  11.332  18.802  0.00  0.00    +0.000 C 
ATOM     14  O   UNL     1      -5.894  11.228  17.568  0.00  0.00    +0.000 OA
ENDBRANCH   1  14
BRANCH   6  15
ATOM     15  O   UNL     1      -4.153  10.649  15.364  0.00  0.00    +0.000 OA
ATOM     16  C   UNL     1      -3.288  10.119  14.374  0.00  0.00    +0.000 C 
ENDBRANCH   6  15
BRANCH   7  17
ATOM     17  C   UNL     1       0.211  10.437  19.015  0.00  0.00    +0.000 C 
BRANCH  17  18
ATOM     18  C   UNL     1       0.661   9.372  18.003  0.00  0.00    +0.000 C 
BRANCH  18  19
ATOM     19  C   UNL     1       2.169   9.163  17.940  0.00  0.00    +0.000 C 
BRANCH  19  20
ATOM     20  C   UNL     1       2.578   7.866  18.587  0.00  0.00    +0.000 A 
ATOM     21  C   UNL     1       2.113   7.419  19.807  0.00  0.00    +0.000 A 
ATOM     22  N   UNL     1       2.655   6.190  20.059  0.00  0.00    +0.000 N 
ATOM     23  C   UNL     1       3.494   5.819  19.036  0.00  0.00    +0.000 A 
ATOM     24  C   UNL     1       4.243   4.648  18.881  0.00  0.00    +0.000 A 
ATOM     25  C   UNL     1       5.033   4.526  17.737  0.00  0.00    +0.000 A 
ATOM     26  C   UNL     1       5.070   5.546  16.789  0.00  0.00    +0.000 A 
ATOM     27  C   UNL     1       4.307   6.712  16.958  0.00  0.00    +0.000 A 
ATOM     28  C   UNL     1       3.488   6.860  18.100  0.00  0.00    +0.000 A 
ATOM     29  H   UNL     1       2.470   5.627  20.877  0.00  0.00    +0.000 HD
ENDBRANCH  19  20
ENDBRANCH  18  19
ENDBRANCH  17  18
ENDBRANCH   7  17
TORSDOF 6
ENDMDL
MODEL 6
REMARK VINA RESULT:      -7.4      4.128      9.761
REMARK  Name = 
REMARK  8 active torsions:
REMARK  status: ('A' for Active; 'I' for Inactive)
REMARK    1  A    between atoms: C_1  and  O_2
REMARK    2  A    between atoms: O_2  and  C_3
REMARK    3  A    between atoms: C_8  and  O_9
REMARK    4  A    between atoms: O_9  and  C_10
REMARK    5  A    between atoms: C_11  and  C_12
REMARK    6  A    between atoms: C_12  and  C_13
REMARK    7  A    between atoms: C_13  and  C_14
REMARK    8  A    between atoms: C_14  and  C_15
REMARK                            x       y       z     vdW  Elec       q    Type
REMARK                         _______ _______ _______ _____ _____    ______ ____
ROOT
ATOM      1  C   UNL     1       7.173   4.911  14.738  0.00  0.00    +0.000 A 
ATOM      2  C   UNL     1       7.159   5.397  16.056  0.00  0.00    +0.000 A 
ATOM      3  C   UNL     1       6.140   5.033  16.937  0.00  0.00    +0.000 A 
ATOM      4  C   UNL     1       5.102   4.208  16.483  0.00  0.00    +0.000 A 
ATOM      5  C   UNL     1       5.122   3.709  15.172  0.00  0.00    +0.000 A 
ATOM      6  C   UNL     1       6.158   4.040  14.295  0.00  0.00    +0.000 A 
ATOM      7  C   UNL     1       3.931   3.925  17.406  0.00  0.00    +0.000 C 
ATOM      8  N   UNL     1       4.408   3.661  18.771  0.00  0.00    +0.000 N 
ATOM      9  C   UNL     1       3.845   2.669  19.540  0.00  0.00    +0.000 C 
ATOM     10  O   UNL     1       4.217   2.346  20.672  0.00  0.00    +0.000 OA
ATOM     11  C   UNL     1       5.618   4.331  19.257  0.00  0.00    +0.000 C 
ATOM     12  C   UNL     1       6.103   5.485  18.374  0.00  0.00    +0.000 C 
ENDROOT
BRANCH   1  14
ATOM     13  C   UNL     1       8.057   5.781  12.705  0.00  0.00    +0.000 C 
ATOM     14  O   UNL     1       8.280   5.299  14.024  0.00  0.00    +0.000 OA
ENDBRANCH   1  14
BRANCH   6  15
ATOM     15  O   UNL     1       6.254   3.531  13.030  0.00  0.00    +0.000 OA
ATOM     16  C   UNL     1       5.090   3.477  12.222  0.00  0.00    +0.000 C 
ENDBRANCH   6  15
BRANCH   7  17
ATOM     17  C   UNL     1       2.918   5.101  17.370  0.00  0.00    +0.000 C 
BRANCH  17  18
ATOM     18  C   UNL     1       2.330   5.368  18.765  0.00  0.00    +0.000 C 
BRANCH  18  19
ATOM     19  C   UNL     1       2.901   6.597  19.461  0.00  0.00    +0.000 C 
BRANCH  19  20
ATOM     20  C   UNL     1       2.192   7.856  19.036  0.00  0.00    +0.000 A 
ATOM     21  C   UNL     1       2.302   8.433  17.788  0.00  0.00    +0.000 A 
ATOM     22  N   UNL     1       1.489   9.531  17.739  0.00  0.00    +0.000 N 
ATOM     23  C   UNL     1       0.853   9.709  18.944  0.00  0.00    +0.000 A 
ATOM     24  C   UNL     1      -0.064  10.692  19.328  0.00  0.00    +0.000 A 
ATOM     25  C   UNL     1      -0.556  10.650  20.634  0.00  0.00    +0.000 A 
ATOM     26  C   UNL     1      -0.135   9.659  21.518  0.00  0.00    +0.000 A 
ATOM     27  C   UNL     1       0.781   8.676  21.113  0.00  0.00    +0.000 A 
ATOM     28  C   UNL     1       1.288   8.685  19.793  0.00  0.00    +0.000 A 
ATOM     29  H   UNL     1       1.366  10.130  16.934  0.00  0.00    +0.000 HD
ENDBRANCH  19  20
ENDBRANCH  18  19
ENDBRANCH  17  18
ENDBRANCH   7  17
TORSDOF 6
ENDMDL
MODEL 7
REMARK VINA RESULT:      -7.3      2.309      4.728
REMARK  Name = 
REMARK  8 active torsions:
REMARK  status: ('A' for Active; 'I' for Inactive)
REMARK    1  A    between atoms: C_1  and  O_2
REMARK    2  A    between atoms: O_2  and  C_3
REMARK    3  A    between atoms: C_8  and  O_9
REMARK    4  A    between atoms: O_9  and  C_10
REMARK    5  A    between atoms: C_11  and  C_12
REMARK    6  A    between atoms: C_12  and  C_13
REMARK    7  A    between atoms: C_13  and  C_14
REMARK    8  A    between atoms: C_14  and  C_15
REMARK                            x       y       z     vdW  Elec       q    Type
REMARK                         _______ _______ _______ _____ _____    ______ ____
ROOT
ATOM      1  C   UNL     1      -4.191  11.592  17.986  0.00  0.00    +0.000 A 
ATOM      2  C   UNL     1      -3.713  12.172  19.173  0.00  0.00    +0.000 A 
ATOM      3  C   UNL     1      -2.378  12.024  19.550  0.00  0.00    +0.000 A 
ATOM      4  C   UNL     1      -1.521  11.252  18.753  0.00  0.00    +0.000 A 
ATOM      5  C   UNL     1      -1.992  10.684  17.559  0.00  0.00    +0.000 A 
ATOM      6  C   UNL     1      -3.319  10.859  17.158  0.00  0.00    +0.000 A 
ATOM      7  C   UNL     1      -0.108  10.987  19.237  0.00  0.00    +0.000 C 
ATOM      8  N   UNL     1       0.476  12.209  19.806  0.00  0.00    +0.000 N 
ATOM      9  C   UNL     1       1.788  12.547  19.567  0.00  0.00    +0.000 C 
ATOM     10  O   UNL     1       2.343  13.577  19.961  0.00  0.00    +0.000 OA
ATOM     11  C   UNL     1      -0.392  13.180  20.480  0.00  0.00    +0.000 C 
ATOM     12  C   UNL     1      -1.802  12.666  20.786  0.00  0.00    +0.000 C 
ENDROOT
BRANCH   1  14
ATOM     13  C   UNL     1      -6.487  11.039  18.291  0.00  0.00    +0.000 C 
ATOM     14  O   UNL     1      -5.504  11.894  17.720  0.00  0.00    +0.000 OA
ENDBRANCH   1  14
BRANCH   6  15
ATOM     15  O   UNL     1      -3.808  10.377  15.976  0.00  0.00    +0.000 OA
ATOM     16  C   UNL     1      -2.900  10.068  14.931  0.00  0.00    +0.000 C 
ENDBRANCH   6  15
BRANCH   7  17
ATOM     17  C   UNL     1      -0.097   9.817  20.258  0.00  0.00    +0.000 C 
BRANCH  17  18
ATOM     18  C   UNL     1       1.172   8.963  20.106  0.00  0.00    +0.000 C 
BRANCH  18  19
ATOM     19  C   UNL     1       1.611   8.742  18.664  0.00  0.00    +0.000 C 
BRANCH  19  20
ATOM     20  C   UNL     1       2.501   7.534  18.532  0.00  0.00    +0.000 A 
ATOM     21  C   UNL     1       3.538   7.421  17.630  0.00  0.00    +0.000 A 
ATOM     22  N   UNL     1       4.156   6.217  17.821  0.00  0.00    +0.000 N 
ATOM     23  C   UNL     1       3.533   5.514  18.824  0.00  0.00    +0.000 A 
ATOM     24  C   UNL     1       3.837   4.254  19.347  0.00  0.00    +0.000 A 
ATOM     25  C   UNL     1       3.026   3.758  20.369  0.00  0.00    +0.000 A 
ATOM     26  C   UNL     1       1.947   4.504  20.841  0.00  0.00    +0.000 A 
ATOM     27  C   UNL     1       1.660   5.770  20.309  0.00  0.00    +0.000 A 
ATOM     28  C   UNL     1       2.471   6.304  19.281  0.00  0.00    +0.000 A 
ATOM     29  H   UNL     1       4.959   5.885  17.305  0.00  0.00    +0.000 HD
ENDBRANCH  19  20
ENDBRANCH  18  19
ENDBRANCH  17  18
ENDBRANCH   7  17
TORSDOF 6
ENDMDL
MODEL 8
REMARK VINA RESULT:      -7.3      3.785      8.773
REMARK  Name = 
REMARK  8 active torsions:
REMARK  status: ('A' for Active; 'I' for Inactive)
REMARK    1  A    between atoms: C_1  and  O_2
REMARK    2  A    between atoms: O_2  and  C_3
REMARK    3  A    between atoms: C_8  and  O_9
REMARK    4  A    between atoms: O_9  and  C_10
REMARK    5  A    between atoms: C_11  and  C_12
REMARK    6  A    between atoms: C_12  and  C_13
REMARK    7  A    between atoms: C_13  and  C_14
REMARK    8  A    between atoms: C_14  and  C_15
REMARK                            x       y       z     vdW  Elec       q    Type
REMARK                         _______ _______ _______ _____ _____    ______ ____
ROOT
ATOM      1  C   UNL     1       3.280   2.955  18.439  0.00  0.00    +0.000 A 
ATOM      2  C   UNL     1       3.928   3.330  17.250  0.00  0.00    +0.000 A 
ATOM      3  C   UNL     1       4.431   4.621  17.092  0.00  0.00    +0.000 A 
ATOM      4  C   UNL     1       4.249   5.559  18.116  0.00  0.00    +0.000 A 
ATOM      5  C   UNL     1       3.616   5.183  19.310  0.00  0.00    +0.000 A 
ATOM      6  C   UNL     1       3.140   3.882  19.490  0.00  0.00    +0.000 A 
ATOM      7  C   UNL     1       4.682   6.995  17.884  0.00  0.00    +0.000 C 
ATOM      8  N   UNL     1       5.986   7.033  17.207  0.00  0.00    +0.000 N 
ATOM      9  C   UNL     1       6.946   7.950  17.566  0.00  0.00    +0.000 C 
ATOM     10  O   UNL     1       8.082   8.019  17.087  0.00  0.00    +0.000 OA
ATOM     11  C   UNL     1       6.345   5.965  16.267  0.00  0.00    +0.000 C 
ATOM     12  C   UNL     1       5.178   5.060  15.858  0.00  0.00    +0.000 C 
ENDROOT
BRANCH   1  14
ATOM     13  C   UNL     1       3.876   0.707  18.954  0.00  0.00    +0.000 C 
ATOM     14  O   UNL     1       2.911   1.631  18.466  0.00  0.00    +0.000 OA
ENDBRANCH   1  14
BRANCH   6  15
ATOM     15  O   UNL     1       2.572   3.451  20.656  0.00  0.00    +0.000 OA
ATOM     16  C   UNL     1       1.170   3.581  20.826  0.00  0.00    +0.000 C 
ENDBRANCH   6  15
BRANCH   7  17
ATOM     17  C   UNL     1       3.597   7.764  17.082  0.00  0.00    +0.000 C 
BRANCH  17  18
ATOM     18  C   UNL     1       2.692   8.580  18.018  0.00  0.00    +0.000 C 
BRANCH  18  19
ATOM     19  C   UNL     1       1.238   8.665  17.571  0.00  0.00    +0.000 C 
BRANCH  19  20
ATOM     20  C   UNL     1       0.476   9.703  18.351  0.00  0.00    +0.000 A 
ATOM     21  C   UNL     1       0.973  10.383  19.443  0.00  0.00    +0.000 A 
ATOM     22  N   UNL     1       0.031  11.278  19.868  0.00  0.00    +0.000 N 
ATOM     23  C   UNL     1      -1.098  11.189  19.090  0.00  0.00    +0.000 A 
ATOM     24  C   UNL     1      -2.289  11.917  19.168  0.00  0.00    +0.000 A 
ATOM     25  C   UNL     1      -3.298  11.616  18.250  0.00  0.00    +0.000 A 
ATOM     26  C   UNL     1      -3.112  10.618  17.296  0.00  0.00    +0.000 A 
ATOM     27  C   UNL     1      -1.907   9.902  17.228  0.00  0.00    +0.000 A 
ATOM     28  C   UNL     1      -0.863  10.192  18.137  0.00  0.00    +0.000 A 
ATOM     29  H   UNL     1       0.143  11.917  20.643  0.00  0.00    +0.000 HD
ENDBRANCH  19  20
ENDBRANCH  18  19
ENDBRANCH  17  18
ENDBRANCH   7  17
TORSDOF 6
ENDMDL
MODEL 9
REMARK VINA RESULT:      -7.2      3.840      8.647
REMARK  Name = 
REMARK  8 active torsions:
REMARK  status: ('A' for Active; 'I' for Inactive)
REMARK    1  A    between atoms: C_1  and  O_2
REMARK    2  A    between atoms: O_2  and  C_3
REMARK    3  A    between atoms: C_8  and  O_9
REMARK    4  A    between atoms: O_9  and  C_10
REMARK    5  A    between atoms: C_11  and  C_12
REMARK    6  A    between atoms: C_12  and  C_13
REMARK    7  A    between atoms: C_13  and  C_14
REMARK    8  A    between atoms: C_14  and  C_15
REMARK                            x       y       z     vdW  Elec       q    Type
REMARK                         _______ _______ _______ _____ _____    ______ ____
ROOT
ATOM      1  C   UNL     1       3.308   2.968  18.577  0.00  0.00    +0.000 A 
ATOM      2  C   UNL     1       3.867   3.370  17.353  0.00  0.00    +0.000 A 
ATOM      3  C   UNL     1       4.373   4.659  17.191  0.00  0.00    +0.000 A 
ATOM      4  C   UNL     1       4.284   5.570  18.253  0.00  0.00    +0.000 A 
ATOM      5  C   UNL     1       3.740   5.167  19.482  0.00  0.00    +0.000 A 
ATOM      6  C   UNL     1       3.263   3.866  19.661  0.00  0.00    +0.000 A 
ATOM      7  C   UNL     1       4.716   7.007  18.027  0.00  0.00    +0.000 C 
ATOM      8  N   UNL     1       5.963   7.050  17.252  0.00  0.00    +0.000 N 
ATOM      9  C   UNL     1       6.961   7.946  17.560  0.00  0.00    +0.000 C 
ATOM     10  O   UNL     1       8.057   8.016  16.997  0.00  0.00    +0.000 OA
ATOM     11  C   UNL     1       6.234   6.006  16.258  0.00  0.00    +0.000 C 
ATOM     12  C   UNL     1       5.027   5.126  15.916  0.00  0.00    +0.000 C 
ENDROOT
BRANCH   1  14
ATOM     13  C   UNL     1       3.933   0.694  18.906  0.00  0.00    +0.000 C 
ATOM     14  O   UNL     1       2.926   1.649  18.597  0.00  0.00    +0.000 OA
ENDBRANCH   1  14
BRANCH   6  15
ATOM     15  O   UNL     1       2.781   3.408  20.856  0.00  0.00    +0.000 OA
ATOM     16  C   UNL     1       1.387   3.473  21.105  0.00  0.00    +0.000 C 
ENDBRANCH   6  15
BRANCH   7  17
ATOM     17  C   UNL     1       3.581   7.810  17.334  0.00  0.00    +0.000 C 
BRANCH  17  18
ATOM     18  C   UNL     1       2.252   7.653  18.089  0.00  0.00    +0.000 C 
BRANCH  18  19
ATOM     19  C   UNL     1       1.514   8.962  18.340  0.00  0.00    +0.000 C 
BRANCH  19  20
ATOM     20  C   UNL     1       1.104   9.102  19.783  0.00  0.00    +0.000 A 
ATOM     21  C   UNL     1       1.523   8.269  20.799  0.00  0.00    +0.000 A 
ATOM     22  N   UNL     1       0.997   8.718  21.978  0.00  0.00    +0.000 N 
ATOM     23  C   UNL     1       0.213   9.826  21.761  0.00  0.00    +0.000 A 
ATOM     24  C   UNL     1      -0.502  10.602  22.678  0.00  0.00    +0.000 A 
ATOM     25  C   UNL     1      -1.237  11.682  22.185  0.00  0.00    +0.000 A 
ATOM     26  C   UNL     1      -1.252  11.964  20.821  0.00  0.00    +0.000 A 
ATOM     27  C   UNL     1      -0.523  11.178  19.915  0.00  0.00    +0.000 A 
ATOM     28  C   UNL     1       0.240  10.084  20.386  0.00  0.00    +0.000 A 
ATOM     29  H   UNL     1       1.157   8.300  22.884  0.00  0.00    +0.000 HD
ENDBRANCH  19  20
ENDBRANCH  18  19
ENDBRANCH  17  18
ENDBRANCH   7  17
TORSDOF 6
ENDMDL
