MODEL 1
REMARK VINA RESULT:      -7.9      0.000      0.000
REMARK  Name = 
REMARK  6 active torsions:
REMARK  status: ('A' for Active; 'I' for Inactive)
REMARK    1  A    between atoms: C_1  and  O_2
REMARK    2  A    between atoms: O_2  and  C_3
REMARK    3  A    between atoms: C_3  and  C_4
REMARK    4  A    between atoms: C_12  and  N_13
REMARK    5  A    between atoms: C_14  and  C_16
REMARK    6  A    between atoms: C_19  and  C_20
REMARK                            x       y       z     vdW  Elec       q    Type
REMARK                         _______ _______ _______ _____ _____    ______ ____
ROOT
ATOM      1  C   UNL     1      -5.352  11.595  18.897  0.00  0.00    +0.000 C 
ATOM      2  O   UNL     1      -5.574  10.922  17.886  0.00  0.00    +0.000 OA
ATOM      3  N   UNL     1      -4.074  12.008  19.245  0.00  0.00    +0.000 N 
ATOM      4  C   UNL     1      -3.785  12.831  20.428  0.00  0.00    +0.000 C 
ATOM      5  C   UNL     1      -2.359  13.383  20.494  0.00  0.00    +0.000 C 
ATOM      6  C   UNL     1      -1.381  12.276  20.219  0.00  0.00    +0.000 A 
ATOM      7  C   UNL     1      -0.196  12.145  20.936  0.00  0.00    +0.000 A 
ATOM      8  C   UNL     1       0.656  11.071  20.675  0.00  0.00    +0.000 A 
ATOM      9  C   UNL     1       0.349  10.127  19.690  0.00  0.00    +0.000 A 
ATOM     10  C   UNL     1      -0.811  10.300  18.925  0.00  0.00    +0.000 A 
ATOM     11  C   UNL     1      -1.689  11.359  19.202  0.00  0.00    +0.000 A 
ATOM     12  C   UNL     1      -2.957  11.561  18.412  0.00  0.00    +0.000 C 
ENDROOT
BRANCH   9  13
ATOM     13  N   UNL     1       1.163   9.002  19.417  0.00  0.00    +0.000 N 
ATOM     14  C   UNL     1       1.992   8.867  18.318  0.00  0.00    +0.000 C 
ATOM     15  O   UNL     1       2.211   9.729  17.472  0.00  0.00    +0.000 OA
ATOM     16  H   UNL     1       1.153   8.272  20.113  0.00  0.00    +0.000 HD
BRANCH  14  17
ATOM     17  C   UNL     1       2.682   7.557  18.142  0.00  0.00    +0.000 A 
ATOM     18  C   UNL     1       2.039   6.434  18.682  0.00  0.00    +0.000 A 
ATOM     19  C   UNL     1       2.602   5.163  18.560  0.00  0.00    +0.000 A 
ATOM     20  C   UNL     1       3.819   4.991  17.889  0.00  0.00    +0.000 A 
ATOM     21  C   UNL     1       4.454   6.118  17.334  0.00  0.00    +0.000 A 
ATOM     22  C   UNL     1       3.888   7.395  17.456  0.00  0.00    +0.000 A 
BRANCH  20  23
ATOM     23  C   UNL     1       4.436   3.620  17.756  0.00  0.00    +0.000 C 
ATOM     24  F   UNL     1       5.369   3.347  18.711  0.00  0.00    +0.000 F 
ATOM     25  F   UNL     1       3.514   2.623  17.839  0.00  0.00    +0.000 F 
ATOM     26  F   UNL     1       5.066   3.450  16.561  0.00  0.00    +0.000 F 
ENDBRANCH  20  23
ENDBRANCH  14  17
ENDBRANCH   9  13
BRANCH   1  27
ATOM     27  C   UNL     1      -6.520  12.029  19.797  0.00  0.00    +0.000 C 
BRANCH  27  29
ATOM     28  C   UNL     1      -7.916  11.571  21.639  0.00  0.00    +0.000 C 
ATOM     29  O   UNL     1      -6.809  11.129  20.859  0.00  0.00    +0.000 OA
ENDBRANCH  27  29
ENDBRANCH   1  27
TORSDOF 5
ENDMDL
MODEL 2
REMARK VINA RESULT:      -7.9      1.527      2.180
REMARK  Name = 
REMARK  6 active torsions:
REMARK  status: ('A' for Active; 'I' for Inactive)
REMARK    1  A    between atoms: C_1  and  O_2
REMARK    2  A    between atoms: O_2  and  C_3
REMARK    3  A    between atoms: C_3  and  C_4
REMARK    4  A    between atoms: C_12  and  N_13
REMARK    5  A    between atoms: C_14  and  C_16
REMARK    6  A    between atoms: C_19  and  C_20
REMARK                            x       y       z     vdW  Elec       q    Type
REMARK                         _______ _______ _______ _____ _____    ______ ____
ROOT
ATOM      1  C   UNL     1      -4.694  11.571  17.659  0.00  0.00    +0.000 C 
ATOM      2  O   UNL     1      -4.785  11.335  16.451  0.00  0.00    +0.000 OA
ATOM      3  N   UNL     1      -3.469  11.739  18.290  0.00  0.00    +0.000 N 
ATOM      4  C   UNL     1      -3.333  12.045  19.721  0.00  0.00    +0.000 C 
ATOM      5  C   UNL     1      -1.921  12.437  20.162  0.00  0.00    +0.000 C 
ATOM      6  C   UNL     1      -0.932  11.446  19.613  0.00  0.00    +0.000 A 
ATOM      7  C   UNL     1       0.140  10.981  20.366  0.00  0.00    +0.000 A 
ATOM      8  C   UNL     1       1.002  10.025  19.828  0.00  0.00    +0.000 A 
ATOM      9  C   UNL     1       0.818   9.535  18.531  0.00  0.00    +0.000 A 
ATOM     10  C   UNL     1      -0.223  10.056  17.752  0.00  0.00    +0.000 A 
ATOM     11  C   UNL     1      -1.112  10.994  18.297  0.00  0.00    +0.000 A 
ATOM     12  C   UNL     1      -2.256  11.558  17.492  0.00  0.00    +0.000 C 
ENDROOT
BRANCH   9  13
ATOM     13  N   UNL     1       1.643   8.539  17.957  0.00  0.00    +0.000 N 
ATOM     14  C   UNL     1       2.290   7.539  18.660  0.00  0.00    +0.000 C 
ATOM     15  O   UNL     1       2.174   7.314  19.861  0.00  0.00    +0.000 OA
ATOM     16  H   UNL     1       1.718   8.554  16.951  0.00  0.00    +0.000 HD
BRANCH  14  17
ATOM     17  C   UNL     1       3.212   6.653  17.892  0.00  0.00    +0.000 A 
ATOM     18  C   UNL     1       4.262   7.285  17.210  0.00  0.00    +0.000 A 
ATOM     19  C   UNL     1       5.181   6.539  16.471  0.00  0.00    +0.000 A 
ATOM     20  C   UNL     1       5.072   5.145  16.406  0.00  0.00    +0.000 A 
ATOM     21  C   UNL     1       4.026   4.513  17.106  0.00  0.00    +0.000 A 
ATOM     22  C   UNL     1       3.102   5.261  17.849  0.00  0.00    +0.000 A 
BRANCH  20  23
ATOM     23  C   UNL     1       6.061   4.332  15.607  0.00  0.00    +0.000 C 
ATOM     24  F   UNL     1       5.985   4.549  14.264  0.00  0.00    +0.000 F 
ATOM     25  F   UNL     1       7.350   4.592  15.955  0.00  0.00    +0.000 F 
ATOM     26  F   UNL     1       5.888   2.993  15.778  0.00  0.00    +0.000 F 
ENDBRANCH  20  23
ENDBRANCH  14  17
ENDBRANCH   9  13
BRANCH   1  27
ATOM     27  C   UNL     1      -5.967  11.719  18.507  0.00  0.00    +0.000 C 
BRANCH  27  29
ATOM     28  C   UNL     1      -7.234  10.587  20.140  0.00  0.00    +0.000 C 
ATOM     29  O   UNL     1      -6.567  10.487  18.886  0.00  0.00    +0.000 OA
ENDBRANCH  27  29
ENDBRANCH   1  27
TORSDOF 5
ENDMDL
MODEL 3
REMARK VINA RESULT:      -7.8      0.887      1.198
REMARK  Name = 
REMARK  6 active torsions:
REMARK  status: ('A' for Active; 'I' for Inactive)
REMARK    1  A    between atoms: C_1  and  O_2
REMARK    2  A    between atoms: O_2  and  C_3
REMARK    3  A    between atoms: C_3  and  C_4
REMARK    4  A    between atoms: C_12  and  N_13
REMARK    5  A    between atoms: C_14  and  C_16
REMARK    6  A    between atoms: C_19  and  C_20
REMARK                            x       y       z     vdW  Elec       q    Type
REMARK                         _______ _______ _______ _____ _____    ______ ____
ROOT
ATOM      1  C   UNL     1      -5.092  11.569  17.783  0.00  0.00    +0.000 C 
ATOM      2  O   UNL     1      -4.979  11.107  16.644  0.00  0.00    +0.000 OA
ATOM      3  N   UNL     1      -3.991  11.922  18.551  0.00  0.00    +0.000 N 
ATOM      4  C   UNL     1      -4.098  12.497  19.899  0.00  0.00    +0.000 C 
ATOM      5  C   UNL     1      -2.787  13.044  20.470  0.00  0.00    +0.000 C 
ATOM      6  C   UNL     1      -1.697  12.026  20.283  0.00  0.00    +0.000 A 
ATOM      7  C   UNL     1      -0.750  11.771  21.269  0.00  0.00    +0.000 A 
ATOM      8  C   UNL     1       0.213  10.782  21.066  0.00  0.00    +0.000 A 
ATOM      9  C   UNL     1       0.255  10.048  19.876  0.00  0.00    +0.000 A 
ATOM     10  C   UNL     1      -0.658  10.354  18.859  0.00  0.00    +0.000 A 
ATOM     11  C   UNL     1      -1.648  11.326  19.067  0.00  0.00    +0.000 A 
ATOM     12  C   UNL     1      -2.660  11.664  18.002  0.00  0.00    +0.000 C 
ENDROOT
BRANCH   9  13
ATOM     13  N   UNL     1       1.188   9.011  19.641  0.00  0.00    +0.000 N 
ATOM     14  C   UNL     1       1.933   8.856  18.485  0.00  0.00    +0.000 C 
ATOM     15  O   UNL     1       1.961   9.636  17.538  0.00  0.00    +0.000 OA
ATOM     16  H   UNL     1       1.336   8.369  20.405  0.00  0.00    +0.000 HD
BRANCH  14  17
ATOM     17  C   UNL     1       2.776   7.631  18.377  0.00  0.00    +0.000 A 
ATOM     18  C   UNL     1       2.582   6.649  19.359  0.00  0.00    +0.000 A 
ATOM     19  C   UNL     1       3.319   5.464  19.337  0.00  0.00    +0.000 A 
ATOM     20  C   UNL     1       4.261   5.236  18.327  0.00  0.00    +0.000 A 
ATOM     21  C   UNL     1       4.442   6.217  17.333  0.00  0.00    +0.000 A 
ATOM     22  C   UNL     1       3.702   7.408  17.354  0.00  0.00    +0.000 A 
BRANCH  20  23
ATOM     23  C   UNL     1       5.064   3.958  18.297  0.00  0.00    +0.000 C 
ATOM     24  F   UNL     1       4.752   3.143  17.251  0.00  0.00    +0.000 F 
ATOM     25  F   UNL     1       6.402   4.187  18.207  0.00  0.00    +0.000 F 
ATOM     26  F   UNL     1       4.885   3.209  19.420  0.00  0.00    +0.000 F 
ENDBRANCH  20  23
ENDBRANCH  14  17
ENDBRANCH   9  13
BRANCH   1  27
ATOM     27  C   UNL     1      -6.489  11.800  18.378  0.00  0.00    +0.000 C 
BRANCH  27  29
ATOM     28  C   UNL     1      -7.408  10.783  20.295  0.00  0.00    +0.000 C 
ATOM     29  O   UNL     1      -7.101  10.633  18.912  0.00  0.00    +0.000 OA
ENDBRANCH  27  29
ENDBRANCH   1  27
TORSDOF 5
ENDMDL
MODEL 4
REMARK VINA RESULT:      -7.8      6.204     10.099
REMARK  Name = 
REMARK  6 active torsions:
REMARK  status: ('A' for Active; 'I' for Inactive)
REMARK    1  A    between atoms: C_1  and  O_2
REMARK    2  A    between atoms: O_2  and  C_3
REMARK    3  A    between atoms: C_3  and  C_4
REMARK    4  A    between atoms: C_12  and  N_13
REMARK    5  A    between atoms: C_14  and  C_16
REMARK    6  A    between atoms: C_19  and  C_20
REMARK                            x       y       z     vdW  Elec       q    Type
REMARK                         _______ _______ _______ _____ _____    ______ ____
ROOT
ATOM      1  C   UNL     1       1.590   3.695  19.805  0.00  0.00    +0.000 C 
ATOM      2  O   UNL     1       1.291   3.447  20.977  0.00  0.00    +0.000 OA
ATOM      3  N   UNL     1       2.044   4.944  19.405  0.00  0.00    +0.000 N 
ATOM      4  C   UNL     1       2.430   5.257  18.022  0.00  0.00    +0.000 C 
ATOM      5  C   UNL     1       3.135   6.604  17.842  0.00  0.00    +0.000 C 
ATOM      6  C   UNL     1       2.360   7.674  18.558  0.00  0.00    +0.000 A 
ATOM      7  C   UNL     1       2.167   8.937  18.009  0.00  0.00    +0.000 A 
ATOM      8  C   UNL     1       1.400   9.880  18.693  0.00  0.00    +0.000 A 
ATOM      9  C   UNL     1       0.829   9.584  19.935  0.00  0.00    +0.000 A 
ATOM     10  C   UNL     1       1.081   8.335  20.515  0.00  0.00    +0.000 A 
ATOM     11  C   UNL     1       1.827   7.371  19.821  0.00  0.00    +0.000 A 
ATOM     12  C   UNL     1       2.097   6.008  20.407  0.00  0.00    +0.000 C 
ENDROOT
BRANCH   9  13
ATOM     13  N   UNL     1       0.013  10.495  20.647  0.00  0.00    +0.000 N 
ATOM     14  C   UNL     1       0.461  11.641  21.278  0.00  0.00    +0.000 C 
ATOM     15  O   UNL     1       1.606  12.082  21.239  0.00  0.00    +0.000 OA
ATOM     16  H   UNL     1      -0.976  10.293  20.646  0.00  0.00    +0.000 HD
BRANCH  14  17
ATOM     17  C   UNL     1      -0.534  12.411  22.078  0.00  0.00    +0.000 A 
ATOM     18  C   UNL     1      -1.630  11.691  22.574  0.00  0.00    +0.000 A 
ATOM     19  C   UNL     1      -2.609  12.323  23.342  0.00  0.00    +0.000 A 
ATOM     20  C   UNL     1      -2.507  13.689  23.633  0.00  0.00    +0.000 A 
ATOM     21  C   UNL     1      -1.397  14.406  23.147  0.00  0.00    +0.000 A 
ATOM     22  C   UNL     1      -0.412  13.771  22.376  0.00  0.00    +0.000 A 
BRANCH  20  23
ATOM     23  C   UNL     1      -3.564  14.381  24.460  0.00  0.00    +0.000 C 
ATOM     24  F   UNL     1      -3.208  14.554  25.764  0.00  0.00    +0.000 F 
ATOM     25  F   UNL     1      -3.865  15.620  23.987  0.00  0.00    +0.000 F 
ATOM     26  F   UNL     1      -4.736  13.690  24.483  0.00  0.00    +0.000 F 
ENDBRANCH  20  23
ENDBRANCH  14  17
ENDBRANCH   9  13
BRANCH   1  27
ATOM     27  C   UNL     1       1.493   2.589  18.743  0.00  0.00    +0.000 C 
BRANCH  27  29
ATOM     28  C   UNL     1       3.747   1.901  18.760  0.00  0.00    +0.000 C 
ATOM     29  O   UNL     1       2.391   1.504  18.941  0.00  0.00    +0.000 OA
ENDBRANCH  27  29
ENDBRANCH   1  27
TORSDOF 5
ENDMDL
MODEL 5
REMARK VINA RESULT:      -7.7      5.765      9.968
REMARK  Name = 
REMARK  6 active torsions:
REMARK  status: ('A' for Active; 'I' for Inactive)
REMARK    1  A    between atoms: C_1  and  O_2
REMARK    2  A    between atoms: O_2  and  C_3
REMARK    3  A    between atoms: C_3  and  C_4
REMARK    4  A    between atoms: C_12  and  N_13
REMARK    5  A    between atoms: C_14  and  C_16
REMARK    6  A    between atoms: C_19  and  C_20
REMARK                            x       y       z     vdW  Elec       q    Type
REMARK                         _______ _______ _______ _____ _____    ______ ____
ROOT
ATOM      1  C   UNL     1       2.953   3.632  19.803  0.00  0.00    +0.000 C 
ATOM      2  O   UNL     1       2.678   3.423  20.988  0.00  0.00    +0.000 OA
ATOM      3  N   UNL     1       3.135   4.914  19.301  0.00  0.00    +0.000 N 
ATOM      4  C   UNL     1       3.488   5.189  17.901  0.00  0.00    +0.000 C 
ATOM      5  C   UNL     1       3.884   6.639  17.613  0.00  0.00    +0.000 C 
ATOM      6  C   UNL     1       2.870   7.566  18.221  0.00  0.00    +0.000 A 
ATOM      7  C   UNL     1       2.422   8.706  17.561  0.00  0.00    +0.000 A 
ATOM      8  C   UNL     1       1.444   9.507  18.148  0.00  0.00    +0.000 A 
ATOM      9  C   UNL     1       0.912   9.196  19.404  0.00  0.00    +0.000 A 
ATOM     10  C   UNL     1       1.413   8.086  20.095  0.00  0.00    +0.000 A 
ATOM     11  C   UNL     1       2.375   7.258  19.498  0.00  0.00    +0.000 A 
ATOM     12  C   UNL     1       2.919   6.042  20.206  0.00  0.00    +0.000 C 
ENDROOT
BRANCH   9  13
ATOM     13  N   UNL     1      -0.108   9.958  20.021  0.00  0.00    +0.000 N 
ATOM     14  C   UNL     1       0.100  10.980  20.929  0.00  0.00    +0.000 C 
ATOM     15  O   UNL     1       1.191  11.434  21.264  0.00  0.00    +0.000 OA
ATOM     16  H   UNL     1      -1.052   9.749  19.730  0.00  0.00    +0.000 HD
BRANCH  14  17
ATOM     17  C   UNL     1      -1.107  11.587  21.562  0.00  0.00    +0.000 A 
ATOM     18  C   UNL     1      -1.321  11.287  22.915  0.00  0.00    +0.000 A 
ATOM     19  C   UNL     1      -2.419  11.814  23.596  0.00  0.00    +0.000 A 
ATOM     20  C   UNL     1      -3.321  12.658  22.937  0.00  0.00    +0.000 A 
ATOM     21  C   UNL     1      -3.094  12.970  21.583  0.00  0.00    +0.000 A 
ATOM     22  C   UNL     1      -1.991  12.441  20.898  0.00  0.00    +0.000 A 
BRANCH  20  23
ATOM     23  C   UNL     1      -4.513  13.230  23.666  0.00  0.00    +0.000 C 
ATOM     24  F   UNL     1      -4.976  12.428  24.665  0.00  0.00    +0.000 F 
ATOM     25  F   UNL     1      -4.240  14.430  24.246  0.00  0.00    +0.000 F 
ATOM     26  F   UNL     1      -5.572  13.444  22.838  0.00  0.00    +0.000 F 
ENDBRANCH  20  23
ENDBRANCH  14  17
ENDBRANCH   9  13
BRANCH   1  27
ATOM     27  C   UNL     1       3.138   2.449  18.841  0.00  0.00    +0.000 C 
BRANCH  27  29
ATOM     28  C   UNL     1       0.797   2.214  18.709  0.00  0.00    +0.000 C 
ATOM     29  O   UNL     1       2.026   2.205  17.990  0.00  0.00    +0.000 OA
ENDBRANCH  27  29
ENDBRANCH   1  27
TORSDOF 5
ENDMDL
MODEL 6
REMARK VINA RESULT:      -7.6      1.072      1.558
REMARK  Name = 
REMARK  6 active torsions:
REMARK  status: ('A' for Active; 'I' for Inactive)
REMARK    1  A    between atoms: C_1  and  O_2
REMARK    2  A    between atoms: O_2  and  C_3
REMARK    3  A    between atoms: C_3  and  C_4
REMARK    4  A    between atoms: C_12  and  N_13
REMARK    5  A    between atoms: C_14  and  C_16
REMARK    6  A    between atoms: C_19  and  C_20
REMARK                            x       y       z     vdW  Elec       q    Type
REMARK                         _______ _______ _______ _____ _____    ______ ____
ROOT
ATOM      1  C   UNL     1      -4.943  11.862  17.920  0.00  0.00    +0.000 C 
ATOM      2  O   UNL     1      -4.884  11.522  16.734  0.00  0.00    +0.000 OA
ATOM      3  N   UNL     1      -3.805  12.063  18.689  0.00  0.00    +0.000 N 
ATOM      4  C   UNL     1      -3.847  12.492  20.095  0.00  0.00    +0.000 C 
ATOM      5  C   UNL     1      -2.493  12.896  20.683  0.00  0.00    +0.000 C 
ATOM      6  C   UNL     1      -1.471  11.844  20.354  0.00  0.00    +0.000 A 
ATOM      7  C   UNL     1      -0.518  11.427  21.279  0.00  0.00    +0.000 A 
ATOM      8  C   UNL     1       0.378  10.413  20.941  0.00  0.00    +0.000 A 
ATOM      9  C   UNL     1       0.349   9.814  19.677  0.00  0.00    +0.000 A 
ATOM     10  C   UNL     1      -0.567  10.283  18.727  0.00  0.00    +0.000 A 
ATOM     11  C   UNL     1      -1.491  11.281  19.069  0.00  0.00    +0.000 A 
ATOM     12  C   UNL     1      -2.505  11.792  18.076  0.00  0.00    +0.000 C 
ENDROOT
BRANCH   9  13
ATOM     13  N   UNL     1       1.212   8.758  19.303  0.00  0.00    +0.000 N 
ATOM     14  C   UNL     1       2.029   8.753  18.187  0.00  0.00    +0.000 C 
ATOM     15  O   UNL     1       2.192   9.691  17.412  0.00  0.00    +0.000 OA
ATOM     16  H   UNL     1       1.249   7.973  19.937  0.00  0.00    +0.000 HD
BRANCH  14  17
ATOM     17  C   UNL     1       2.779   7.497  17.896  0.00  0.00    +0.000 A 
ATOM     18  C   UNL     1       3.992   7.638  17.207  0.00  0.00    +0.000 A 
ATOM     19  C   UNL     1       4.769   6.522  16.896  0.00  0.00    +0.000 A 
ATOM     20  C   UNL     1       4.349   5.241  17.275  0.00  0.00    +0.000 A 
ATOM     21  C   UNL     1       3.138   5.104  17.981  0.00  0.00    +0.000 A 
ATOM     22  C   UNL     1       2.357   6.226  18.294  0.00  0.00    +0.000 A 
BRANCH  20  23
ATOM     23  C   UNL     1       5.182   4.027  16.940  0.00  0.00    +0.000 C 
ATOM     24  F   UNL     1       4.530   2.848  17.137  0.00  0.00    +0.000 F 
ATOM     25  F   UNL     1       5.588   4.018  15.642  0.00  0.00    +0.000 F 
ATOM     26  F   UNL     1       6.316   3.956  17.690  0.00  0.00    +0.000 F 
ENDBRANCH  20  23
ENDBRANCH  14  17
ENDBRANCH   9  13
BRANCH   1  27
ATOM     27  C   UNL     1      -6.310  12.106  18.577  0.00  0.00    +0.000 C 
BRANCH  27  29
ATOM     28  C   UNL     1      -6.820   9.898  19.226  0.00  0.00    +0.000 C 
ATOM     29  O   UNL     1      -7.223  11.024  18.452  0.00  0.00    +0.000 OA
ENDBRANCH  27  29
ENDBRANCH   1  27
TORSDOF 5
ENDMDL
MODEL 7
REMARK VINA RESULT:      -7.5      1.092      1.431
REMARK  Name = 
REMARK  6 active torsions:
REMARK  status: ('A' for Active; 'I' for Inactive)
REMARK    1  A    between atoms: C_1  and  O_2
REMARK    2  A    between atoms: O_2  and  C_3
REMARK    3  A    between atoms: C_3  and  C_4
REMARK    4  A    between atoms: C_12  and  N_13
REMARK    5  A    between atoms: C_14  and  C_16
REMARK    6  A    between atoms: C_19  and  C_20
REMARK                            x       y       z     vdW  Elec       q    Type
REMARK                         _______ _______ _______ _____ _____    ______ ____
ROOT
ATOM      1  C   UNL     1      -5.160  11.616  17.881  0.00  0.00    +0.000 C 
ATOM      2  O   UNL     1      -5.105  11.192  16.723  0.00  0.00    +0.000 OA
ATOM      3  N   UNL     1      -4.022  11.931  18.610  0.00  0.00    +0.000 N 
ATOM      4  C   UNL     1      -4.061  12.461  19.979  0.00  0.00    +0.000 C 
ATOM      5  C   UNL     1      -2.719  12.974  20.508  0.00  0.00    +0.000 C 
ATOM      6  C   UNL     1      -1.651  11.951  20.238  0.00  0.00    +0.000 A 
ATOM      7  C   UNL     1      -0.664  11.652  21.171  0.00  0.00    +0.000 A 
ATOM      8  C   UNL     1       0.276  10.661  20.892  0.00  0.00    +0.000 A 
ATOM      9  C   UNL     1       0.256   9.967  19.677  0.00  0.00    +0.000 A 
ATOM     10  C   UNL     1      -0.698  10.317  18.714  0.00  0.00    +0.000 A 
ATOM     11  C   UNL     1      -1.666  11.292  18.999  0.00  0.00    +0.000 A 
ATOM     12  C   UNL     1      -2.720  11.677  17.992  0.00  0.00    +0.000 C 
ENDROOT
BRANCH   9  13
ATOM     13  N   UNL     1       1.165   8.928  19.366  0.00  0.00    +0.000 N 
ATOM     14  C   UNL     1       1.960   8.878  18.235  0.00  0.00    +0.000 C 
ATOM     15  O   UNL     1       2.061   9.760  17.387  0.00  0.00    +0.000 OA
ATOM     16  H   UNL     1       1.253   8.198  20.056  0.00  0.00    +0.000 HD
BRANCH  14  17
ATOM     17  C   UNL     1       2.767   7.642  18.023  0.00  0.00    +0.000 A 
ATOM     18  C   UNL     1       2.245   6.455  18.558  0.00  0.00    +0.000 A 
ATOM     19  C   UNL     1       2.923   5.246  18.404  0.00  0.00    +0.000 A 
ATOM     20  C   UNL     1       4.136   5.199  17.706  0.00  0.00    +0.000 A 
ATOM     21  C   UNL     1       4.649   6.390  17.157  0.00  0.00    +0.000 A 
ATOM     22  C   UNL     1       3.968   7.606  17.310  0.00  0.00    +0.000 A 
BRANCH  20  23
ATOM     23  C   UNL     1       4.878   3.895  17.537  0.00  0.00    +0.000 C 
ATOM     24  F   UNL     1       5.119   3.570  16.237  0.00  0.00    +0.000 F 
ATOM     25  F   UNL     1       6.092   3.905  18.151  0.00  0.00    +0.000 F 
ATOM     26  F   UNL     1       4.197   2.841  18.065  0.00  0.00    +0.000 F 
ENDBRANCH  20  23
ENDBRANCH  14  17
ENDBRANCH   9  13
BRANCH   1  27
ATOM     27  C   UNL     1      -6.527  11.843  18.546  0.00  0.00    +0.000 C 
BRANCH  27  29
ATOM     28  C   UNL     1      -7.244  14.031  18.047  0.00  0.00    +0.000 C 
ATOM     29  O   UNL     1      -7.424  12.642  17.787  0.00  0.00    +0.000 OA
ENDBRANCH  27  29
ENDBRANCH   1  27
TORSDOF 5
ENDMDL
MODEL 8
REMARK VINA RESULT:      -7.5      3.711      5.143
REMARK  Name = 
REMARK  6 active torsions:
REMARK  status: ('A' for Active; 'I' for Inactive)
REMARK    1  A    between atoms: C_1  and  O_2
REMARK    2  A    between atoms: O_2  and  C_3
REMARK    3  A    between atoms: C_3  and  C_4
REMARK    4  A    between atoms: C_12  and  N_13
REMARK    5  A    between atoms: C_14  and  C_16
REMARK    6  A    between atoms: C_19  and  C_20
REMARK                            x       y       z     vdW  Elec       q    Type
REMARK                         _______ _______ _______ _____ _____    ______ ____
ROOT
ATOM      1  C   UNL     1       2.027  15.945  18.578  0.00  0.00    +0.000 C 
ATOM      2  O   UNL     1       3.260  15.953  18.638  0.00  0.00    +0.000 OA
ATOM      3  N   UNL     1       1.275  14.843  18.959  0.00  0.00    +0.000 N 
ATOM      4  C   UNL     1      -0.194  14.817  18.922  0.00  0.00    +0.000 C 
ATOM      5  C   UNL     1      -0.832  13.610  19.614  0.00  0.00    +0.000 C 
ATOM      6  C   UNL     1      -0.148  12.352  19.158  0.00  0.00    +0.000 A 
ATOM      7  C   UNL     1      -0.856  11.187  18.880  0.00  0.00    +0.000 A 
ATOM      8  C   UNL     1      -0.179  10.060  18.414  0.00  0.00    +0.000 A 
ATOM      9  C   UNL     1       1.208  10.072  18.234  0.00  0.00    +0.000 A 
ATOM     10  C   UNL     1       1.924  11.225  18.578  0.00  0.00    +0.000 A 
ATOM     11  C   UNL     1       1.248  12.372  19.019  0.00  0.00    +0.000 A 
ATOM     12  C   UNL     1       1.988  13.637  19.377  0.00  0.00    +0.000 C 
ENDROOT
BRANCH   9  13
ATOM     13  N   UNL     1       1.931   8.967  17.727  0.00  0.00    +0.000 N 
ATOM     14  C   UNL     1       2.407   7.912  18.485  0.00  0.00    +0.000 C 
ATOM     15  O   UNL     1       2.198   7.734  19.681  0.00  0.00    +0.000 OA
ATOM     16  H   UNL     1       2.062   8.947  16.727  0.00  0.00    +0.000 HD
BRANCH  14  17
ATOM     17  C   UNL     1       3.251   6.899  17.788  0.00  0.00    +0.000 A 
ATOM     18  C   UNL     1       4.303   7.393  17.004  0.00  0.00    +0.000 A 
ATOM     19  C   UNL     1       5.152   6.523  16.321  0.00  0.00    +0.000 A 
ATOM     20  C   UNL     1       4.969   5.138  16.414  0.00  0.00    +0.000 A 
ATOM     21  C   UNL     1       3.921   4.644  17.215  0.00  0.00    +0.000 A 
ATOM     22  C   UNL     1       3.067   5.518  17.902  0.00  0.00    +0.000 A 
BRANCH  20  23
ATOM     23  C   UNL     1       5.882   4.189  15.675  0.00  0.00    +0.000 C 
ATOM     24  F   UNL     1       5.706   2.883  16.021  0.00  0.00    +0.000 F 
ATOM     25  F   UNL     1       5.709   4.245  14.327  0.00  0.00    +0.000 F 
ATOM     26  F   UNL     1       7.197   4.459  15.897  0.00  0.00    +0.000 F 
ENDBRANCH  20  23
ENDBRANCH  14  17
ENDBRANCH   9  13
BRANCH   1  27
ATOM     27  C   UNL     1       1.278  17.198  18.098  0.00  0.00    +0.000 C 
BRANCH  27  29
ATOM     28  C   UNL     1       1.331  18.299  20.181  0.00  0.00    +0.000 C 
ATOM     29  O   UNL     1       1.624  18.391  18.790  0.00  0.00    +0.000 OA
ENDBRANCH  27  29
ENDBRANCH   1  27
TORSDOF 5
ENDMDL
MODEL 9
REMARK VINA RESULT:      -7.4      6.069     10.236
REMARK  Name = 
REMARK  6 active torsions:
REMARK  status: ('A' for Active; 'I' for Inactive)
REMARK    1  A    between atoms: C_1  and  O_2
REMARK    2  A    between atoms: O_2  and  C_3
REMARK    3  A    between atoms: C_3  and  C_4
REMARK    4  A    between atoms: C_12  and  N_13
REMARK    5  A    between atoms: C_14  and  C_16
REMARK    6  A    between atoms: C_19  and  C_20
REMARK                            x       y       z     vdW  Elec       q    Type
REMARK                         _______ _______ _______ _____ _____    ______ ____
ROOT
ATOM      1  C   UNL     1       2.085   4.182  20.108  0.00  0.00    +0.000 C 
ATOM      2  O   UNL     1       1.748   3.994  21.280  0.00  0.00    +0.000 OA
ATOM      3  N   UNL     1       2.374   5.447  19.614  0.00  0.00    +0.000 N 
ATOM      4  C   UNL     1       2.802   5.695  18.230  0.00  0.00    +0.000 C 
ATOM      5  C   UNL     1       3.309   7.113  17.959  0.00  0.00    +0.000 C 
ATOM      6  C   UNL     1       2.336   8.109  18.526  0.00  0.00    +0.000 A 
ATOM      7  C   UNL     1       1.996   9.275  17.849  0.00  0.00    +0.000 A 
ATOM      8  C   UNL     1       1.052  10.143  18.396  0.00  0.00    +0.000 A 
ATOM      9  C   UNL     1       0.449   9.872  19.629  0.00  0.00    +0.000 A 
ATOM     10  C   UNL     1       0.844   8.732  20.339  0.00  0.00    +0.000 A 
ATOM     11  C   UNL     1       1.770   7.838  19.782  0.00  0.00    +0.000 A 
ATOM     12  C   UNL     1       2.200   6.589  20.510  0.00  0.00    +0.000 C 
ENDROOT
BRANCH   9  13
ATOM     13  N   UNL     1      -0.541  10.704  20.204  0.00  0.00    +0.000 N 
ATOM     14  C   UNL     1      -0.321  11.622  21.215  0.00  0.00    +0.000 C 
ATOM     15  O   UNL     1       0.771  11.913  21.696  0.00  0.00    +0.000 OA
ATOM     16  H   UNL     1      -1.464  10.633  19.802  0.00  0.00    +0.000 HD
BRANCH  14  17
ATOM     17  C   UNL     1      -1.514  12.321  21.773  0.00  0.00    +0.000 A 
ATOM     18  C   UNL     1      -2.075  11.770  22.934  0.00  0.00    +0.000 A 
ATOM     19  C   UNL     1      -3.188  12.358  23.535  0.00  0.00    +0.000 A 
ATOM     20  C   UNL     1      -3.758  13.515  22.989  0.00  0.00    +0.000 A 
ATOM     21  C   UNL     1      -3.183  14.074  21.832  0.00  0.00    +0.000 A 
ATOM     22  C   UNL     1      -2.063  13.484  21.228  0.00  0.00    +0.000 A 
BRANCH  20  23
ATOM     23  C   UNL     1      -4.965  14.155  23.631  0.00  0.00    +0.000 C 
ATOM     24  F   UNL     1      -5.714  13.289  24.369  0.00  0.00    +0.000 F 
ATOM     25  F   UNL     1      -4.628  15.169  24.474  0.00  0.00    +0.000 F 
ATOM     26  F   UNL     1      -5.814  14.695  22.714  0.00  0.00    +0.000 F 
ENDBRANCH  20  23
ENDBRANCH  14  17
ENDBRANCH   9  13
BRANCH   1  27
ATOM     27  C   UNL     1       2.227   2.986  19.153  0.00  0.00    +0.000 C 
BRANCH  27  29
ATOM     28  C   UNL     1       3.667   1.378  18.209  0.00  0.00    +0.000 C 
ATOM     29  O   UNL     1       3.430   2.246  19.313  0.00  0.00    +0.000 OA
ENDBRANCH  27  29
ENDBRANCH   1  27
TORSDOF 5
ENDMDL
