MODEL 1
REMARK VINA RESULT:      -8.6      0.000      0.000
REMARK  Name = 
REMARK  7 active torsions:
REMARK  status: ('A' for Active; 'I' for Inactive)
REMARK    1  A    between atoms: C_1  and  S_2
REMARK    2  A    between atoms: S_2  and  C_5
REMARK    3  A    between atoms: C_10  and  N_11
REMARK    4  A    between atoms: C_12  and  C_14
REMARK    5  A    between atoms: C_14  and  O_15
REMARK    6  A    between atoms: O_15  and  C_16
REMARK    7  A    between atoms: C_16  and  C_18
REMARK                            x       y       z     vdW  Elec       q    Type
REMARK                         _______ _______ _______ _____ _____    ______ ____
ROOT
ATOM      1  N   UNL     1       0.885   9.175  18.706  0.00  0.00    +0.000 N 
ATOM      2  C   UNL     1       1.991   9.471  17.920  0.00  0.00    +0.000 C 
ATOM      3  O   UNL     1       2.272  10.575  17.463  0.00  0.00    +0.000 OA
ATOM      4  H   UNL     1       0.879   8.253  19.131  0.00  0.00    +0.000 HD
ENDROOT
BRANCH   1  10
ATOM      5  C   UNL     1      -1.011  11.470  20.996  0.00  0.00    +0.000 A 
ATOM      6  C   UNL     1      -2.056  11.941  20.218  0.00  0.00    +0.000 A 
ATOM      7  C   UNL     1      -2.164  11.490  18.913  0.00  0.00    +0.000 A 
ATOM      8  C   UNL     1      -1.253  10.562  18.368  0.00  0.00    +0.000 A 
ATOM      9 CL   UNL     1      -1.772  10.022  16.809  0.00  0.00    +0.000 Cl
ATOM     10  C   UNL     1      -0.156  10.080  19.128  0.00  0.00    +0.000 A 
ATOM     11  C   UNL     1      -0.076  10.539  20.474  0.00  0.00    +0.000 A 
BRANCH   5  13
ATOM     12  C   UNL     1      -2.630  12.336  23.128  0.00  0.00    +0.000 C 
ATOM     13  S   UNL     1      -0.942  12.008  22.698  0.00  0.00    +0.000 S 
ATOM     14  O   UNL     1      -0.212  13.247  22.722  0.00  0.00    +0.000 OA
ATOM     15  O   UNL     1      -0.510  10.866  23.503  0.00  0.00    +0.000 OA
ENDBRANCH   5  13
ENDBRANCH   1  10
BRANCH   2  16
ATOM     16  C   UNL     1       2.973   8.335  17.626  0.00  0.00    +0.000 C 
BRANCH  16  17
ATOM     17  O   UNL     1       2.592   7.188  18.422  0.00  0.00    +0.000 OA
BRANCH  17  18
ATOM     18  C   UNL     1       3.502   6.165  18.495  0.00  0.00    +0.000 C 
ATOM     19  O   UNL     1       4.663   6.270  18.154  0.00  0.00    +0.000 OA
BRANCH  18  20
ATOM     20  C   UNL     1       2.837   4.866  19.015  0.00  0.00    +0.000 C 
ATOM     21  C   UNL     1       2.005   5.190  20.277  0.00  0.00    +0.000 C 
ATOM     22  C   UNL     1       1.403   3.911  20.886  0.00  0.00    +0.000 C 
ATOM     23  C   UNL     1       0.470   3.247  19.861  0.00  0.00    +0.000 C 
ATOM     24  C   UNL     1       1.258   2.903  18.586  0.00  0.00    +0.000 C 
ATOM     25  C   UNL     1       2.382   1.920  18.953  0.00  0.00    +0.000 C 
ATOM     26  C   UNL     1       3.330   2.567  19.976  0.00  0.00    +0.000 C 
ATOM     27  C   UNL     1       2.538   2.937  21.241  0.00  0.00    +0.000 C 
ATOM     28  C   UNL     1       3.938   3.843  19.368  0.00  0.00    +0.000 C 
ATOM     29  C   UNL     1       1.875   4.193  17.990  0.00  0.00    +0.000 C 
ENDBRANCH  18  20
ENDBRANCH  17  18
ENDBRANCH  16  17
ENDBRANCH   2  16
TORSDOF 6
ENDMDL
MODEL 2
REMARK VINA RESULT:      -8.5      0.329      1.470
REMARK  Name = 
REMARK  7 active torsions:
REMARK  status: ('A' for Active; 'I' for Inactive)
REMARK    1  A    between atoms: C_1  and  S_2
REMARK    2  A    between atoms: S_2  and  C_5
REMARK    3  A    between atoms: C_10  and  N_11
REMARK    4  A    between atoms: C_12  and  C_14
REMARK    5  A    between atoms: C_14  and  O_15
REMARK    6  A    between atoms: O_15  and  C_16
REMARK    7  A    between atoms: C_16  and  C_18
REMARK                            x       y       z     vdW  Elec       q    Type
REMARK                         _______ _______ _______ _____ _____    ______ ____
ROOT
ATOM      1  N   UNL     1       0.412   9.331  18.384  0.00  0.00    +0.000 N 
ATOM      2  C   UNL     1       1.730   9.558  18.007  0.00  0.00    +0.000 C 
ATOM      3  O   UNL     1       2.322  10.631  18.075  0.00  0.00    +0.000 OA
ATOM      4  H   UNL     1       0.121   8.359  18.411  0.00  0.00    +0.000 HD
ENDROOT
BRANCH   1  10
ATOM      5  C   UNL     1      -1.171  11.638  20.890  0.00  0.00    +0.000 A 
ATOM      6  C   UNL     1      -2.205  12.240  20.192  0.00  0.00    +0.000 A 
ATOM      7  C   UNL     1      -2.411  11.879  18.872  0.00  0.00    +0.000 A 
ATOM      8  C   UNL     1      -1.610  10.912  18.231  0.00  0.00    +0.000 A 
ATOM      9 CL   UNL     1      -2.244  10.511  16.673  0.00  0.00    +0.000 Cl
ATOM     10  C   UNL     1      -0.526  10.294  18.907  0.00  0.00    +0.000 A 
ATOM     11  C   UNL     1      -0.345  10.663  20.271  0.00  0.00    +0.000 A 
BRANCH   5  13
ATOM     12  C   UNL     1      -2.636  12.279  23.205  0.00  0.00    +0.000 C 
ATOM     13  S   UNL     1      -0.978  12.065  22.614  0.00  0.00    +0.000 S 
ATOM     14  O   UNL     1      -0.306  13.335  22.663  0.00  0.00    +0.000 OA
ATOM     15  O   UNL     1      -0.428  10.896  23.298  0.00  0.00    +0.000 OA
ENDBRANCH   5  13
ENDBRANCH   1  10
BRANCH   2  16
ATOM     16  C   UNL     1       2.534   8.360  17.498  0.00  0.00    +0.000 C 
BRANCH  16  17
ATOM     17  O   UNL     1       2.441   7.300  18.480  0.00  0.00    +0.000 OA
BRANCH  17  18
ATOM     18  C   UNL     1       3.414   6.336  18.433  0.00  0.00    +0.000 C 
ATOM     19  O   UNL     1       4.521   6.518  17.966  0.00  0.00    +0.000 OA
BRANCH  18  20
ATOM     20  C   UNL     1       2.893   4.993  19.001  0.00  0.00    +0.000 C 
ATOM     21  C   UNL     1       2.004   4.301  17.942  0.00  0.00    +0.000 C 
ATOM     22  C   UNL     1       1.385   3.007  18.498  0.00  0.00    +0.000 C 
ATOM     23  C   UNL     1       2.505   2.030  18.887  0.00  0.00    +0.000 C 
ATOM     24  C   UNL     1       3.416   2.676  19.945  0.00  0.00    +0.000 C 
ATOM     25  C   UNL     1       2.572   2.993  21.191  0.00  0.00    +0.000 C 
ATOM     26  C   UNL     1       1.446   3.974  20.824  0.00  0.00    +0.000 C 
ATOM     27  C   UNL     1       0.551   3.341  19.746  0.00  0.00    +0.000 C 
ATOM     28  C   UNL     1       2.062   5.272  20.273  0.00  0.00    +0.000 C 
ATOM     29  C   UNL     1       4.020   3.987  19.383  0.00  0.00    +0.000 C 
ENDBRANCH  18  20
ENDBRANCH  17  18
ENDBRANCH  16  17
ENDBRANCH   2  16
TORSDOF 6
ENDMDL
MODEL 3
REMARK VINA RESULT:      -8.4      0.842      1.594
REMARK  Name = 
REMARK  7 active torsions:
REMARK  status: ('A' for Active; 'I' for Inactive)
REMARK    1  A    between atoms: C_1  and  S_2
REMARK    2  A    between atoms: S_2  and  C_5
REMARK    3  A    between atoms: C_10  and  N_11
REMARK    4  A    between atoms: C_12  and  C_14
REMARK    5  A    between atoms: C_14  and  O_15
REMARK    6  A    between atoms: O_15  and  C_16
REMARK    7  A    between atoms: C_16  and  C_18
REMARK                            x       y       z     vdW  Elec       q    Type
REMARK                         _______ _______ _______ _____ _____    ______ ____
ROOT
ATOM      1  N   UNL     1       0.761   9.909  18.042  0.00  0.00    +0.000 N 
ATOM      2  C   UNL     1       1.589   8.985  18.668  0.00  0.00    +0.000 C 
ATOM      3  O   UNL     1       1.522   8.643  19.845  0.00  0.00    +0.000 OA
ATOM      4  H   UNL     1       0.847   9.967  17.032  0.00  0.00    +0.000 HD
ENDROOT
BRANCH   1  10
ATOM      5  C   UNL     1      -1.034  11.985  20.606  0.00  0.00    +0.000 A 
ATOM      6  C   UNL     1      -2.265  12.249  20.029  0.00  0.00    +0.000 A 
ATOM      7  C   UNL     1      -2.534  11.727  18.775  0.00  0.00    +0.000 A 
ATOM      8  C   UNL     1      -1.599  10.928  18.085  0.00  0.00    +0.000 A 
ATOM      9 CL   UNL     1      -2.297  10.240  16.661  0.00  0.00    +0.000 Cl
ATOM     10  C   UNL     1      -0.319  10.660  18.636  0.00  0.00    +0.000 A 
ATOM     11  C   UNL     1      -0.071  11.188  19.935  0.00  0.00    +0.000 A 
BRANCH   5  13
ATOM     12  C   UNL     1      -2.259  13.419  22.694  0.00  0.00    +0.000 C 
ATOM     13  S   UNL     1      -0.746  12.607  22.256  0.00  0.00    +0.000 S 
ATOM     14  O   UNL     1       0.295  13.595  22.161  0.00  0.00    +0.000 OA
ATOM     15  O   UNL     1      -0.608  11.453  23.143  0.00  0.00    +0.000 OA
ENDBRANCH   5  13
ENDBRANCH   1  10
BRANCH   2  16
ATOM     16  C   UNL     1       2.656   8.300  17.812  0.00  0.00    +0.000 C 
BRANCH  16  17
ATOM     17  O   UNL     1       2.379   6.879  17.792  0.00  0.00    +0.000 OA
BRANCH  17  18
ATOM     18  C   UNL     1       3.397   6.053  18.190  0.00  0.00    +0.000 C 
ATOM     19  O   UNL     1       4.573   6.292  18.001  0.00  0.00    +0.000 OA
BRANCH  18  20
ATOM     20  C   UNL     1       2.842   4.768  18.855  0.00  0.00    +0.000 C 
ATOM     21  C   UNL     1       4.020   3.930  19.405  0.00  0.00    +0.000 C 
ATOM     22  C   UNL     1       3.524   2.596  19.990  0.00  0.00    +0.000 C 
ATOM     23  C   UNL     1       2.558   2.875  21.152  0.00  0.00    +0.000 C 
ATOM     24  C   UNL     1       1.365   3.706  20.650  0.00  0.00    +0.000 C 
ATOM     25  C   UNL     1       0.628   2.902  19.566  0.00  0.00    +0.000 C 
ATOM     26  C   UNL     1       1.577   2.616  18.391  0.00  0.00    +0.000 C 
ATOM     27  C   UNL     1       2.783   1.808  18.897  0.00  0.00    +0.000 C 
ATOM     28  C   UNL     1       2.070   3.947  17.800  0.00  0.00    +0.000 C 
ATOM     29  C   UNL     1       1.875   5.039  20.046  0.00  0.00    +0.000 C 
ENDBRANCH  18  20
ENDBRANCH  17  18
ENDBRANCH  16  17
ENDBRANCH   2  16
TORSDOF 6
ENDMDL
MODEL 4
REMARK VINA RESULT:      -8.3      2.565      3.295
REMARK  Name = 
REMARK  7 active torsions:
REMARK  status: ('A' for Active; 'I' for Inactive)
REMARK    1  A    between atoms: C_1  and  S_2
REMARK    2  A    between atoms: S_2  and  C_5
REMARK    3  A    between atoms: C_10  and  N_11
REMARK    4  A    between atoms: C_12  and  C_14
REMARK    5  A    between atoms: C_14  and  O_15
REMARK    6  A    between atoms: O_15  and  C_16
REMARK    7  A    between atoms: C_16  and  C_18
REMARK                            x       y       z     vdW  Elec       q    Type
REMARK                         _______ _______ _______ _____ _____    ______ ____
ROOT
ATOM      1  N   UNL     1       0.742  10.011  17.997  0.00  0.00    +0.000 N 
ATOM      2  C   UNL     1       1.503   9.062  18.669  0.00  0.00    +0.000 C 
ATOM      3  O   UNL     1       1.419   8.789  19.863  0.00  0.00    +0.000 OA
ATOM      4  H   UNL     1       0.825  10.007  16.986  0.00  0.00    +0.000 HD
ENDROOT
BRANCH   1  10
ATOM      5  C   UNL     1      -2.689  11.440  18.538  0.00  0.00    +0.000 A 
ATOM      6  C   UNL     1      -2.507  12.396  19.524  0.00  0.00    +0.000 A 
ATOM      7  C   UNL     1      -1.232  12.600  20.022  0.00  0.00    +0.000 A 
ATOM      8  C   UNL     1      -0.121  11.875  19.544  0.00  0.00    +0.000 A 
ATOM      9 CL   UNL     1       1.357  12.502  20.187  0.00  0.00    +0.000 Cl
ATOM     10  C   UNL     1      -0.275  10.870  18.553  0.00  0.00    +0.000 A 
ATOM     11  C   UNL     1      -1.591  10.692  18.039  0.00  0.00    +0.000 A 
BRANCH   5  13
ATOM     12  C   UNL     1      -5.338  12.340  18.833  0.00  0.00    +0.000 C 
ATOM     13  S   UNL     1      -4.331  11.254  17.859  0.00  0.00    +0.000 S 
ATOM     14  O   UNL     1      -4.742   9.899  18.109  0.00  0.00    +0.000 OA
ATOM     15  O   UNL     1      -4.309  11.795  16.501  0.00  0.00    +0.000 OA
ENDBRANCH   5  13
ENDBRANCH   1  10
BRANCH   2  16
ATOM     16  C   UNL     1       2.510   8.254  17.848  0.00  0.00    +0.000 C 
BRANCH  16  17
ATOM     17  O   UNL     1       3.075   7.231  18.702  0.00  0.00    +0.000 OA
BRANCH  17  18
ATOM     18  C   UNL     1       3.435   6.057  18.092  0.00  0.00    +0.000 C 
ATOM     19  O   UNL     1       4.101   6.001  17.077  0.00  0.00    +0.000 OA
BRANCH  18  20
ATOM     20  C   UNL     1       2.838   4.838  18.838  0.00  0.00    +0.000 C 
ATOM     21  C   UNL     1       3.980   3.870  19.228  0.00  0.00    +0.000 C 
ATOM     22  C   UNL     1       3.424   2.596  19.887  0.00  0.00    +0.000 C 
ATOM     23  C   UNL     1       2.664   2.973  21.168  0.00  0.00    +0.000 C 
ATOM     24  C   UNL     1       1.513   3.935  20.827  0.00  0.00    +0.000 C 
ATOM     25  C   UNL     1       0.549   3.224  19.862  0.00  0.00    +0.000 C 
ATOM     26  C   UNL     1       1.290   2.842  18.570  0.00  0.00    +0.000 C 
ATOM     27  C   UNL     1       2.457   1.902  18.913  0.00  0.00    +0.000 C 
ATOM     28  C   UNL     1       1.842   4.115  17.906  0.00  0.00    +0.000 C 
ATOM     29  C   UNL     1       2.080   5.206  20.148  0.00  0.00    +0.000 C 
ENDBRANCH  18  20
ENDBRANCH  17  18
ENDBRANCH  16  17
ENDBRANCH   2  16
TORSDOF 6
ENDMDL
MODEL 5
REMARK VINA RESULT:      -8.3      1.138      1.739
REMARK  Name = 
REMARK  7 active torsions:
REMARK  status: ('A' for Active; 'I' for Inactive)
REMARK    1  A    between atoms: C_1  and  S_2
REMARK    2  A    between atoms: S_2  and  C_5
REMARK    3  A    between atoms: C_10  and  N_11
REMARK    4  A    between atoms: C_12  and  C_14
REMARK    5  A    between atoms: C_14  and  O_15
REMARK    6  A    between atoms: O_15  and  C_16
REMARK    7  A    between atoms: C_16  and  C_18
REMARK                            x       y       z     vdW  Elec       q    Type
REMARK                         _______ _______ _______ _____ _____    ______ ____
ROOT
ATOM      1  N   UNL     1       0.727   9.783  17.892  0.00  0.00    +0.000 N 
ATOM      2  C   UNL     1       1.593   8.907  18.535  0.00  0.00    +0.000 C 
ATOM      3  O   UNL     1       1.537   8.581  19.717  0.00  0.00    +0.000 OA
ATOM      4  H   UNL     1       0.814   9.827  16.881  0.00  0.00    +0.000 HD
ENDROOT
BRANCH   1  10
ATOM      5  C   UNL     1      -1.202  11.728  20.461  0.00  0.00    +0.000 A 
ATOM      6  C   UNL     1      -2.412  12.001  19.843  0.00  0.00    +0.000 A 
ATOM      7  C   UNL     1      -2.621  11.527  18.559  0.00  0.00    +0.000 A 
ATOM      8  C   UNL     1      -1.647  10.769  17.877  0.00  0.00    +0.000 A 
ATOM      9 CL   UNL     1      -2.275  10.133  16.397  0.00  0.00    +0.000 Cl
ATOM     10  C   UNL     1      -0.387  10.494  18.470  0.00  0.00    +0.000 A 
ATOM     11  C   UNL     1      -0.201  10.971  19.798  0.00  0.00    +0.000 A 
BRANCH   5  13
ATOM     12  C   UNL     1      -0.033  13.768  22.006  0.00  0.00    +0.000 C 
ATOM     13  S   UNL     1      -0.992  12.283  22.145  0.00  0.00    +0.000 S 
ATOM     14  O   UNL     1      -0.203  11.290  22.824  0.00  0.00    +0.000 OA
ATOM     15  O   UNL     1      -2.308  12.670  22.649  0.00  0.00    +0.000 OA
ENDBRANCH   5  13
ENDBRANCH   1  10
BRANCH   2  16
ATOM     16  C   UNL     1       2.692   8.255  17.694  0.00  0.00    +0.000 C 
BRANCH  16  17
ATOM     17  O   UNL     1       3.343   7.245  18.501  0.00  0.00    +0.000 OA
BRANCH  17  18
ATOM     18  C   UNL     1       3.702   6.088  17.859  0.00  0.00    +0.000 C 
ATOM     19  O   UNL     1       4.377   6.058  16.849  0.00  0.00    +0.000 OA
BRANCH  18  20
ATOM     20  C   UNL     1       3.091   4.851  18.563  0.00  0.00    +0.000 C 
ATOM     21  C   UNL     1       1.776   4.457  17.851  0.00  0.00    +0.000 C 
ATOM     22  C   UNL     1       1.082   3.290  18.575  0.00  0.00    +0.000 C 
ATOM     23  C   UNL     1       2.008   2.064  18.572  0.00  0.00    +0.000 C 
ATOM     24  C   UNL     1       3.332   2.409  19.275  0.00  0.00    +0.000 C 
ATOM     25  C   UNL     1       3.026   2.803  20.730  0.00  0.00    +0.000 C 
ATOM     26  C   UNL     1       2.104   4.033  20.756  0.00  0.00    +0.000 C 
ATOM     27  C   UNL     1       0.790   3.698  20.029  0.00  0.00    +0.000 C 
ATOM     28  C   UNL     1       2.797   5.203  20.037  0.00  0.00    +0.000 C 
ATOM     29  C   UNL     1       4.014   3.595  18.551  0.00  0.00    +0.000 C 
ENDBRANCH  18  20
ENDBRANCH  17  18
ENDBRANCH  16  17
ENDBRANCH   2  16
TORSDOF 6
ENDMDL
MODEL 6
REMARK VINA RESULT:      -8.2      2.595      2.998
REMARK  Name = 
REMARK  7 active torsions:
REMARK  status: ('A' for Active; 'I' for Inactive)
REMARK    1  A    between atoms: C_1  and  S_2
REMARK    2  A    between atoms: S_2  and  C_5
REMARK    3  A    between atoms: C_10  and  N_11
REMARK    4  A    between atoms: C_12  and  C_14
REMARK    5  A    between atoms: C_14  and  O_15
REMARK    6  A    between atoms: O_15  and  C_16
REMARK    7  A    between atoms: C_16  and  C_18
REMARK                            x       y       z     vdW  Elec       q    Type
REMARK                         _______ _______ _______ _____ _____    ______ ____
ROOT
ATOM      1  N   UNL     1       0.600   9.951  17.875  0.00  0.00    +0.000 N 
ATOM      2  C   UNL     1       1.417   9.029  18.515  0.00  0.00    +0.000 C 
ATOM      3  O   UNL     1       1.413   8.778  19.717  0.00  0.00    +0.000 OA
ATOM      4  H   UNL     1       0.618   9.929  16.860  0.00  0.00    +0.000 HD
ENDROOT
BRANCH   1  10
ATOM      5  C   UNL     1      -2.804  11.393  18.542  0.00  0.00    +0.000 A 
ATOM      6  C   UNL     1      -2.588  12.326  19.543  0.00  0.00    +0.000 A 
ATOM      7  C   UNL     1      -1.298  12.510  20.009  0.00  0.00    +0.000 A 
ATOM      8  C   UNL     1      -0.206  11.787  19.484  0.00  0.00    +0.000 A 
ATOM      9 CL   UNL     1       1.294  12.390  20.099  0.00  0.00    +0.000 Cl
ATOM     10  C   UNL     1      -0.395  10.805  18.477  0.00  0.00    +0.000 A 
ATOM     11  C   UNL     1      -1.726  10.648  17.997  0.00  0.00    +0.000 A 
BRANCH   5  13
ATOM     12  C   UNL     1      -5.394  12.465  18.779  0.00  0.00    +0.000 C 
ATOM     13  S   UNL     1      -4.465  11.233  17.906  0.00  0.00    +0.000 S 
ATOM     14  O   UNL     1      -4.946   9.935  18.295  0.00  0.00    +0.000 OA
ATOM     15  O   UNL     1      -4.439  11.635  16.500  0.00  0.00    +0.000 OA
ENDBRANCH   5  13
ENDBRANCH   1  10
BRANCH   2  16
ATOM     16  C   UNL     1       2.384   8.221  17.648  0.00  0.00    +0.000 C 
BRANCH  16  17
ATOM     17  O   UNL     1       3.089   7.288  18.501  0.00  0.00    +0.000 OA
BRANCH  17  18
ATOM     18  C   UNL     1       3.601   6.171  17.894  0.00  0.00    +0.000 C 
ATOM     19  O   UNL     1       4.386   6.206  16.967  0.00  0.00    +0.000 OA
BRANCH  18  20
ATOM     20  C   UNL     1       3.004   4.881  18.511  0.00  0.00    +0.000 C 
ATOM     21  C   UNL     1       2.633   5.148  19.988  0.00  0.00    +0.000 C 
ATOM     22  C   UNL     1       2.125   3.866  20.671  0.00  0.00    +0.000 C 
ATOM     23  C   UNL     1       0.865   3.365  19.949  0.00  0.00    +0.000 C 
ATOM     24  C   UNL     1       1.190   3.082  18.472  0.00  0.00    +0.000 C 
ATOM     25  C   UNL     1       2.272   1.992  18.407  0.00  0.00    +0.000 C 
ATOM     26  C   UNL     1       3.545   2.475  19.122  0.00  0.00    +0.000 C 
ATOM     27  C   UNL     1       3.216   2.784  20.592  0.00  0.00    +0.000 C 
ATOM     28  C   UNL     1       4.058   3.754  18.438  0.00  0.00    +0.000 C 
ATOM     29  C   UNL     1       1.717   4.373  17.797  0.00  0.00    +0.000 C 
ENDBRANCH  18  20
ENDBRANCH  17  18
ENDBRANCH  16  17
ENDBRANCH   2  16
TORSDOF 6
ENDMDL
MODEL 7
REMARK VINA RESULT:      -8.2      1.300      1.917
REMARK  Name = 
REMARK  7 active torsions:
REMARK  status: ('A' for Active; 'I' for Inactive)
REMARK    1  A    between atoms: C_1  and  S_2
REMARK    2  A    between atoms: S_2  and  C_5
REMARK    3  A    between atoms: C_10  and  N_11
REMARK    4  A    between atoms: C_12  and  C_14
REMARK    5  A    between atoms: C_14  and  O_15
REMARK    6  A    between atoms: O_15  and  C_16
REMARK    7  A    between atoms: C_16  and  C_18
REMARK                            x       y       z     vdW  Elec       q    Type
REMARK                         _______ _______ _______ _____ _____    ______ ____
ROOT
ATOM      1  N   UNL     1       0.965  10.256  18.213  0.00  0.00    +0.000 N 
ATOM      2  C   UNL     1       1.575   9.142  18.775  0.00  0.00    +0.000 C 
ATOM      3  O   UNL     1       1.287   8.633  19.854  0.00  0.00    +0.000 OA
ATOM      4  H   UNL     1       1.214  10.458  17.250  0.00  0.00    +0.000 HD
ENDROOT
BRANCH   1  10
ATOM      5  C   UNL     1      -0.677  12.838  20.392  0.00  0.00    +0.000 A 
ATOM      6  C   UNL     1      -2.012  12.792  20.025  0.00  0.00    +0.000 A 
ATOM      7  C   UNL     1      -2.402  11.887  19.053  0.00  0.00    +0.000 A 
ATOM      8  C   UNL     1      -1.483  11.008  18.444  0.00  0.00    +0.000 A 
ATOM      9 CL   UNL     1      -2.294   9.852  17.445  0.00  0.00    +0.000 Cl
ATOM     10  C   UNL     1      -0.103  11.046  18.776  0.00  0.00    +0.000 A 
ATOM     11  C   UNL     1       0.272  11.969  19.793  0.00  0.00    +0.000 A 
BRANCH   5  13
ATOM     12  C   UNL     1      -1.115  13.381  23.117  0.00  0.00    +0.000 C 
ATOM     13  S   UNL     1      -0.218  13.961  21.702  0.00  0.00    +0.000 S 
ATOM     14  O   UNL     1      -0.719  15.260  21.343  0.00  0.00    +0.000 OA
ATOM     15  O   UNL     1       1.201  13.753  21.982  0.00  0.00    +0.000 OA
ENDBRANCH   5  13
ENDBRANCH   1  10
BRANCH   2  16
ATOM     16  C   UNL     1       2.679   8.458  17.966  0.00  0.00    +0.000 C 
BRANCH  16  17
ATOM     17  O   UNL     1       2.395   7.040  17.916  0.00  0.00    +0.000 OA
BRANCH  17  18
ATOM     18  C   UNL     1       3.435   6.198  18.214  0.00  0.00    +0.000 C 
ATOM     19  O   UNL     1       4.598   6.452  17.974  0.00  0.00    +0.000 OA
BRANCH  18  20
ATOM     20  C   UNL     1       2.919   4.878  18.840  0.00  0.00    +0.000 C 
ATOM     21  C   UNL     1       1.847   4.259  17.913  0.00  0.00    +0.000 C 
ATOM     22  C   UNL     1       1.235   2.995  18.541  0.00  0.00    +0.000 C 
ATOM     23  C   UNL     1       2.337   1.947  18.758  0.00  0.00    +0.000 C 
ATOM     24  C   UNL     1       3.427   2.519  19.680  0.00  0.00    +0.000 C 
ATOM     25  C   UNL     1       2.790   2.865  21.036  0.00  0.00    +0.000 C 
ATOM     26  C   UNL     1       1.686   3.917  20.843  0.00  0.00    +0.000 C 
ATOM     27  C   UNL     1       0.609   3.357  19.899  0.00  0.00    +0.000 C 
ATOM     28  C   UNL     1       2.296   5.185  20.220  0.00  0.00    +0.000 C 
ATOM     29  C   UNL     1       4.024   3.801  19.048  0.00  0.00    +0.000 C 
ENDBRANCH  18  20
ENDBRANCH  17  18
ENDBRANCH  16  17
ENDBRANCH   2  16
TORSDOF 6
ENDMDL
MODEL 8
REMARK VINA RESULT:      -8.2      2.511      3.184
REMARK  Name = 
REMARK  7 active torsions:
REMARK  status: ('A' for Active; 'I' for Inactive)
REMARK    1  A    between atoms: C_1  and  S_2
REMARK    2  A    between atoms: S_2  and  C_5
REMARK    3  A    between atoms: C_10  and  N_11
REMARK    4  A    between atoms: C_12  and  C_14
REMARK    5  A    between atoms: C_14  and  O_15
REMARK    6  A    between atoms: O_15  and  C_16
REMARK    7  A    between atoms: C_16  and  C_18
REMARK                            x       y       z     vdW  Elec       q    Type
REMARK                         _______ _______ _______ _____ _____    ______ ____
ROOT
ATOM      1  N   UNL     1       1.380   9.893  17.840  0.00  0.00    +0.000 N 
ATOM      2  C   UNL     1       1.969   8.760  18.386  0.00  0.00    +0.000 C 
ATOM      3  O   UNL     1       1.668   8.239  19.456  0.00  0.00    +0.000 OA
ATOM      4  H   UNL     1       1.635  10.105  16.880  0.00  0.00    +0.000 HD
ENDROOT
BRANCH   1  10
ATOM      5  C   UNL     1      -2.123  11.097  18.462  0.00  0.00    +0.000 A 
ATOM      6  C   UNL     1      -1.978  12.083  19.425  0.00  0.00    +0.000 A 
ATOM      7  C   UNL     1      -0.705  12.383  19.878  0.00  0.00    +0.000 A 
ATOM      8  C   UNL     1       0.438  11.725  19.378  0.00  0.00    +0.000 A 
ATOM      9 CL   UNL     1       1.888  12.465  19.962  0.00  0.00    +0.000 Cl
ATOM     10  C   UNL     1       0.324  10.692  18.412  0.00  0.00    +0.000 A 
ATOM     11  C   UNL     1      -0.992  10.415  17.943  0.00  0.00    +0.000 A 
BRANCH   5  13
ATOM     12  C   UNL     1      -3.664  11.153  16.109  0.00  0.00    +0.000 C 
ATOM     13  S   UNL     1      -3.768  10.785  17.840  0.00  0.00    +0.000 S 
ATOM     14  O   UNL     1      -4.645  11.742  18.461  0.00  0.00    +0.000 OA
ATOM     15  O   UNL     1      -4.018   9.350  17.957  0.00  0.00    +0.000 OA
ENDBRANCH   5  13
ENDBRANCH   1  10
BRANCH   2  16
ATOM     16  C   UNL     1       3.063   8.070  17.570  0.00  0.00    +0.000 C 
BRANCH  16  17
ATOM     17  O   UNL     1       3.659   7.037  18.390  0.00  0.00    +0.000 OA
BRANCH  17  18
ATOM     18  C   UNL     1       3.880   5.827  17.785  0.00  0.00    +0.000 C 
ATOM     19  O   UNL     1       4.510   5.693  16.755  0.00  0.00    +0.000 OA
BRANCH  18  20
ATOM     20  C   UNL     1       3.180   4.683  18.559  0.00  0.00    +0.000 C 
ATOM     21  C   UNL     1       1.786   4.427  17.940  0.00  0.00    +0.000 C 
ATOM     22  C   UNL     1       1.013   3.363  18.737  0.00  0.00    +0.000 C 
ATOM     23  C   UNL     1       1.792   2.039  18.713  0.00  0.00    +0.000 C 
ATOM     24  C   UNL     1       3.188   2.245  19.325  0.00  0.00    +0.000 C 
ATOM     25  C   UNL     1       3.022   2.703  20.784  0.00  0.00    +0.000 C 
ATOM     26  C   UNL     1       2.247   4.030  20.830  0.00  0.00    +0.000 C 
ATOM     27  C   UNL     1       0.861   3.832  20.194  0.00  0.00    +0.000 C 
ATOM     28  C   UNL     1       3.021   5.098  20.038  0.00  0.00    +0.000 C 
ATOM     29  C   UNL     1       3.953   3.330  18.527  0.00  0.00    +0.000 C 
ENDBRANCH  18  20
ENDBRANCH  17  18
ENDBRANCH  16  17
ENDBRANCH   2  16
TORSDOF 6
ENDMDL
MODEL 9
REMARK VINA RESULT:      -8.1      2.654      3.453
REMARK  Name = 
REMARK  7 active torsions:
REMARK  status: ('A' for Active; 'I' for Inactive)
REMARK    1  A    between atoms: C_1  and  S_2
REMARK    2  A    between atoms: S_2  and  C_5
REMARK    3  A    between atoms: C_10  and  N_11
REMARK    4  A    between atoms: C_12  and  C_14
REMARK    5  A    between atoms: C_14  and  O_15
REMARK    6  A    between atoms: O_15  and  C_16
REMARK    7  A    between atoms: C_16  and  C_18
REMARK                            x       y       z     vdW  Elec       q    Type
REMARK                         _______ _______ _______ _____ _____    ______ ____
ROOT
ATOM      1  N   UNL     1       0.432  10.091  17.973  0.00  0.00    +0.000 N 
ATOM      2  C   UNL     1       1.262   9.217  18.663  0.00  0.00    +0.000 C 
ATOM      3  O   UNL     1       1.195   8.958  19.861  0.00  0.00    +0.000 OA
ATOM      4  H   UNL     1       0.517  10.077  16.962  0.00  0.00    +0.000 HD
ENDROOT
BRANCH   1  10
ATOM      5  C   UNL     1      -3.057  11.446  18.297  0.00  0.00    +0.000 A 
ATOM      6  C   UNL     1      -2.998  12.275  19.405  0.00  0.00    +0.000 A 
ATOM      7  C   UNL     1      -1.788  12.417  20.063  0.00  0.00    +0.000 A 
ATOM      8  C   UNL     1      -0.622  11.755  19.627  0.00  0.00    +0.000 A 
ATOM      9 CL   UNL     1       0.767  12.299  20.501  0.00  0.00    +0.000 Cl
ATOM     10  C   UNL     1      -0.652  10.877  18.512  0.00  0.00    +0.000 A 
ATOM     11  C   UNL     1      -1.901  10.763  17.837  0.00  0.00    +0.000 A 
BRANCH   5  13
ATOM     12  C   UNL     1      -5.581  10.207  18.375  0.00  0.00    +0.000 C 
ATOM     13  S   UNL     1      -4.611  11.344  17.423  0.00  0.00    +0.000 S 
ATOM     14  O   UNL     1      -4.339  10.753  16.140  0.00  0.00    +0.000 OA
ATOM     15  O   UNL     1      -5.260  12.650  17.526  0.00  0.00    +0.000 OA
ENDBRANCH   5  13
ENDBRANCH   1  10
BRANCH   2  16
ATOM     16  C   UNL     1       2.332   8.477  17.858  0.00  0.00    +0.000 C 
BRANCH  16  17
ATOM     17  O   UNL     1       2.100   7.055  17.993  0.00  0.00    +0.000 OA
BRANCH  17  18
ATOM     18  C   UNL     1       3.205   6.272  18.204  0.00  0.00    +0.000 C 
ATOM     19  O   UNL     1       4.334   6.603  17.900  0.00  0.00    +0.000 OA
BRANCH  18  20
ATOM     20  C   UNL     1       2.810   4.910  18.827  0.00  0.00    +0.000 C 
ATOM     21  C   UNL     1       1.967   4.109  17.808  0.00  0.00    +0.000 C 
ATOM     22  C   UNL     1       1.469   2.787  18.418  0.00  0.00    +0.000 C 
ATOM     23  C   UNL     1       2.675   1.923  18.819  0.00  0.00    +0.000 C 
ATOM     24  C   UNL     1       3.542   2.681  19.838  0.00  0.00    +0.000 C 
ATOM     25  C   UNL     1       2.693   2.969  21.088  0.00  0.00    +0.000 C 
ATOM     26  C   UNL     1       1.483   3.837  20.709  0.00  0.00    +0.000 C 
ATOM     27  C   UNL     1       0.629   3.092  19.669  0.00  0.00    +0.000 C 
ATOM     28  C   UNL     1       1.977   5.162  20.103  0.00  0.00    +0.000 C 
ATOM     29  C   UNL     1       4.024   4.018  19.222  0.00  0.00    +0.000 C 
ENDBRANCH  18  20
ENDBRANCH  17  18
ENDBRANCH  16  17
ENDBRANCH   2  16
TORSDOF 6
ENDMDL
