MODEL 1
REMARK VINA RESULT:      -6.6      0.000      0.000
REMARK  Name = 
REMARK  9 active torsions:
REMARK  status: ('A' for Active; 'I' for Inactive)
REMARK    1  A    between atoms: C_1  and  C_2
REMARK    2  A    between atoms: C_2  and  N_3
REMARK    3  A    between atoms: N_3  and  C_4
REMARK    4  A    between atoms: N_3  and  C_6
REMARK    5  A    between atoms: C_4  and  C_5
REMARK    6  A    between atoms: C_6  and  C_7
REMARK    7  A    between atoms: C_7  and  C_8
REMARK    8  A    between atoms: C_7  and  N_9
REMARK    9  A    between atoms: N_9  and  C_10
REMARK                            x       y       z     vdW  Elec       q    Type
REMARK                         _______ _______ _______ _____ _____    ______ ____
ROOT
ATOM      1  C   UNL     1       3.908   5.088  17.372  0.00  0.00    +0.000 A 
ATOM      2  C   UNL     1       3.750   6.470  17.258  0.00  0.00    +0.000 A 
ATOM      3  C   UNL     1       3.010   7.136  18.222  0.00  0.00    +0.000 A 
ATOM      4  N   UNL     1       2.431   6.529  19.275  0.00  0.00    +0.000 NA
ATOM      5  C   UNL     1       2.639   5.214  19.434  0.00  0.00    +0.000 A 
ATOM      6  C   UNL     1       2.026   4.589  20.508  0.00  0.00    +0.000 A 
ATOM      7  C   UNL     1       2.219   3.234  20.759  0.00  0.00    +0.000 A 
ATOM      8 CL   UNL     1       1.384   2.475  22.059  0.00  0.00    +0.000 Cl
ATOM      9  C   UNL     1       3.070   2.485  19.956  0.00  0.00    +0.000 A 
ATOM     10  C   UNL     1       3.666   3.088  18.849  0.00  0.00    +0.000 A 
ATOM     11  C   UNL     1       3.430   4.447  18.544  0.00  0.00    +0.000 A 
ENDROOT
BRANCH   1  12
ATOM     12  N   UNL     1       4.584   4.335  16.379  0.00  0.00    +0.000 N 
ATOM     13  H   UNL     1       4.859   3.444  16.793  0.00  0.00    +0.000 HD
BRANCH  12  14
ATOM     14  C   UNL     1       5.743   4.972  15.688  0.00  0.00    +0.000 C 
ATOM     15  C   UNL     1       5.822   4.532  14.219  0.00  0.00    +0.000 C 
BRANCH  14  16
ATOM     16  C   UNL     1       7.064   4.588  16.437  0.00  0.00    +0.000 C 
BRANCH  16  17
ATOM     17  N   UNL     1       7.718   5.650  17.245  0.00  0.00    +0.000 NA
BRANCH  17  19
ATOM     18  C   UNL     1       7.871   8.147  17.622  0.00  0.00    +0.000 C 
ATOM     19  C   UNL     1       7.065   6.959  17.093  0.00  0.00    +0.000 C 
ENDBRANCH  17  19
BRANCH  17  20
ATOM     20  C   UNL     1       7.889   5.228  18.648  0.00  0.00    +0.000 C 
ATOM     21  C   UNL     1       6.695   5.454  19.573  0.00  0.00    +0.000 C 
ENDBRANCH  17  20
ENDBRANCH  16  17
ENDBRANCH  14  16
ENDBRANCH  12  14
ENDBRANCH   1  12
TORSDOF 6
ENDMDL
MODEL 2
REMARK VINA RESULT:      -6.6      2.711      5.556
REMARK  Name = 
REMARK  9 active torsions:
REMARK  status: ('A' for Active; 'I' for Inactive)
REMARK    1  A    between atoms: C_1  and  C_2
REMARK    2  A    between atoms: C_2  and  N_3
REMARK    3  A    between atoms: N_3  and  C_4
REMARK    4  A    between atoms: N_3  and  C_6
REMARK    5  A    between atoms: C_4  and  C_5
REMARK    6  A    between atoms: C_6  and  C_7
REMARK    7  A    between atoms: C_7  and  C_8
REMARK    8  A    between atoms: C_7  and  N_9
REMARK    9  A    between atoms: N_9  and  C_10
REMARK                            x       y       z     vdW  Elec       q    Type
REMARK                         _______ _______ _______ _____ _____    ______ ____
ROOT
ATOM      1  C   UNL     1       5.614   4.248  17.592  0.00  0.00    +0.000 A 
ATOM      2  C   UNL     1       4.991   4.105  16.352  0.00  0.00    +0.000 A 
ATOM      3  C   UNL     1       5.131   5.118  15.417  0.00  0.00    +0.000 A 
ATOM      4  N   UNL     1       5.842   6.241  15.629  0.00  0.00    +0.000 NA
ATOM      5  C   UNL     1       6.506   6.354  16.789  0.00  0.00    +0.000 A 
ATOM      6  C   UNL     1       7.220   7.519  17.013  0.00  0.00    +0.000 A 
ATOM      7  C   UNL     1       7.961   7.699  18.177  0.00  0.00    +0.000 A 
ATOM      8 CL   UNL     1       8.777   9.189  18.454  0.00  0.00    +0.000 Cl
ATOM      9  C   UNL     1       8.031   6.688  19.128  0.00  0.00    +0.000 A 
ATOM     10  C   UNL     1       7.289   5.523  18.937  0.00  0.00    +0.000 A 
ATOM     11  C   UNL     1       6.483   5.352  17.789  0.00  0.00    +0.000 A 
ENDROOT
BRANCH   1  12
ATOM     12  N   UNL     1       5.444   3.287  18.621  0.00  0.00    +0.000 N 
ATOM     13  H   UNL     1       5.915   2.429  18.330  0.00  0.00    +0.000 HD
BRANCH  12  14
ATOM     14  C   UNL     1       4.056   2.994  19.082  0.00  0.00    +0.000 C 
ATOM     15  C   UNL     1       3.507   1.725  18.416  0.00  0.00    +0.000 C 
BRANCH  14  16
ATOM     16  C   UNL     1       3.135   4.218  18.752  0.00  0.00    +0.000 C 
BRANCH  16  17
ATOM     17  N   UNL     1       2.560   4.963  19.902  0.00  0.00    +0.000 NA
BRANCH  17  19
ATOM     18  C   UNL     1       3.026   6.864  18.297  0.00  0.00    +0.000 C 
ATOM     19  C   UNL     1       2.510   6.415  19.666  0.00  0.00    +0.000 C 
ENDBRANCH  17  19
BRANCH  17  20
ATOM     20  C   UNL     1       1.272   4.383  20.326  0.00  0.00    +0.000 C 
ATOM     21  C   UNL     1       1.347   3.187  21.272  0.00  0.00    +0.000 C 
ENDBRANCH  17  20
ENDBRANCH  16  17
ENDBRANCH  14  16
ENDBRANCH  12  14
ENDBRANCH   1  12
TORSDOF 6
ENDMDL
MODEL 3
REMARK VINA RESULT:      -6.6      3.062      6.317
REMARK  Name = 
REMARK  9 active torsions:
REMARK  status: ('A' for Active; 'I' for Inactive)
REMARK    1  A    between atoms: C_1  and  C_2
REMARK    2  A    between atoms: C_2  and  N_3
REMARK    3  A    between atoms: N_3  and  C_4
REMARK    4  A    between atoms: N_3  and  C_6
REMARK    5  A    between atoms: C_4  and  C_5
REMARK    6  A    between atoms: C_6  and  C_7
REMARK    7  A    between atoms: C_7  and  C_8
REMARK    8  A    between atoms: C_7  and  N_9
REMARK    9  A    between atoms: N_9  and  C_10
REMARK                            x       y       z     vdW  Elec       q    Type
REMARK                         _______ _______ _______ _____ _____    ______ ____
ROOT
ATOM      1  C   UNL     1       5.809   4.331  17.718  0.00  0.00    +0.000 A 
ATOM      2  C   UNL     1       6.411   5.258  18.570  0.00  0.00    +0.000 A 
ATOM      3  C   UNL     1       7.325   6.154  18.038  0.00  0.00    +0.000 A 
ATOM      4  N   UNL     1       7.669   6.190  16.737  0.00  0.00    +0.000 NA
ATOM      5  C   UNL     1       7.041   5.353  15.898  0.00  0.00    +0.000 A 
ATOM      6  C   UNL     1       7.411   5.380  14.563  0.00  0.00    +0.000 A 
ATOM      7  C   UNL     1       6.784   4.565  13.625  0.00  0.00    +0.000 A 
ATOM      8 CL   UNL     1       7.319   4.571  11.989  0.00  0.00    +0.000 Cl
ATOM      9  C   UNL     1       5.739   3.733  14.005  0.00  0.00    +0.000 A 
ATOM     10  C   UNL     1       5.377   3.665  15.350  0.00  0.00    +0.000 A 
ATOM     11  C   UNL     1       6.046   4.440  16.324  0.00  0.00    +0.000 A 
ENDROOT
BRANCH   1  12
ATOM     12  N   UNL     1       4.928   3.336  18.212  0.00  0.00    +0.000 N 
ATOM     13  H   UNL     1       4.084   3.352  17.638  0.00  0.00    +0.000 HD
BRANCH  12  14
ATOM     14  C   UNL     1       4.579   3.368  19.662  0.00  0.00    +0.000 C 
ATOM     15  C   UNL     1       4.614   1.960  20.272  0.00  0.00    +0.000 C 
BRANCH  14  16
ATOM     16  C   UNL     1       3.153   3.994  19.834  0.00  0.00    +0.000 C 
BRANCH  16  17
ATOM     17  N   UNL     1       2.054   3.414  19.019  0.00  0.00    +0.000 NA
BRANCH  17  19
ATOM     18  C   UNL     1       1.219   2.908  21.353  0.00  0.00    +0.000 C 
ATOM     19  C   UNL     1       1.016   2.775  19.843  0.00  0.00    +0.000 C 
ENDBRANCH  17  19
BRANCH  17  20
ATOM     20  C   UNL     1       1.528   4.396  18.052  0.00  0.00    +0.000 C 
ATOM     21  C   UNL     1       2.300   5.707  17.930  0.00  0.00    +0.000 C 
ENDBRANCH  17  20
ENDBRANCH  16  17
ENDBRANCH  14  16
ENDBRANCH  12  14
ENDBRANCH   1  12
TORSDOF 6
ENDMDL
MODEL 4
REMARK VINA RESULT:      -6.5      2.932      5.962
REMARK  Name = 
REMARK  9 active torsions:
REMARK  status: ('A' for Active; 'I' for Inactive)
REMARK    1  A    between atoms: C_1  and  C_2
REMARK    2  A    between atoms: C_2  and  N_3
REMARK    3  A    between atoms: N_3  and  C_4
REMARK    4  A    between atoms: N_3  and  C_6
REMARK    5  A    between atoms: C_4  and  C_5
REMARK    6  A    between atoms: C_6  and  C_7
REMARK    7  A    between atoms: C_7  and  C_8
REMARK    8  A    between atoms: C_7  and  N_9
REMARK    9  A    between atoms: N_9  and  C_10
REMARK                            x       y       z     vdW  Elec       q    Type
REMARK                         _______ _______ _______ _____ _____    ______ ____
ROOT
ATOM      1  C   UNL     1       6.096   4.472  17.821  0.00  0.00    +0.000 A 
ATOM      2  C   UNL     1       6.574   5.563  18.549  0.00  0.00    +0.000 A 
ATOM      3  C   UNL     1       7.280   6.550  17.880  0.00  0.00    +0.000 A 
ATOM      4  N   UNL     1       7.535   6.525  16.559  0.00  0.00    +0.000 NA
ATOM      5  C   UNL     1       7.016   5.520  15.838  0.00  0.00    +0.000 A 
ATOM      6  C   UNL     1       7.295   5.488  14.482  0.00  0.00    +0.000 A 
ATOM      7  C   UNL     1       6.768   4.495  13.661  0.00  0.00    +0.000 A 
ATOM      8 CL   UNL     1       7.195   4.444  11.994  0.00  0.00    +0.000 Cl
ATOM      9  C   UNL     1       5.911   3.534  14.182  0.00  0.00    +0.000 A 
ATOM     10  C   UNL     1       5.648   3.529  15.552  0.00  0.00    +0.000 A 
ATOM     11  C   UNL     1       6.226   4.492  16.409  0.00  0.00    +0.000 A 
ENDROOT
BRANCH   1  12
ATOM     12  N   UNL     1       5.436   3.390  18.456  0.00  0.00    +0.000 N 
ATOM     13  H   UNL     1       4.900   2.889  17.747  0.00  0.00    +0.000 HD
BRANCH  12  14
ATOM     14  C   UNL     1       4.584   3.691  19.643  0.00  0.00    +0.000 C 
ATOM     15  C   UNL     1       4.275   2.416  20.441  0.00  0.00    +0.000 C 
BRANCH  14  16
ATOM     16  C   UNL     1       3.252   4.363  19.164  0.00  0.00    +0.000 C 
BRANCH  16  17
ATOM     17  N   UNL     1       2.609   5.329  20.092  0.00  0.00    +0.000 NA
BRANCH  17  19
ATOM     18  C   UNL     1       3.012   6.811  18.081  0.00  0.00    +0.000 C 
ATOM     19  C   UNL     1       2.517   6.683  19.522  0.00  0.00    +0.000 C 
ENDBRANCH  17  19
BRANCH  17  20
ATOM     20  C   UNL     1       1.327   4.809  20.603  0.00  0.00    +0.000 C 
ATOM     21  C   UNL     1       0.809   3.527  19.955  0.00  0.00    +0.000 C 
ENDBRANCH  17  20
ENDBRANCH  16  17
ENDBRANCH  14  16
ENDBRANCH  12  14
ENDBRANCH   1  12
TORSDOF 6
ENDMDL
MODEL 5
REMARK VINA RESULT:      -6.5      2.798      5.860
REMARK  Name = 
REMARK  9 active torsions:
REMARK  status: ('A' for Active; 'I' for Inactive)
REMARK    1  A    between atoms: C_1  and  C_2
REMARK    2  A    between atoms: C_2  and  N_3
REMARK    3  A    between atoms: N_3  and  C_4
REMARK    4  A    between atoms: N_3  and  C_6
REMARK    5  A    between atoms: C_4  and  C_5
REMARK    6  A    between atoms: C_6  and  C_7
REMARK    7  A    between atoms: C_7  and  C_8
REMARK    8  A    between atoms: C_7  and  N_9
REMARK    9  A    between atoms: N_9  and  C_10
REMARK                            x       y       z     vdW  Elec       q    Type
REMARK                         _______ _______ _______ _____ _____    ______ ____
ROOT
ATOM      1  C   UNL     1       5.975   4.465  17.751  0.00  0.00    +0.000 A 
ATOM      2  C   UNL     1       5.315   4.288  16.534  0.00  0.00    +0.000 A 
ATOM      3  C   UNL     1       5.371   5.306  15.594  0.00  0.00    +0.000 A 
ATOM      4  N   UNL     1       6.031   6.464  15.781  0.00  0.00    +0.000 NA
ATOM      5  C   UNL     1       6.729   6.612  16.917  0.00  0.00    +0.000 A 
ATOM      6  C   UNL     1       7.392   7.813  17.114  0.00  0.00    +0.000 A 
ATOM      7  C   UNL     1       8.164   8.032  18.251  0.00  0.00    +0.000 A 
ATOM      8 CL   UNL     1       8.913   9.561  18.499  0.00  0.00    +0.000 Cl
ATOM      9  C   UNL     1       8.319   7.027  19.198  0.00  0.00    +0.000 A 
ATOM     10  C   UNL     1       7.631   5.825  19.034  0.00  0.00    +0.000 A 
ATOM     11  C   UNL     1       6.793   5.612  17.917  0.00  0.00    +0.000 A 
ENDROOT
BRANCH   1  12
ATOM     12  N   UNL     1       5.892   3.498  18.785  0.00  0.00    +0.000 N 
ATOM     13  H   UNL     1       6.215   2.607  18.408  0.00  0.00    +0.000 HD
BRANCH  12  14
ATOM     14  C   UNL     1       4.583   3.331  19.482  0.00  0.00    +0.000 C 
ATOM     15  C   UNL     1       3.708   2.287  18.775  0.00  0.00    +0.000 C 
BRANCH  14  16
ATOM     16  C   UNL     1       3.844   4.712  19.527  0.00  0.00    +0.000 C 
BRANCH  16  17
ATOM     17  N   UNL     1       2.406   4.723  19.152  0.00  0.00    +0.000 NA
BRANCH  17  19
ATOM     18  C   UNL     1       0.809   3.353  20.556  0.00  0.00    +0.000 C 
ATOM     19  C   UNL     1       1.517   4.689  20.324  0.00  0.00    +0.000 C 
ENDBRANCH  17  19
BRANCH  17  20
ATOM     20  C   UNL     1       2.106   5.817  18.209  0.00  0.00    +0.000 C 
ATOM     21  C   UNL     1       3.165   6.911  18.082  0.00  0.00    +0.000 C 
ENDBRANCH  17  20
ENDBRANCH  16  17
ENDBRANCH  14  16
ENDBRANCH  12  14
ENDBRANCH   1  12
TORSDOF 6
ENDMDL
MODEL 6
REMARK VINA RESULT:      -6.4      3.892      5.765
REMARK  Name = 
REMARK  9 active torsions:
REMARK  status: ('A' for Active; 'I' for Inactive)
REMARK    1  A    between atoms: C_1  and  C_2
REMARK    2  A    between atoms: C_2  and  N_3
REMARK    3  A    between atoms: N_3  and  C_4
REMARK    4  A    between atoms: N_3  and  C_6
REMARK    5  A    between atoms: C_4  and  C_5
REMARK    6  A    between atoms: C_6  and  C_7
REMARK    7  A    between atoms: C_7  and  C_8
REMARK    8  A    between atoms: C_7  and  N_9
REMARK    9  A    between atoms: N_9  and  C_10
REMARK                            x       y       z     vdW  Elec       q    Type
REMARK                         _______ _______ _______ _____ _____    ______ ____
ROOT
ATOM      1  C   UNL     1       1.792   8.112  19.840  0.00  0.00    +0.000 A 
ATOM      2  C   UNL     1       1.928   8.455  18.495  0.00  0.00    +0.000 A 
ATOM      3  C   UNL     1       1.216   9.542  18.012  0.00  0.00    +0.000 A 
ATOM      4  N   UNL     1       0.396  10.297  18.766  0.00  0.00    +0.000 NA
ATOM      5  C   UNL     1       0.318  10.021  20.077  0.00  0.00    +0.000 A 
ATOM      6  C   UNL     1      -0.540  10.789  20.847  0.00  0.00    +0.000 A 
ATOM      7  C   UNL     1      -0.654  10.585  22.219  0.00  0.00    +0.000 A 
ATOM      8 CL   UNL     1      -1.784  11.507  23.132  0.00  0.00    +0.000 Cl
ATOM      9  C   UNL     1       0.128   9.628  22.854  0.00  0.00    +0.000 A 
ATOM     10  C   UNL     1       0.970   8.821  22.090  0.00  0.00    +0.000 A 
ATOM     11  C   UNL     1       1.050   8.974  20.687  0.00  0.00    +0.000 A 
ENDROOT
BRANCH   1  12
ATOM     12  N   UNL     1       2.429   6.965  20.379  0.00  0.00    +0.000 N 
ATOM     13  H   UNL     1       3.423   7.177  20.481  0.00  0.00    +0.000 HD
BRANCH  12  14
ATOM     14  C   UNL     1       2.239   5.664  19.675  0.00  0.00    +0.000 C 
ATOM     15  C   UNL     1       1.583   4.626  20.597  0.00  0.00    +0.000 C 
BRANCH  14  16
ATOM     16  C   UNL     1       3.628   5.140  19.177  0.00  0.00    +0.000 C 
BRANCH  16  17
ATOM     17  N   UNL     1       3.667   4.481  17.845  0.00  0.00    +0.000 NA
BRANCH  17  19
ATOM     18  C   UNL     1       4.800   6.599  17.053  0.00  0.00    +0.000 C 
ATOM     19  C   UNL     1       4.666   5.079  16.947  0.00  0.00    +0.000 C 
ENDBRANCH  17  19
BRANCH  17  20
ATOM     20  C   UNL     1       3.783   3.016  17.975  0.00  0.00    +0.000 C 
ATOM     21  C   UNL     1       2.509   2.211  17.728  0.00  0.00    +0.000 C 
ENDBRANCH  17  20
ENDBRANCH  16  17
ENDBRANCH  14  16
ENDBRANCH  12  14
ENDBRANCH   1  12
TORSDOF 6
ENDMDL
MODEL 7
REMARK VINA RESULT:      -6.4      3.835      5.567
REMARK  Name = 
REMARK  9 active torsions:
REMARK  status: ('A' for Active; 'I' for Inactive)
REMARK    1  A    between atoms: C_1  and  C_2
REMARK    2  A    between atoms: C_2  and  N_3
REMARK    3  A    between atoms: N_3  and  C_4
REMARK    4  A    between atoms: N_3  and  C_6
REMARK    5  A    between atoms: C_4  and  C_5
REMARK    6  A    between atoms: C_6  and  C_7
REMARK    7  A    between atoms: C_7  and  C_8
REMARK    8  A    between atoms: C_7  and  N_9
REMARK    9  A    between atoms: N_9  and  C_10
REMARK                            x       y       z     vdW  Elec       q    Type
REMARK                         _______ _______ _______ _____ _____    ______ ____
ROOT
ATOM      1  C   UNL     1       1.854   7.996  19.853  0.00  0.00    +0.000 A 
ATOM      2  C   UNL     1       1.996   8.328  18.505  0.00  0.00    +0.000 A 
ATOM      3  C   UNL     1       1.283   9.407  18.008  0.00  0.00    +0.000 A 
ATOM      4  N   UNL     1       0.456  10.166  18.751  0.00  0.00    +0.000 NA
ATOM      5  C   UNL     1       0.370   9.900  20.063  0.00  0.00    +0.000 A 
ATOM      6  C   UNL     1      -0.497  10.671  20.821  0.00  0.00    +0.000 A 
ATOM      7  C   UNL     1      -0.619  10.478  22.194  0.00  0.00    +0.000 A 
ATOM      8 CL   UNL     1      -1.759  11.404  23.092  0.00  0.00    +0.000 Cl
ATOM      9  C   UNL     1       0.163   9.530  22.842  0.00  0.00    +0.000 A 
ATOM     10  C   UNL     1       1.013   8.721  22.090  0.00  0.00    +0.000 A 
ATOM     11  C   UNL     1       1.102   8.862  20.687  0.00  0.00    +0.000 A 
ENDROOT
BRANCH   1  12
ATOM     12  N   UNL     1       2.492   6.856  20.406  0.00  0.00    +0.000 N 
ATOM     13  H   UNL     1       3.488   7.062  20.485  0.00  0.00    +0.000 HD
BRANCH  12  14
ATOM     14  C   UNL     1       2.280   5.541  19.734  0.00  0.00    +0.000 C 
ATOM     15  C   UNL     1       1.285   4.673  20.518  0.00  0.00    +0.000 C 
BRANCH  14  16
ATOM     16  C   UNL     1       3.655   4.802  19.603  0.00  0.00    +0.000 C 
BRANCH  16  17
ATOM     17  N   UNL     1       4.665   5.404  18.695  0.00  0.00    +0.000 NA
BRANCH  17  19
ATOM     18  C   UNL     1       7.123   5.141  18.159  0.00  0.00    +0.000 C 
ATOM     19  C   UNL     1       6.034   5.297  19.222  0.00  0.00    +0.000 C 
ENDBRANCH  17  19
BRANCH  17  20
ATOM     20  C   UNL     1       4.515   4.899  17.317  0.00  0.00    +0.000 C 
ATOM     21  C   UNL     1       3.896   3.511  17.167  0.00  0.00    +0.000 C 
ENDBRANCH  17  20
ENDBRANCH  16  17
ENDBRANCH  14  16
ENDBRANCH  12  14
ENDBRANCH   1  12
TORSDOF 6
ENDMDL
MODEL 8
REMARK VINA RESULT:      -6.4      3.704      5.196
REMARK  Name = 
REMARK  9 active torsions:
REMARK  status: ('A' for Active; 'I' for Inactive)
REMARK    1  A    between atoms: C_1  and  C_2
REMARK    2  A    between atoms: C_2  and  N_3
REMARK    3  A    between atoms: N_3  and  C_4
REMARK    4  A    between atoms: N_3  and  C_6
REMARK    5  A    between atoms: C_4  and  C_5
REMARK    6  A    between atoms: C_6  and  C_7
REMARK    7  A    between atoms: C_7  and  C_8
REMARK    8  A    between atoms: C_7  and  N_9
REMARK    9  A    between atoms: N_9  and  C_10
REMARK                            x       y       z     vdW  Elec       q    Type
REMARK                         _______ _______ _______ _____ _____    ______ ____
ROOT
ATOM      1  C   UNL     1       1.988   7.835  19.570  0.00  0.00    +0.000 A 
ATOM      2  C   UNL     1       2.246   8.213  18.252  0.00  0.00    +0.000 A 
ATOM      3  C   UNL     1       1.715   9.405  17.786  0.00  0.00    +0.000 A 
ATOM      4  N   UNL     1       0.960  10.232  18.533  0.00  0.00    +0.000 NA
ATOM      5  C   UNL     1       0.768   9.914  19.822  0.00  0.00    +0.000 A 
ATOM      6  C   UNL     1      -0.024  10.758  20.583  0.00  0.00    +0.000 A 
ATOM      7  C   UNL     1      -0.245  10.514  21.936  0.00  0.00    +0.000 A 
ATOM      8 CL   UNL     1      -1.294  11.541  22.833  0.00  0.00    +0.000 Cl
ATOM      9  C   UNL     1       0.364   9.434  22.563  0.00  0.00    +0.000 A 
ATOM     10  C   UNL     1       1.136   8.554  21.805  0.00  0.00    +0.000 A 
ATOM     11  C   UNL     1       1.318   8.753  20.418  0.00  0.00    +0.000 A 
ENDROOT
BRANCH   1  12
ATOM     12  N   UNL     1       2.434   6.591  20.084  0.00  0.00    +0.000 N 
ATOM     13  H   UNL     1       3.172   6.779  20.763  0.00  0.00    +0.000 HD
BRANCH  12  14
ATOM     14  C   UNL     1       2.870   5.548  19.110  0.00  0.00    +0.000 C 
ATOM     15  C   UNL     1       1.973   4.304  19.192  0.00  0.00    +0.000 C 
BRANCH  14  16
ATOM     16  C   UNL     1       4.359   5.159  19.404  0.00  0.00    +0.000 C 
BRANCH  16  17
ATOM     17  N   UNL     1       5.398   5.727  18.506  0.00  0.00    +0.000 NA
BRANCH  17  19
ATOM     18  C   UNL     1       7.801   6.515  18.557  0.00  0.00    +0.000 C 
ATOM     19  C   UNL     1       6.763   5.480  18.995  0.00  0.00    +0.000 C 
ENDBRANCH  17  19
BRANCH  17  20
ATOM     20  C   UNL     1       5.181   5.313  17.107  0.00  0.00    +0.000 C 
ATOM     21  C   UNL     1       5.050   6.437  16.081  0.00  0.00    +0.000 C 
ENDBRANCH  17  20
ENDBRANCH  16  17
ENDBRANCH  14  16
ENDBRANCH  12  14
ENDBRANCH   1  12
TORSDOF 6
ENDMDL
MODEL 9
REMARK VINA RESULT:      -6.3      3.025      6.216
REMARK  Name = 
REMARK  9 active torsions:
REMARK  status: ('A' for Active; 'I' for Inactive)
REMARK    1  A    between atoms: C_1  and  C_2
REMARK    2  A    between atoms: C_2  and  N_3
REMARK    3  A    between atoms: N_3  and  C_4
REMARK    4  A    between atoms: N_3  and  C_6
REMARK    5  A    between atoms: C_4  and  C_5
REMARK    6  A    between atoms: C_6  and  C_7
REMARK    7  A    between atoms: C_7  and  C_8
REMARK    8  A    between atoms: C_7  and  N_9
REMARK    9  A    between atoms: N_9  and  C_10
REMARK                            x       y       z     vdW  Elec       q    Type
REMARK                         _______ _______ _______ _____ _____    ______ ____
ROOT
ATOM      1  C   UNL     1       5.087   4.922  17.019  0.00  0.00    +0.000 A 
ATOM      2  C   UNL     1       5.808   5.794  17.837  0.00  0.00    +0.000 A 
ATOM      3  C   UNL     1       6.997   6.321  17.360  0.00  0.00    +0.000 A 
ATOM      4  N   UNL     1       7.505   6.047  16.144  0.00  0.00    +0.000 NA
ATOM      5  C   UNL     1       6.783   5.270  15.322  0.00  0.00    +0.000 A 
ATOM      6  C   UNL     1       7.317   4.975  14.079  0.00  0.00    +0.000 A 
ATOM      7  C   UNL     1       6.615   4.202  13.158  0.00  0.00    +0.000 A 
ATOM      8 CL   UNL     1       7.340   3.794  11.652  0.00  0.00    +0.000 Cl
ATOM      9  C   UNL     1       5.338   3.743  13.455  0.00  0.00    +0.000 A 
ATOM     10  C   UNL     1       4.799   4.000  14.715  0.00  0.00    +0.000 A 
ATOM     11  C   UNL     1       5.525   4.729  15.684  0.00  0.00    +0.000 A 
ENDROOT
BRANCH   1  12
ATOM     12  N   UNL     1       3.905   4.286  17.476  0.00  0.00    +0.000 N 
ATOM     13  H   UNL     1       3.243   5.012  17.751  0.00  0.00    +0.000 HD
BRANCH  12  14
ATOM     14  C   UNL     1       4.035   3.259  18.550  0.00  0.00    +0.000 C 
ATOM     15  C   UNL     1       3.379   1.935  18.134  0.00  0.00    +0.000 C 
BRANCH  14  16
ATOM     16  C   UNL     1       3.371   3.800  19.862  0.00  0.00    +0.000 C 
BRANCH  16  17
ATOM     17  N   UNL     1       2.126   4.598  19.713  0.00  0.00    +0.000 NA
BRANCH  17  19
ATOM     18  C   UNL     1       1.286   2.777  21.256  0.00  0.00    +0.000 C 
ATOM     19  C   UNL     1       0.957   3.940  20.318  0.00  0.00    +0.000 C 
ENDBRANCH  17  19
BRANCH  17  20
ATOM     20  C   UNL     1       2.325   5.989  20.161  0.00  0.00    +0.000 C 
ATOM     21  C   UNL     1       2.454   7.042  19.062  0.00  0.00    +0.000 C 
ENDBRANCH  17  20
ENDBRANCH  16  17
ENDBRANCH  14  16
ENDBRANCH  12  14
ENDBRANCH   1  12
TORSDOF 6
ENDMDL
