MODEL 1
REMARK VINA RESULT:      -7.9      0.000      0.000
REMARK  Name = 
REMARK  3 active torsions:
REMARK  status: ('A' for Active; 'I' for Inactive)
REMARK    1  A    between atoms: C_1  and  O_2
REMARK    2  A    between atoms: O_2  and  C_3
REMARK    3  A    between atoms: C_6  and  C_7
REMARK                            x       y       z     vdW  Elec       q    Type
REMARK                         _______ _______ _______ _____ _____    ______ ____
ROOT
ATOM      1  C   UNL     1       1.187   8.621  20.379  0.00  0.00    +0.000 A 
ATOM      2  C   UNL     1       1.744   8.916  19.133  0.00  0.00    +0.000 A 
ATOM      3  N   UNL     1       2.428   8.074  18.322  0.00  0.00    +0.000 NA
ATOM      4  C   UNL     1       2.584   6.836  18.833  0.00  0.00    +0.000 A 
ATOM      5  S   UNL     1       3.438   5.658  17.961  0.00  0.00    +0.000 S 
ATOM      6  C   UNL     1       3.222   4.493  19.202  0.00  0.00    +0.000 A 
ATOM      7  C   UNL     1       3.665   3.171  19.259  0.00  0.00    +0.000 A 
ATOM      8  N   UNL     1       4.372   2.565  18.246  0.00  0.00    +0.000 N 
ATOM      9  N   UNL     1       3.381   2.450  20.356  0.00  0.00    +0.000 NA
ATOM     10  C   UNL     1       2.664   3.027  21.332  0.00  0.00    +0.000 A 
ATOM     11  N   UNL     1       2.186   4.275  21.367  0.00  0.00    +0.000 NA
ATOM     12  C   UNL     1       2.489   5.013  20.267  0.00  0.00    +0.000 A 
ATOM     13  C   UNL     1       2.104   6.381  20.050  0.00  0.00    +0.000 A 
ATOM     14  C   UNL     1       1.377   7.306  20.832  0.00  0.00    +0.000 A 
ATOM     15  H   UNL     1       4.742   3.117  17.487  0.00  0.00    +0.000 HD
ATOM     16  H   UNL     1       4.768   1.661  18.457  0.00  0.00    +0.000 HD
ENDROOT
BRANCH   1  20
ATOM     17  C   UNL     1      -0.942  11.594  22.674  0.00  0.00    +0.000 A 
ATOM     18  C   UNL     1      -0.847  10.285  23.135  0.00  0.00    +0.000 A 
ATOM     19  C   UNL     1      -0.130   9.327  22.409  0.00  0.00    +0.000 A 
ATOM     20  C   UNL     1       0.480   9.642  21.181  0.00  0.00    +0.000 A 
ATOM     21  C   UNL     1       0.359  10.969  20.731  0.00  0.00    +0.000 A 
ATOM     22  C   UNL     1      -0.341  11.935  21.467  0.00  0.00    +0.000 A 
BRANCH  17  24
ATOM     23  C   UNL     1      -3.090  12.260  23.389  0.00  0.00    +0.000 C 
ATOM     24  O   UNL     1      -1.680  12.440  23.454  0.00  0.00    +0.000 OA
ENDBRANCH  17  24
ENDBRANCH   1  20
TORSDOF 2
ENDMDL
MODEL 2
REMARK VINA RESULT:      -7.8      0.164      1.035
REMARK  Name = 
REMARK  3 active torsions:
REMARK  status: ('A' for Active; 'I' for Inactive)
REMARK    1  A    between atoms: C_1  and  O_2
REMARK    2  A    between atoms: O_2  and  C_3
REMARK    3  A    between atoms: C_6  and  C_7
REMARK                            x       y       z     vdW  Elec       q    Type
REMARK                         _______ _______ _______ _____ _____    ______ ____
ROOT
ATOM      1  C   UNL     1       1.205   8.514  20.347  0.00  0.00    +0.000 A 
ATOM      2  C   UNL     1       1.756   8.798  19.095  0.00  0.00    +0.000 A 
ATOM      3  N   UNL     1       2.446   7.952  18.294  0.00  0.00    +0.000 NA
ATOM      4  C   UNL     1       2.614   6.722  18.819  0.00  0.00    +0.000 A 
ATOM      5  S   UNL     1       3.478   5.542  17.961  0.00  0.00    +0.000 S 
ATOM      6  C   UNL     1       3.275   4.390  19.218  0.00  0.00    +0.000 A 
ATOM      7  C   UNL     1       3.731   3.074  19.291  0.00  0.00    +0.000 A 
ATOM      8  N   UNL     1       4.441   2.461  18.284  0.00  0.00    +0.000 N 
ATOM      9  N   UNL     1       3.456   2.364  20.398  0.00  0.00    +0.000 NA
ATOM     10  C   UNL     1       2.737   2.947  21.368  0.00  0.00    +0.000 A 
ATOM     11  N   UNL     1       2.247   4.191  21.388  0.00  0.00    +0.000 NA
ATOM     12  C   UNL     1       2.540   4.918  20.277  0.00  0.00    +0.000 A 
ATOM     13  C   UNL     1       2.142   6.279  20.044  0.00  0.00    +0.000 A 
ATOM     14  C   UNL     1       1.408   7.207  20.816  0.00  0.00    +0.000 A 
ATOM     15  H   UNL     1       4.804   3.007  17.517  0.00  0.00    +0.000 HD
ATOM     16  H   UNL     1       4.846   1.563  18.506  0.00  0.00    +0.000 HD
ENDROOT
BRANCH   1  20
ATOM     17  C   UNL     1      -0.820  11.511  22.704  0.00  0.00    +0.000 A 
ATOM     18  C   UNL     1      -0.172  11.863  21.524  0.00  0.00    +0.000 A 
ATOM     19  C   UNL     1       0.457  10.888  20.742  0.00  0.00    +0.000 A 
ATOM     20  C   UNL     1       0.490   9.539  21.137  0.00  0.00    +0.000 A 
ATOM     21  C   UNL     1      -0.161   9.211  22.340  0.00  0.00    +0.000 A 
ATOM     22  C   UNL     1      -0.810  10.182  23.114  0.00  0.00    +0.000 A 
BRANCH  17  24
ATOM     23  C   UNL     1      -2.809  12.574  23.399  0.00  0.00    +0.000 C 
ATOM     24  O   UNL     1      -1.386  12.545  23.396  0.00  0.00    +0.000 OA
ENDBRANCH  17  24
ENDBRANCH   1  20
TORSDOF 2
ENDMDL
MODEL 3
REMARK VINA RESULT:      -7.7      4.314      7.861
REMARK  Name = 
REMARK  3 active torsions:
REMARK  status: ('A' for Active; 'I' for Inactive)
REMARK    1  A    between atoms: C_1  and  O_2
REMARK    2  A    between atoms: O_2  and  C_3
REMARK    3  A    between atoms: C_6  and  C_7
REMARK                            x       y       z     vdW  Elec       q    Type
REMARK                         _______ _______ _______ _____ _____    ______ ____
ROOT
ATOM      1  C   UNL     1       2.276   7.560  18.557  0.00  0.00    +0.000 A 
ATOM      2  C   UNL     1       2.327   8.598  17.625  0.00  0.00    +0.000 A 
ATOM      3  N   UNL     1       1.901   9.873  17.795  0.00  0.00    +0.000 NA
ATOM      4  C   UNL     1       1.351  10.104  19.004  0.00  0.00    +0.000 A 
ATOM      5  S   UNL     1       0.741  11.642  19.380  0.00  0.00    +0.000 S 
ATOM      6  C   UNL     1       0.243  11.131  20.941  0.00  0.00    +0.000 A 
ATOM      7  C   UNL     1      -0.395  11.858  21.946  0.00  0.00    +0.000 A 
ATOM      8  N   UNL     1      -0.721  13.189  21.827  0.00  0.00    +0.000 N 
ATOM      9  N   UNL     1      -0.701  11.228  23.093  0.00  0.00    +0.000 NA
ATOM     10  C   UNL     1      -0.356   9.939  23.225  0.00  0.00    +0.000 A 
ATOM     11  N   UNL     1       0.265   9.162  22.331  0.00  0.00    +0.000 NA
ATOM     12  C   UNL     1       0.558   9.792  21.163  0.00  0.00    +0.000 A 
ATOM     13  C   UNL     1       1.216   9.190  20.035  0.00  0.00    +0.000 A 
ATOM     14  C   UNL     1       1.706   7.886  19.798  0.00  0.00    +0.000 A 
ATOM     15  H   UNL     1      -0.657  13.647  20.930  0.00  0.00    +0.000 HD
ATOM     16  H   UNL     1      -1.312  13.571  22.552  0.00  0.00    +0.000 HD
ENDROOT
BRANCH   1  20
ATOM     17  C   UNL     1       3.686   3.570  17.703  0.00  0.00    +0.000 A 
ATOM     18  C   UNL     1       2.323   3.847  17.711  0.00  0.00    +0.000 A 
ATOM     19  C   UNL     1       1.865   5.147  17.956  0.00  0.00    +0.000 A 
ATOM     20  C   UNL     1       2.756   6.198  18.238  0.00  0.00    +0.000 A 
ATOM     21  C   UNL     1       4.128   5.890  18.235  0.00  0.00    +0.000 A 
ATOM     22  C   UNL     1       4.590   4.593  17.970  0.00  0.00    +0.000 A 
BRANCH  17  24
ATOM     23  C   UNL     1       3.655   1.347  18.493  0.00  0.00    +0.000 C 
ATOM     24  O   UNL     1       4.020   2.265  17.469  0.00  0.00    +0.000 OA
ENDBRANCH  17  24
ENDBRANCH   1  20
TORSDOF 2
ENDMDL
MODEL 4
REMARK VINA RESULT:      -7.5      4.410      7.986
REMARK  Name = 
REMARK  3 active torsions:
REMARK  status: ('A' for Active; 'I' for Inactive)
REMARK    1  A    between atoms: C_1  and  O_2
REMARK    2  A    between atoms: O_2  and  C_3
REMARK    3  A    between atoms: C_6  and  C_7
REMARK                            x       y       z     vdW  Elec       q    Type
REMARK                         _______ _______ _______ _____ _____    ______ ____
ROOT
ATOM      1  C   UNL     1       2.328   8.045  18.419  0.00  0.00    +0.000 A 
ATOM      2  C   UNL     1       2.097   9.128  17.569  0.00  0.00    +0.000 A 
ATOM      3  N   UNL     1       1.442  10.276  17.866  0.00  0.00    +0.000 NA
ATOM      4  C   UNL     1       0.958  10.315  19.123  0.00  0.00    +0.000 A 
ATOM      5  S   UNL     1       0.088  11.670  19.657  0.00  0.00    +0.000 S 
ATOM      6  C   UNL     1      -0.171  10.972  21.203  0.00  0.00    +0.000 A 
ATOM      7  C   UNL     1      -0.858  11.490  22.302  0.00  0.00    +0.000 A 
ATOM      8  N   UNL     1      -1.449  12.732  22.309  0.00  0.00    +0.000 N 
ATOM      9  N   UNL     1      -0.939  10.741  23.414  0.00  0.00    +0.000 NA
ATOM     10  C   UNL     1      -0.336   9.543  23.423  0.00  0.00    +0.000 A 
ATOM     11  N   UNL     1       0.352   8.966  22.432  0.00  0.00    +0.000 NA
ATOM     12  C   UNL     1       0.419   9.714  21.299  0.00  0.00    +0.000 A 
ATOM     13  C   UNL     1       1.090   9.330  20.087  0.00  0.00    +0.000 A 
ATOM     14  C   UNL     1       1.808   8.171  19.717  0.00  0.00    +0.000 A 
ATOM     15  H   UNL     1      -1.550  13.248  21.447  0.00  0.00    +0.000 HD
ATOM     16  H   UNL     1      -2.043  12.940  23.098  0.00  0.00    +0.000 HD
ENDROOT
BRANCH   1  20
ATOM     17  C   UNL     1       4.364   4.503  17.024  0.00  0.00    +0.000 A 
ATOM     18  C   UNL     1       4.950   5.756  16.874  0.00  0.00    +0.000 A 
ATOM     19  C   UNL     1       4.306   6.902  17.354  0.00  0.00    +0.000 A 
ATOM     20  C   UNL     1       3.041   6.832  17.964  0.00  0.00    +0.000 A 
ATOM     21  C   UNL     1       2.465   5.555  18.093  0.00  0.00    +0.000 A 
ATOM     22  C   UNL     1       3.117   4.404  17.631  0.00  0.00    +0.000 A 
BRANCH  17  24
ATOM     23  C   UNL     1       6.059   3.804  15.539  0.00  0.00    +0.000 C 
ATOM     24  O   UNL     1       5.073   3.456  16.503  0.00  0.00    +0.000 OA
ENDBRANCH  17  24
ENDBRANCH   1  20
TORSDOF 2
ENDMDL
MODEL 5
REMARK VINA RESULT:      -7.5      4.416      8.480
REMARK  Name = 
REMARK  3 active torsions:
REMARK  status: ('A' for Active; 'I' for Inactive)
REMARK    1  A    between atoms: C_1  and  O_2
REMARK    2  A    between atoms: O_2  and  C_3
REMARK    3  A    between atoms: C_6  and  C_7
REMARK                            x       y       z     vdW  Elec       q    Type
REMARK                         _______ _______ _______ _____ _____    ______ ____
ROOT
ATOM      1  C   UNL     1       2.930   6.563  18.537  0.00  0.00    +0.000 A 
ATOM      2  C   UNL     1       2.522   5.989  19.743  0.00  0.00    +0.000 A 
ATOM      3  N   UNL     1       1.768   6.565  20.709  0.00  0.00    +0.000 NA
ATOM      4  C   UNL     1       1.423   7.840  20.441  0.00  0.00    +0.000 A 
ATOM      5  S   UNL     1       0.499   8.723  21.556  0.00  0.00    +0.000 S 
ATOM      6  C   UNL     1       0.522  10.122  20.562  0.00  0.00    +0.000 A 
ATOM      7  C   UNL     1      -0.051  11.374  20.786  0.00  0.00    +0.000 A 
ATOM      8  N   UNL     1      -0.786  11.681  21.908  0.00  0.00    +0.000 N 
ATOM      9  N   UNL     1       0.118  12.329  19.855  0.00  0.00    +0.000 NA
ATOM     10  C   UNL     1       0.806  12.024  18.746  0.00  0.00    +0.000 A 
ATOM     11  N   UNL     1       1.380  10.858  18.433  0.00  0.00    +0.000 NA
ATOM     12  C   UNL     1       1.228   9.896  19.382  0.00  0.00    +0.000 A 
ATOM     13  C   UNL     1       1.748   8.559  19.303  0.00  0.00    +0.000 A 
ATOM     14  C   UNL     1       2.515   7.887  18.324  0.00  0.00    +0.000 A 
ATOM     15  H   UNL     1      -0.794  11.050  22.695  0.00  0.00    +0.000 HD
ATOM     16  H   UNL     1      -1.023  12.654  22.034  0.00  0.00    +0.000 HD
ENDROOT
BRANCH   1  20
ATOM     17  C   UNL     1       5.465   4.439  15.762  0.00  0.00    +0.000 A 
ATOM     18  C   UNL     1       4.647   3.740  16.644  0.00  0.00    +0.000 A 
ATOM     19  C   UNL     1       3.801   4.427  17.522  0.00  0.00    +0.000 A 
ATOM     20  C   UNL     1       3.777   5.832  17.570  0.00  0.00    +0.000 A 
ATOM     21  C   UNL     1       4.622   6.515  16.677  0.00  0.00    +0.000 A 
ATOM     22  C   UNL     1       5.455   5.830  15.783  0.00  0.00    +0.000 A 
BRANCH  17  24
ATOM     23  C   UNL     1       6.217   3.976  13.574  0.00  0.00    +0.000 C 
ATOM     24  O   UNL     1       6.262   3.668  14.962  0.00  0.00    +0.000 OA
ENDBRANCH  17  24
ENDBRANCH   1  20
TORSDOF 2
ENDMDL
MODEL 6
REMARK VINA RESULT:      -7.4      4.299      7.889
REMARK  Name = 
REMARK  3 active torsions:
REMARK  status: ('A' for Active; 'I' for Inactive)
REMARK    1  A    between atoms: C_1  and  O_2
REMARK    2  A    between atoms: O_2  and  C_3
REMARK    3  A    between atoms: C_6  and  C_7
REMARK                            x       y       z     vdW  Elec       q    Type
REMARK                         _______ _______ _______ _____ _____    ______ ____
ROOT
ATOM      1  C   UNL     1       2.223   7.473  18.758  0.00  0.00    +0.000 A 
ATOM      2  C   UNL     1       2.311   8.478  17.793  0.00  0.00    +0.000 A 
ATOM      3  N   UNL     1       1.906   9.765  17.912  0.00  0.00    +0.000 NA
ATOM      4  C   UNL     1       1.339  10.047  19.101  0.00  0.00    +0.000 A 
ATOM      5  S   UNL     1       0.751  11.608  19.413  0.00  0.00    +0.000 S 
ATOM      6  C   UNL     1       0.214  11.160  20.980  0.00  0.00    +0.000 A 
ATOM      7  C   UNL     1      -0.430  11.932  21.947  0.00  0.00    +0.000 A 
ATOM      8  N   UNL     1      -0.728  13.265  21.777  0.00  0.00    +0.000 N 
ATOM      9  N   UNL     1      -0.769  11.348  23.109  0.00  0.00    +0.000 NA
ATOM     10  C   UNL     1      -0.451  10.058  23.291  0.00  0.00    +0.000 A 
ATOM     11  N   UNL     1       0.172   9.240  22.437  0.00  0.00    +0.000 NA
ATOM     12  C   UNL     1       0.499   9.823  21.253  0.00  0.00    +0.000 A 
ATOM     13  C   UNL     1       1.167   9.171  20.160  0.00  0.00    +0.000 A 
ATOM     14  C   UNL     1       1.636   7.852  19.976  0.00  0.00    +0.000 A 
ATOM     15  H   UNL     1      -0.638  13.690  20.867  0.00  0.00    +0.000 HD
ATOM     16  H   UNL     1      -1.325  13.681  22.477  0.00  0.00    +0.000 HD
ENDROOT
BRANCH   1  20
ATOM     17  C   UNL     1       3.580   3.463  17.913  0.00  0.00    +0.000 A 
ATOM     18  C   UNL     1       4.430   4.379  18.525  0.00  0.00    +0.000 A 
ATOM     19  C   UNL     1       3.982   5.669  18.829  0.00  0.00    +0.000 A 
ATOM     20  C   UNL     1       2.683   6.093  18.495  0.00  0.00    +0.000 A 
ATOM     21  C   UNL     1       1.847   5.152  17.866  0.00  0.00    +0.000 A 
ATOM     22  C   UNL     1       2.288   3.852  17.580  0.00  0.00    +0.000 A 
BRANCH  17  24
ATOM     23  C   UNL     1       3.810   1.211  18.579  0.00  0.00    +0.000 C 
ATOM     24  O   UNL     1       4.128   2.238  17.648  0.00  0.00    +0.000 OA
ENDBRANCH  17  24
ENDBRANCH   1  20
TORSDOF 2
ENDMDL
MODEL 7
REMARK VINA RESULT:      -7.4      4.410      8.498
REMARK  Name = 
REMARK  3 active torsions:
REMARK  status: ('A' for Active; 'I' for Inactive)
REMARK    1  A    between atoms: C_1  and  O_2
REMARK    2  A    between atoms: O_2  and  C_3
REMARK    3  A    between atoms: C_6  and  C_7
REMARK                            x       y       z     vdW  Elec       q    Type
REMARK                         _______ _______ _______ _____ _____    ______ ____
ROOT
ATOM      1  C   UNL     1       2.867   6.707  18.621  0.00  0.00    +0.000 A 
ATOM      2  C   UNL     1       2.457   6.140  19.830  0.00  0.00    +0.000 A 
ATOM      3  N   UNL     1       1.699   6.720  20.791  0.00  0.00    +0.000 NA
ATOM      4  C   UNL     1       1.351   7.992  20.513  0.00  0.00    +0.000 A 
ATOM      5  S   UNL     1       0.421   8.880  21.619  0.00  0.00    +0.000 S 
ATOM      6  C   UNL     1       0.443  10.272  20.616  0.00  0.00    +0.000 A 
ATOM      7  C   UNL     1      -0.135  11.524  20.830  0.00  0.00    +0.000 A 
ATOM      8  N   UNL     1      -0.874  11.836  21.948  0.00  0.00    +0.000 N 
ATOM      9  N   UNL     1       0.033  12.472  19.894  0.00  0.00    +0.000 NA
ATOM     10  C   UNL     1       0.725  12.162  18.788  0.00  0.00    +0.000 A 
ATOM     11  N   UNL     1       1.304  10.996  18.485  0.00  0.00    +0.000 NA
ATOM     12  C   UNL     1       1.152  10.040  19.440  0.00  0.00    +0.000 A 
ATOM     13  C   UNL     1       1.677   8.703  19.370  0.00  0.00    +0.000 A 
ATOM     14  C   UNL     1       2.448   8.028  18.399  0.00  0.00    +0.000 A 
ATOM     15  H   UNL     1      -0.882  11.209  22.739  0.00  0.00    +0.000 HD
ATOM     16  H   UNL     1      -1.114  12.809  22.067  0.00  0.00    +0.000 HD
ENDROOT
BRANCH   1  20
ATOM     17  C   UNL     1       5.291   4.555  15.770  0.00  0.00    +0.000 A 
ATOM     18  C   UNL     1       5.365   5.942  15.851  0.00  0.00    +0.000 A 
ATOM     19  C   UNL     1       4.604   6.639  16.796  0.00  0.00    +0.000 A 
ATOM     20  C   UNL     1       3.718   5.972  17.662  0.00  0.00    +0.000 A 
ATOM     21  C   UNL     1       3.653   4.571  17.551  0.00  0.00    +0.000 A 
ATOM     22  C   UNL     1       4.430   3.869  16.619  0.00  0.00    +0.000 A 
BRANCH  17  24
ATOM     23  C   UNL     1       7.007   4.845  14.176  0.00  0.00    +0.000 C 
ATOM     24  O   UNL     1       6.064   3.981  14.800  0.00  0.00    +0.000 OA
ENDBRANCH  17  24
ENDBRANCH   1  20
TORSDOF 2
ENDMDL
MODEL 8
REMARK VINA RESULT:      -7.3      4.111      7.896
REMARK  Name = 
REMARK  3 active torsions:
REMARK  status: ('A' for Active; 'I' for Inactive)
REMARK    1  A    between atoms: C_1  and  O_2
REMARK    2  A    between atoms: O_2  and  C_3
REMARK    3  A    between atoms: C_6  and  C_7
REMARK                            x       y       z     vdW  Elec       q    Type
REMARK                         _______ _______ _______ _____ _____    ______ ____
ROOT
ATOM      1  C   UNL     1       2.085   7.531  19.505  0.00  0.00    +0.000 A 
ATOM      2  C   UNL     1       2.241   8.322  18.365  0.00  0.00    +0.000 A 
ATOM      3  N   UNL     1       1.785   9.583  18.176  0.00  0.00    +0.000 NA
ATOM      4  C   UNL     1       1.088  10.071  19.221  0.00  0.00    +0.000 A 
ATOM      5  S   UNL     1       0.421  11.629  19.146  0.00  0.00    +0.000 S 
ATOM      6  C   UNL     1      -0.262  11.480  20.713  0.00  0.00    +0.000 A 
ATOM      7  C   UNL     1      -1.028  12.397  21.434  0.00  0.00    +0.000 A 
ATOM      8  N   UNL     1      -1.349  13.650  20.964  0.00  0.00    +0.000 N 
ATOM      9  N   UNL     1      -1.467  12.043  22.653  0.00  0.00    +0.000 NA
ATOM     10  C   UNL     1      -1.129  10.836  23.128  0.00  0.00    +0.000 A 
ATOM     11  N   UNL     1      -0.394   9.895  22.525  0.00  0.00    +0.000 NA
ATOM     12  C   UNL     1       0.036  10.244  21.283  0.00  0.00    +0.000 A 
ATOM     13  C   UNL     1       0.835   9.420  20.417  0.00  0.00    +0.000 A 
ATOM     14  C   UNL     1       1.363   8.117  20.556  0.00  0.00    +0.000 A 
ATOM     15  H   UNL     1      -1.179  13.886  19.998  0.00  0.00    +0.000 HD
ATOM     16  H   UNL     1      -2.029  14.167  21.502  0.00  0.00    +0.000 HD
ENDROOT
BRANCH   1  20
ATOM     17  C   UNL     1       3.567   3.480  19.677  0.00  0.00    +0.000 A 
ATOM     18  C   UNL     1       4.070   4.373  18.737  0.00  0.00    +0.000 A 
ATOM     19  C   UNL     1       3.614   5.696  18.700  0.00  0.00    +0.000 A 
ATOM     20  C   UNL     1       2.614   6.152  19.578  0.00  0.00    +0.000 A 
ATOM     21  C   UNL     1       2.113   5.226  20.510  0.00  0.00    +0.000 A 
ATOM     22  C   UNL     1       2.583   3.906  20.562  0.00  0.00    +0.000 A 
BRANCH  17  24
ATOM     23  C   UNL     1       3.649   1.441  18.490  0.00  0.00    +0.000 C 
ATOM     24  O   UNL     1       4.070   2.210  19.611  0.00  0.00    +0.000 OA
ENDBRANCH  17  24
ENDBRANCH   1  20
TORSDOF 2
ENDMDL
MODEL 9
REMARK VINA RESULT:      -7.3      1.963      3.252
REMARK  Name = 
REMARK  3 active torsions:
REMARK  status: ('A' for Active; 'I' for Inactive)
REMARK    1  A    between atoms: C_1  and  O_2
REMARK    2  A    between atoms: O_2  and  C_3
REMARK    3  A    between atoms: C_6  and  C_7
REMARK                            x       y       z     vdW  Elec       q    Type
REMARK                         _______ _______ _______ _____ _____    ______ ____
ROOT
ATOM      1  C   UNL     1       1.740   7.392  20.337  0.00  0.00    +0.000 A 
ATOM      2  C   UNL     1       1.604   6.119  20.895  0.00  0.00    +0.000 A 
ATOM      3  N   UNL     1       2.185   4.973  20.468  0.00  0.00    +0.000 NA
ATOM      4  C   UNL     1       2.946   5.127  19.366  0.00  0.00    +0.000 A 
ATOM      5  S   UNL     1       3.729   3.788  18.679  0.00  0.00    +0.000 S 
ATOM      6  C   UNL     1       4.394   4.745  17.419  0.00  0.00    +0.000 A 
ATOM      7  C   UNL     1       5.216   4.361  16.359  0.00  0.00    +0.000 A 
ATOM      8  N   UNL     1       5.659   3.072  16.171  0.00  0.00    +0.000 N 
ATOM      9  N   UNL     1       5.603   5.301  15.480  0.00  0.00    +0.000 NA
ATOM     10  C   UNL     1       5.201   6.565  15.677  0.00  0.00    +0.000 A 
ATOM     11  N   UNL     1       4.427   7.033  16.662  0.00  0.00    +0.000 NA
ATOM     12  C   UNL     1       4.019   6.081  17.543  0.00  0.00    +0.000 A 
ATOM     13  C   UNL     1       3.179   6.311  18.687  0.00  0.00    +0.000 A 
ATOM     14  C   UNL     1       2.563   7.472  19.203  0.00  0.00    +0.000 A 
ATOM     15  H   UNL     1       5.260   2.318  16.710  0.00  0.00    +0.000 HD
ATOM     16  H   UNL     1       6.120   2.882  15.294  0.00  0.00    +0.000 HD
ENDROOT
BRANCH   1  20
ATOM     17  C   UNL     1      -0.267  10.846  21.974  0.00  0.00    +0.000 A 
ATOM     18  C   UNL     1       0.132  10.831  20.642  0.00  0.00    +0.000 A 
ATOM     19  C   UNL     1       0.754   9.700  20.101  0.00  0.00    +0.000 A 
ATOM     20  C   UNL     1       1.029   8.566  20.887  0.00  0.00    +0.000 A 
ATOM     21  C   UNL     1       0.627   8.612  22.234  0.00  0.00    +0.000 A 
ATOM     22  C   UNL     1      -0.014   9.736  22.773  0.00  0.00    +0.000 A 
BRANCH  17  24
ATOM     23  C   UNL     1      -2.099  11.858  23.064  0.00  0.00    +0.000 C 
ATOM     24  O   UNL     1      -0.849  12.007  22.401  0.00  0.00    +0.000 OA
ENDBRANCH  17  24
ENDBRANCH   1  20
TORSDOF 2
ENDMDL
