MODEL 1
REMARK VINA RESULT:      -7.9      0.000      0.000
REMARK  Name = 
REMARK  11 active torsions:
REMARK  status: ('A' for Active; 'I' for Inactive)
REMARK    1  A    between atoms: C_1  and  C_2
REMARK    2  A    between atoms: C_2  and  C_3
REMARK    3  A    between atoms: C_2  and  O_4
REMARK    4  A    between atoms: O_4  and  C_5
REMARK    5  A    between atoms: C_5  and  C_6
REMARK    6  A    between atoms: C_6  and  C_7
REMARK    7  A    between atoms: C_7  and  N_8
REMARK    8  A    between atoms: N_8  and  C_25
REMARK    9  A    between atoms: C_9  and  C_11
REMARK   10  A    between atoms: C_11  and  N_12
REMARK   11  A    between atoms: C_13  and  C_15
REMARK                            x       y       z     vdW  Elec       q    Type
REMARK                         _______ _______ _______ _____ _____    ______ ____
ROOT
ATOM      1  C   UNL     1       7.995   5.863  18.483  0.00  0.00    +0.000 C 
ENDROOT
BRANCH   1   2
ATOM      2  N   UNL     1       8.416   7.186  18.840  0.00  0.00    +0.000 N 
ATOM      3  C   UNL     1       8.203   8.220  17.968  0.00  0.00    +0.000 C 
ATOM      4  O   UNL     1       7.659   8.063  16.847  0.00  0.00    +0.000 OA
ATOM      5  H   UNL     1       8.745   7.348  19.786  0.00  0.00    +0.000 HD
BRANCH   3   6
ATOM      6  C   UNL     1       8.614   9.510  18.423  0.00  0.00    +0.000 A 
ATOM      7  C   UNL     1       8.531  10.748  17.801  0.00  0.00    +0.000 A 
ATOM      8  C   UNL     1       9.104  11.721  18.656  0.00  0.00    +0.000 A 
ATOM      9  C   UNL     1       9.318  13.106  18.552  0.00  0.00    +0.000 A 
ATOM     10  C   UNL     1       9.950  13.772  19.607  0.00  0.00    +0.000 A 
ATOM     11 CL   UNL     1      10.274  15.458  19.470  0.00  0.00    +0.000 Cl
ATOM     12  C   UNL     1      10.339  13.093  20.761  0.00  0.00    +0.000 A 
ATOM     13  C   UNL     1      10.117  11.719  20.890  0.00  0.00    +0.000 A 
ATOM     14  C   UNL     1       9.506  11.060  19.817  0.00  0.00    +0.000 A 
ATOM     15  N   UNL     1       9.188   9.732  19.655  0.00  0.00    +0.000 N 
ATOM     16  H   UNL     1       9.362   9.001  20.335  0.00  0.00    +0.000 HD
ENDBRANCH   3   6
ENDBRANCH   1   2
BRANCH   1  18
ATOM     17  N   UNL     1       5.687   4.976  17.780  0.00  0.00    +0.000 N 
ATOM     18  C   UNL     1       6.560   5.359  18.841  0.00  0.00    +0.000 C 
ATOM     19  O   UNL     1       6.246   5.349  20.023  0.00  0.00    +0.000 OA
BRANCH  17  20
ATOM     20  C   UNL     1       6.154   4.880  16.397  0.00  0.00    +0.000 C 
ATOM     21  C   UNL     1       5.937   3.538  15.692  0.00  0.00    +0.000 C 
ATOM     22  C   UNL     1       6.054   3.845  14.206  0.00  0.00    +0.000 C 
ATOM     23  C   UNL     1       5.607   5.295  14.056  0.00  0.00    +0.000 C 
ATOM     24  C   UNL     1       5.424   5.846  15.471  0.00  0.00    +0.000 C 
ENDBRANCH  17  20
BRANCH  17  25
ATOM     25  C   UNL     1       4.300   4.476  18.017  0.00  0.00    +0.000 C 
BRANCH  25  26
ATOM     26  C   UNL     1       3.252   5.529  18.260  0.00  0.00    +0.000 C 
BRANCH  26  27
ATOM     27  C   UNL     1       2.650   5.502  19.625  0.00  0.00    +0.000 C 
BRANCH  27  28
ATOM     28  O   UNL     1       3.117   4.340  20.295  0.00  0.00    +0.000 OA
BRANCH  28  30
ATOM     29  C   UNL     1       2.255   2.590  21.680  0.00  0.00    +0.000 C 
ATOM     30  C   UNL     1       2.094   3.359  20.380  0.00  0.00    +0.000 C 
ATOM     31  C   UNL     1       0.729   4.031  20.340  0.00  0.00    +0.000 C 
ENDBRANCH  28  30
ENDBRANCH  27  28
ENDBRANCH  26  27
ENDBRANCH  25  26
ENDBRANCH  17  25
ENDBRANCH   1  18
TORSDOF 9
ENDMDL
MODEL 2
REMARK VINA RESULT:      -7.8      1.949      4.546
REMARK  Name = 
REMARK  11 active torsions:
REMARK  status: ('A' for Active; 'I' for Inactive)
REMARK    1  A    between atoms: C_1  and  C_2
REMARK    2  A    between atoms: C_2  and  C_3
REMARK    3  A    between atoms: C_2  and  O_4
REMARK    4  A    between atoms: O_4  and  C_5
REMARK    5  A    between atoms: C_5  and  C_6
REMARK    6  A    between atoms: C_6  and  C_7
REMARK    7  A    between atoms: C_7  and  N_8
REMARK    8  A    between atoms: N_8  and  C_25
REMARK    9  A    between atoms: C_9  and  C_11
REMARK   10  A    between atoms: C_11  and  N_12
REMARK   11  A    between atoms: C_13  and  C_15
REMARK                            x       y       z     vdW  Elec       q    Type
REMARK                         _______ _______ _______ _____ _____    ______ ____
ROOT
ATOM      1  C   UNL     1       7.555   5.421  19.058  0.00  0.00    +0.000 C 
ENDROOT
BRANCH   1   2
ATOM      2  N   UNL     1       8.130   6.733  19.121  0.00  0.00    +0.000 N 
ATOM      3  C   UNL     1       7.826   7.650  18.150  0.00  0.00    +0.000 C 
ATOM      4  O   UNL     1       7.066   7.390  17.184  0.00  0.00    +0.000 OA
ATOM      5  H   UNL     1       8.646   6.994  19.954  0.00  0.00    +0.000 HD
BRANCH   3   6
ATOM      6  C   UNL     1       8.407   8.944  18.314  0.00  0.00    +0.000 A 
ATOM      7  C   UNL     1       8.323  10.073  17.511  0.00  0.00    +0.000 A 
ATOM      8  C   UNL     1       9.102  11.100  18.096  0.00  0.00    +0.000 A 
ATOM      9  C   UNL     1       9.406  12.423  17.729  0.00  0.00    +0.000 A 
ATOM     10  C   UNL     1      10.253  13.174  18.552  0.00  0.00    +0.000 A 
ATOM     11 CL   UNL     1      10.683  14.775  18.085  0.00  0.00    +0.000 Cl
ATOM     12  C   UNL     1      10.769  12.644  19.733  0.00  0.00    +0.000 A 
ATOM     13  C   UNL     1      10.462  11.337  20.124  0.00  0.00    +0.000 A 
ATOM     14  C   UNL     1       9.635  10.588  19.280  0.00  0.00    +0.000 A 
ATOM     15  N   UNL     1       9.189   9.292  19.393  0.00  0.00    +0.000 N 
ATOM     16  H   UNL     1       9.414   8.661  20.153  0.00  0.00    +0.000 HD
ENDBRANCH   3   6
ENDBRANCH   1   2
BRANCH   1  18
ATOM     17  N   UNL     1       5.900   4.485  17.329  0.00  0.00    +0.000 N 
ATOM     18  C   UNL     1       7.258   4.745  17.682  0.00  0.00    +0.000 C 
ATOM     19  O   UNL     1       8.216   4.443  16.986  0.00  0.00    +0.000 OA
BRANCH  17  20
ATOM     20  C   UNL     1       4.787   4.986  18.135  0.00  0.00    +0.000 C 
ATOM     21  C   UNL     1       3.841   5.981  17.455  0.00  0.00    +0.000 C 
ATOM     22  C   UNL     1       2.572   5.962  18.294  0.00  0.00    +0.000 C 
ATOM     23  C   UNL     1       2.510   4.565  18.901  0.00  0.00    +0.000 C 
ATOM     24  C   UNL     1       3.830   3.876  18.554  0.00  0.00    +0.000 C 
ENDBRANCH  17  20
BRANCH  17  25
ATOM     25  C   UNL     1       5.510   3.849  16.035  0.00  0.00    +0.000 C 
BRANCH  25  26
ATOM     26  C   UNL     1       6.217   4.362  14.809  0.00  0.00    +0.000 C 
BRANCH  26  27
ATOM     27  C   UNL     1       5.484   4.136  13.530  0.00  0.00    +0.000 C 
BRANCH  27  28
ATOM     28  O   UNL     1       6.327   3.396  12.658  0.00  0.00    +0.000 OA
BRANCH  28  30
ATOM     29  C   UNL     1       4.443   3.051  11.224  0.00  0.00    +0.000 C 
ATOM     30  C   UNL     1       5.590   2.394  11.973  0.00  0.00    +0.000 C 
ATOM     31  C   UNL     1       6.498   1.664  10.993  0.00  0.00    +0.000 C 
ENDBRANCH  28  30
ENDBRANCH  27  28
ENDBRANCH  26  27
ENDBRANCH  25  26
ENDBRANCH  17  25
ENDBRANCH   1  18
TORSDOF 9
ENDMDL
MODEL 3
REMARK VINA RESULT:      -7.6      4.153      7.362
REMARK  Name = 
REMARK  11 active torsions:
REMARK  status: ('A' for Active; 'I' for Inactive)
REMARK    1  A    between atoms: C_1  and  C_2
REMARK    2  A    between atoms: C_2  and  C_3
REMARK    3  A    between atoms: C_2  and  O_4
REMARK    4  A    between atoms: O_4  and  C_5
REMARK    5  A    between atoms: C_5  and  C_6
REMARK    6  A    between atoms: C_6  and  C_7
REMARK    7  A    between atoms: C_7  and  N_8
REMARK    8  A    between atoms: N_8  and  C_25
REMARK    9  A    between atoms: C_9  and  C_11
REMARK   10  A    between atoms: C_11  and  N_12
REMARK   11  A    between atoms: C_13  and  C_15
REMARK                            x       y       z     vdW  Elec       q    Type
REMARK                         _______ _______ _______ _____ _____    ______ ____
ROOT
ATOM      1  C   UNL     1       3.890   4.397  19.055  0.00  0.00    +0.000 C 
ENDROOT
BRANCH   1   2
ATOM      2  N   UNL     1       3.239   5.674  19.088  0.00  0.00    +0.000 N 
ATOM      3  C   UNL     1       2.422   5.987  20.142  0.00  0.00    +0.000 C 
ATOM      4  O   UNL     1       2.200   5.193  21.089  0.00  0.00    +0.000 OA
ATOM      5  H   UNL     1       3.503   6.368  18.397  0.00  0.00    +0.000 HD
BRANCH   3   6
ATOM      6  C   UNL     1       1.851   7.296  20.116  0.00  0.00    +0.000 A 
ATOM      7  C   UNL     1       1.101   7.966  21.074  0.00  0.00    +0.000 A 
ATOM      8  C   UNL     1       0.745   9.235  20.559  0.00  0.00    +0.000 A 
ATOM      9  C   UNL     1      -0.011  10.312  21.055  0.00  0.00    +0.000 A 
ATOM     10  C   UNL     1      -0.188  11.441  20.248  0.00  0.00    +0.000 A 
ATOM     11 CL   UNL     1      -1.161  12.743  20.817  0.00  0.00    +0.000 Cl
ATOM     12  C   UNL     1       0.395  11.524  18.985  0.00  0.00    +0.000 A 
ATOM     13  C   UNL     1       1.166  10.471  18.482  0.00  0.00    +0.000 A 
ATOM     14  C   UNL     1       1.314   9.338  19.289  0.00  0.00    +0.000 A 
ATOM     15  N   UNL     1       1.985   8.161  19.053  0.00  0.00    +0.000 N 
ATOM     16  H   UNL     1       2.499   7.940  18.208  0.00  0.00    +0.000 HD
ENDBRANCH   3   6
ENDBRANCH   1   2
BRANCH   1  18
ATOM     17  N   UNL     1       5.685   4.616  17.229  0.00  0.00    +0.000 N 
ATOM     18  C   UNL     1       4.576   3.885  17.748  0.00  0.00    +0.000 C 
ATOM     19  O   UNL     1       4.100   2.893  17.216  0.00  0.00    +0.000 OA
BRANCH  17  20
ATOM     20  C   UNL     1       6.298   5.716  17.974  0.00  0.00    +0.000 C 
ATOM     21  C   UNL     1       7.683   5.452  18.573  0.00  0.00    +0.000 C 
ATOM     22  C   UNL     1       8.266   6.829  18.850  0.00  0.00    +0.000 C 
ATOM     23  C   UNL     1       7.630   7.753  17.818  0.00  0.00    +0.000 C 
ATOM     24  C   UNL     1       6.561   6.934  17.095  0.00  0.00    +0.000 C 
ENDBRANCH  17  20
BRANCH  17  25
ATOM     25  C   UNL     1       6.413   4.206  15.990  0.00  0.00    +0.000 C 
BRANCH  25  26
ATOM     26  C   UNL     1       5.849   4.722  14.693  0.00  0.00    +0.000 C 
BRANCH  26  27
ATOM     27  C   UNL     1       6.079   3.832  13.519  0.00  0.00    +0.000 C 
BRANCH  27  28
ATOM     28  O   UNL     1       4.824   3.565  12.908  0.00  0.00    +0.000 OA
BRANCH  28  30
ATOM     29  C   UNL     1       5.685   1.878  11.447  0.00  0.00    +0.000 C 
ATOM     30  C   UNL     1       4.990   3.226  11.539  0.00  0.00    +0.000 C 
ATOM     31  C   UNL     1       3.631   3.157  10.857  0.00  0.00    +0.000 C 
ENDBRANCH  28  30
ENDBRANCH  27  28
ENDBRANCH  26  27
ENDBRANCH  25  26
ENDBRANCH  17  25
ENDBRANCH   1  18
TORSDOF 9
ENDMDL
MODEL 4
REMARK VINA RESULT:      -7.4      5.637      7.979
REMARK  Name = 
REMARK  11 active torsions:
REMARK  status: ('A' for Active; 'I' for Inactive)
REMARK    1  A    between atoms: C_1  and  C_2
REMARK    2  A    between atoms: C_2  and  C_3
REMARK    3  A    between atoms: C_2  and  O_4
REMARK    4  A    between atoms: O_4  and  C_5
REMARK    5  A    between atoms: C_5  and  C_6
REMARK    6  A    between atoms: C_6  and  C_7
REMARK    7  A    between atoms: C_7  and  N_8
REMARK    8  A    between atoms: N_8  and  C_25
REMARK    9  A    between atoms: C_9  and  C_11
REMARK   10  A    between atoms: C_11  and  N_12
REMARK   11  A    between atoms: C_13  and  C_15
REMARK                            x       y       z     vdW  Elec       q    Type
REMARK                         _______ _______ _______ _____ _____    ______ ____
ROOT
ATOM      1  C   UNL     1       2.796   7.539  18.164  0.00  0.00    +0.000 C 
ENDROOT
BRANCH   1   2
ATOM      2  N   UNL     1       1.517   8.179  18.268  0.00  0.00    +0.000 N 
ATOM      3  C   UNL     1       1.425   9.534  18.090  0.00  0.00    +0.000 C 
ATOM      4  O   UNL     1       2.422  10.258  17.849  0.00  0.00    +0.000 OA
ATOM      5  H   UNL     1       0.691   7.596  18.342  0.00  0.00    +0.000 HD
BRANCH   3   6
ATOM      6  C   UNL     1       0.107  10.081  18.168  0.00  0.00    +0.000 A 
ATOM      7  C   UNL     1      -0.442  10.967  19.084  0.00  0.00    +0.000 A 
ATOM      8  C   UNL     1      -1.799  11.182  18.744  0.00  0.00    +0.000 A 
ATOM      9  C   UNL     1      -2.838  11.942  19.309  0.00  0.00    +0.000 A 
ATOM     10  C   UNL     1      -4.102  11.908  18.710  0.00  0.00    +0.000 A 
ATOM     11 CL   UNL     1      -5.400  12.786  19.425  0.00  0.00    +0.000 Cl
ATOM     12  C   UNL     1      -4.334  11.163  17.556  0.00  0.00    +0.000 A 
ATOM     13  C   UNL     1      -3.308  10.416  16.968  0.00  0.00    +0.000 A 
ATOM     14  C   UNL     1      -2.056  10.439  17.591  0.00  0.00    +0.000 A 
ATOM     15  N   UNL     1      -0.887   9.796  17.259  0.00  0.00    +0.000 N 
ATOM     16  H   UNL     1      -0.764   9.178  16.465  0.00  0.00    +0.000 HD
ENDBRANCH   3   6
ENDBRANCH   1   2
BRANCH   1  18
ATOM     17  N   UNL     1       4.195   5.420  17.769  0.00  0.00    +0.000 N 
ATOM     18  C   UNL     1       2.901   6.017  17.828  0.00  0.00    +0.000 C 
ATOM     19  O   UNL     1       1.860   5.419  17.599  0.00  0.00    +0.000 OA
BRANCH  17  20
ATOM     20  C   UNL     1       5.397   6.146  18.180  0.00  0.00    +0.000 C 
ATOM     21  C   UNL     1       6.462   5.340  18.931  0.00  0.00    +0.000 C 
ATOM     22  C   UNL     1       7.738   6.159  18.812  0.00  0.00    +0.000 C 
ATOM     23  C   UNL     1       7.606   6.927  17.501  0.00  0.00    +0.000 C 
ATOM     24  C   UNL     1       6.186   6.681  16.990  0.00  0.00    +0.000 C 
ENDBRANCH  17  20
BRANCH  17  25
ATOM     25  C   UNL     1       4.403   3.972  17.462  0.00  0.00    +0.000 C 
BRANCH  25  26
ATOM     26  C   UNL     1       3.453   3.014  18.130  0.00  0.00    +0.000 C 
BRANCH  26  27
ATOM     27  C   UNL     1       3.945   2.451  19.420  0.00  0.00    +0.000 C 
BRANCH  27  28
ATOM     28  O   UNL     1       3.615   3.362  20.459  0.00  0.00    +0.000 OA
BRANCH  28  30
ATOM     29  C   UNL     1       1.712   2.531  21.646  0.00  0.00    +0.000 C 
ATOM     30  C   UNL     1       2.207   3.499  20.584  0.00  0.00    +0.000 C 
ATOM     31  C   UNL     1       1.860   4.927  20.980  0.00  0.00    +0.000 C 
ENDBRANCH  28  30
ENDBRANCH  27  28
ENDBRANCH  26  27
ENDBRANCH  25  26
ENDBRANCH  17  25
ENDBRANCH   1  18
TORSDOF 9
ENDMDL
MODEL 5
REMARK VINA RESULT:      -7.4      5.200      7.192
REMARK  Name = 
REMARK  11 active torsions:
REMARK  status: ('A' for Active; 'I' for Inactive)
REMARK    1  A    between atoms: C_1  and  C_2
REMARK    2  A    between atoms: C_2  and  C_3
REMARK    3  A    between atoms: C_2  and  O_4
REMARK    4  A    between atoms: O_4  and  C_5
REMARK    5  A    between atoms: C_5  and  C_6
REMARK    6  A    between atoms: C_6  and  C_7
REMARK    7  A    between atoms: C_7  and  N_8
REMARK    8  A    between atoms: N_8  and  C_25
REMARK    9  A    between atoms: C_9  and  C_11
REMARK   10  A    between atoms: C_11  and  N_12
REMARK   11  A    between atoms: C_13  and  C_15
REMARK                            x       y       z     vdW  Elec       q    Type
REMARK                         _______ _______ _______ _____ _____    ______ ____
ROOT
ATOM      1  C   UNL     1       3.133   7.295  18.101  0.00  0.00    +0.000 C 
ENDROOT
BRANCH   1   2
ATOM      2  N   UNL     1       2.225   8.068  18.898  0.00  0.00    +0.000 N 
ATOM      3  C   UNL     1       1.790   9.282  18.438  0.00  0.00    +0.000 C 
ATOM      4  O   UNL     1       2.162   9.767  17.341  0.00  0.00    +0.000 OA
ATOM      5  H   UNL     1       1.824   7.638  19.725  0.00  0.00    +0.000 HD
BRANCH   3   6
ATOM      6  C   UNL     1       0.853   9.963  19.275  0.00  0.00    +0.000 A 
ATOM      7  C   UNL     1       0.688   9.921  20.653  0.00  0.00    +0.000 A 
ATOM      8  C   UNL     1      -0.400  10.758  21.000  0.00  0.00    +0.000 A 
ATOM      9  C   UNL     1      -1.030  11.085  22.214  0.00  0.00    +0.000 A 
ATOM     10  C   UNL     1      -2.125  11.954  22.192  0.00  0.00    +0.000 A 
ATOM     11 CL   UNL     1      -2.946  12.316  23.663  0.00  0.00    +0.000 Cl
ATOM     12  C   UNL     1      -2.575  12.520  21.001  0.00  0.00    +0.000 A 
ATOM     13  C   UNL     1      -1.949  12.222  19.787  0.00  0.00    +0.000 A 
ATOM     14  C   UNL     1      -0.871  11.331  19.819  0.00  0.00    +0.000 A 
ATOM     15  N   UNL     1      -0.089  10.845  18.797  0.00  0.00    +0.000 N 
ATOM     16  H   UNL     1      -0.194  11.081  17.817  0.00  0.00    +0.000 HD
ENDBRANCH   3   6
ENDBRANCH   1   2
BRANCH   1  18
ATOM     17  N   UNL     1       3.919   4.931  17.469  0.00  0.00    +0.000 N 
ATOM     18  C   UNL     1       2.827   5.800  17.766  0.00  0.00    +0.000 C 
ATOM     19  O   UNL     1       1.654   5.458  17.746  0.00  0.00    +0.000 OA
BRANCH  17  20
ATOM     20  C   UNL     1       5.309   5.356  17.638  0.00  0.00    +0.000 C 
ATOM     21  C   UNL     1       5.873   5.308  19.060  0.00  0.00    +0.000 C 
ATOM     22  C   UNL     1       7.385   5.324  18.890  0.00  0.00    +0.000 C 
ATOM     23  C   UNL     1       7.647   4.670  17.538  0.00  0.00    +0.000 C 
ATOM     24  C   UNL     1       6.283   4.461  16.880  0.00  0.00    +0.000 C 
ENDBRANCH  17  20
BRANCH  17  25
ATOM     25  C   UNL     1       3.733   3.485  17.143  0.00  0.00    +0.000 C 
BRANCH  25  26
ATOM     26  C   UNL     1       2.660   2.767  17.918  0.00  0.00    +0.000 C 
BRANCH  26  27
ATOM     27  C   UNL     1       3.158   1.984  19.086  0.00  0.00    +0.000 C 
BRANCH  27  28
ATOM     28  O   UNL     1       3.320   2.873  20.182  0.00  0.00    +0.000 OA
BRANCH  28  30
ATOM     29  C   UNL     1       1.518   2.508  21.713  0.00  0.00    +0.000 C 
ATOM     30  C   UNL     1       2.067   3.391  20.604  0.00  0.00    +0.000 C 
ATOM     31  C   UNL     1       2.240   4.815  21.112  0.00  0.00    +0.000 C 
ENDBRANCH  28  30
ENDBRANCH  27  28
ENDBRANCH  26  27
ENDBRANCH  25  26
ENDBRANCH  17  25
ENDBRANCH   1  18
TORSDOF 9
ENDMDL
MODEL 6
REMARK VINA RESULT:      -7.4      0.980      1.191
REMARK  Name = 
REMARK  11 active torsions:
REMARK  status: ('A' for Active; 'I' for Inactive)
REMARK    1  A    between atoms: C_1  and  C_2
REMARK    2  A    between atoms: C_2  and  C_3
REMARK    3  A    between atoms: C_2  and  O_4
REMARK    4  A    between atoms: O_4  and  C_5
REMARK    5  A    between atoms: C_5  and  C_6
REMARK    6  A    between atoms: C_6  and  C_7
REMARK    7  A    between atoms: C_7  and  N_8
REMARK    8  A    between atoms: N_8  and  C_25
REMARK    9  A    between atoms: C_9  and  C_11
REMARK   10  A    between atoms: C_11  and  N_12
REMARK   11  A    between atoms: C_13  and  C_15
REMARK                            x       y       z     vdW  Elec       q    Type
REMARK                         _______ _______ _______ _____ _____    ______ ____
ROOT
ATOM      1  C   UNL     1       8.251   6.279  18.494  0.00  0.00    +0.000 C 
ENDROOT
BRANCH   1   2
ATOM      2  N   UNL     1       8.633   7.597  18.910  0.00  0.00    +0.000 N 
ATOM      3  C   UNL     1       8.367   8.666  18.096  0.00  0.00    +0.000 C 
ATOM      4  O   UNL     1       7.807   8.546  16.979  0.00  0.00    +0.000 OA
ATOM      5  H   UNL     1       8.975   7.723  19.857  0.00  0.00    +0.000 HD
BRANCH   3   6
ATOM      6  C   UNL     1       8.742   9.945  18.610  0.00  0.00    +0.000 A 
ATOM      7  C   UNL     1       8.760  11.188  17.992  0.00  0.00    +0.000 A 
ATOM      8  C   UNL     1       9.240  12.144  18.920  0.00  0.00    +0.000 A 
ATOM      9  C   UNL     1       9.491  13.526  18.855  0.00  0.00    +0.000 A 
ATOM     10  C   UNL     1       9.998  14.173  19.986  0.00  0.00    +0.000 A 
ATOM     11 CL   UNL     1      10.368  15.853  19.903  0.00  0.00    +0.000 Cl
ATOM     12  C   UNL     1      10.228  13.480  21.173  0.00  0.00    +0.000 A 
ATOM     13  C   UNL     1       9.965  12.109  21.263  0.00  0.00    +0.000 A 
ATOM     14  C   UNL     1       9.482  11.469  20.117  0.00  0.00    +0.000 A 
ATOM     15  N   UNL     1       9.161  10.149  19.906  0.00  0.00    +0.000 N 
ATOM     16  H   UNL     1       9.236   9.411  20.596  0.00  0.00    +0.000 HD
ENDBRANCH   3   6
ENDBRANCH   1   2
BRANCH   1  18
ATOM     17  N   UNL     1       5.970   5.095  18.459  0.00  0.00    +0.000 N 
ATOM     18  C   UNL     1       7.100   5.515  19.222  0.00  0.00    +0.000 C 
ATOM     19  O   UNL     1       7.215   5.342  20.427  0.00  0.00    +0.000 OA
BRANCH  17  20
ATOM     20  C   UNL     1       5.942   5.208  17.001  0.00  0.00    +0.000 C 
ATOM     21  C   UNL     1       7.167   4.681  16.248  0.00  0.00    +0.000 C 
ATOM     22  C   UNL     1       6.696   4.476  14.816  0.00  0.00    +0.000 C 
ATOM     23  C   UNL     1       5.206   4.173  14.918  0.00  0.00    +0.000 C 
ATOM     24  C   UNL     1       4.813   4.392  16.380  0.00  0.00    +0.000 C 
ENDBRANCH  17  20
BRANCH  17  25
ATOM     25  C   UNL     1       4.821   4.353  19.060  0.00  0.00    +0.000 C 
BRANCH  25  26
ATOM     26  C   UNL     1       3.745   5.199  19.687  0.00  0.00    +0.000 C 
BRANCH  26  27
ATOM     27  C   UNL     1       2.666   4.426  20.368  0.00  0.00    +0.000 C 
BRANCH  27  28
ATOM     28  O   UNL     1       2.955   3.042  20.232  0.00  0.00    +0.000 OA
BRANCH  28  30
ATOM     29  C   UNL     1       0.584   3.149  19.930  0.00  0.00    +0.000 C 
ATOM     30  C   UNL     1       1.849   2.347  19.675  0.00  0.00    +0.000 C 
ATOM     31  C   UNL     1       2.055   2.163  18.178  0.00  0.00    +0.000 C 
ENDBRANCH  28  30
ENDBRANCH  27  28
ENDBRANCH  26  27
ENDBRANCH  25  26
ENDBRANCH  17  25
ENDBRANCH   1  18
TORSDOF 9
ENDMDL
MODEL 7
REMARK VINA RESULT:      -7.3      0.959      1.373
REMARK  Name = 
REMARK  11 active torsions:
REMARK  status: ('A' for Active; 'I' for Inactive)
REMARK    1  A    between atoms: C_1  and  C_2
REMARK    2  A    between atoms: C_2  and  C_3
REMARK    3  A    between atoms: C_2  and  O_4
REMARK    4  A    between atoms: O_4  and  C_5
REMARK    5  A    between atoms: C_5  and  C_6
REMARK    6  A    between atoms: C_6  and  C_7
REMARK    7  A    between atoms: C_7  and  N_8
REMARK    8  A    between atoms: N_8  and  C_25
REMARK    9  A    between atoms: C_9  and  C_11
REMARK   10  A    between atoms: C_11  and  N_12
REMARK   11  A    between atoms: C_13  and  C_15
REMARK                            x       y       z     vdW  Elec       q    Type
REMARK                         _______ _______ _______ _____ _____    ______ ____
ROOT
ATOM      1  C   UNL     1       8.209   6.221  18.429  0.00  0.00    +0.000 C 
ENDROOT
BRANCH   1   2
ATOM      2  N   UNL     1       8.584   7.523  18.898  0.00  0.00    +0.000 N 
ATOM      3  C   UNL     1       8.372   8.614  18.099  0.00  0.00    +0.000 C 
ATOM      4  O   UNL     1       7.868   8.529  16.951  0.00  0.00    +0.000 OA
ATOM      5  H   UNL     1       8.879   7.621  19.864  0.00  0.00    +0.000 HD
BRANCH   3   6
ATOM      6  C   UNL     1       8.735   9.876  18.662  0.00  0.00    +0.000 A 
ATOM      7  C   UNL     1       9.184  10.191  19.937  0.00  0.00    +0.000 A 
ATOM      8  C   UNL     1       9.383  11.591  20.010  0.00  0.00    +0.000 A 
ATOM      9  C   UNL     1       9.796  12.466  21.031  0.00  0.00    +0.000 A 
ATOM     10  C   UNL     1       9.864  13.836  20.758  0.00  0.00    +0.000 A 
ATOM     11 CL   UNL     1      10.310  14.926  22.015  0.00  0.00    +0.000 Cl
ATOM     12  C   UNL     1       9.560  14.337  19.494  0.00  0.00    +0.000 A 
ATOM     13  C   UNL     1       9.166  13.480  18.461  0.00  0.00    +0.000 A 
ATOM     14  C   UNL     1       9.078  12.115  18.754  0.00  0.00    +0.000 A 
ATOM     15  N   UNL     1       8.703  11.058  17.958  0.00  0.00    +0.000 N 
ATOM     16  H   UNL     1       8.421  11.128  16.987  0.00  0.00    +0.000 HD
ENDBRANCH   3   6
ENDBRANCH   1   2
BRANCH   1  18
ATOM     17  N   UNL     1       6.020   4.903  18.147  0.00  0.00    +0.000 N 
ATOM     18  C   UNL     1       6.976   5.479  19.036  0.00  0.00    +0.000 C 
ATOM     19  O   UNL     1       6.877   5.458  20.255  0.00  0.00    +0.000 OA
BRANCH  17  20
ATOM     20  C   UNL     1       6.253   4.840  16.704  0.00  0.00    +0.000 C 
ATOM     21  C   UNL     1       5.716   3.604  15.976  0.00  0.00    +0.000 C 
ATOM     22  C   UNL     1       5.658   4.000  14.508  0.00  0.00    +0.000 C 
ATOM     23  C   UNL     1       5.438   5.509  14.505  0.00  0.00    +0.000 C 
ATOM     24  C   UNL     1       5.561   5.974  15.956  0.00  0.00    +0.000 C 
ENDBRANCH  17  20
BRANCH  17  25
ATOM     25  C   UNL     1       4.811   4.169  18.627  0.00  0.00    +0.000 C 
BRANCH  25  26
ATOM     26  C   UNL     1       3.525   4.951  18.636  0.00  0.00    +0.000 C 
BRANCH  26  27
ATOM     27  C   UNL     1       2.950   5.184  19.992  0.00  0.00    +0.000 C 
BRANCH  27  28
ATOM     28  O   UNL     1       1.645   4.622  20.026  0.00  0.00    +0.000 OA
BRANCH  28  30
ATOM     29  C   UNL     1       1.385   2.751  21.495  0.00  0.00    +0.000 C 
ATOM     30  C   UNL     1       1.707   3.204  20.080  0.00  0.00    +0.000 C 
ATOM     31  C   UNL     1       0.705   2.606  19.103  0.00  0.00    +0.000 C 
ENDBRANCH  28  30
ENDBRANCH  27  28
ENDBRANCH  26  27
ENDBRANCH  25  26
ENDBRANCH  17  25
ENDBRANCH   1  18
TORSDOF 9
ENDMDL
MODEL 8
REMARK VINA RESULT:      -7.3      6.217      8.928
REMARK  Name = 
REMARK  11 active torsions:
REMARK  status: ('A' for Active; 'I' for Inactive)
REMARK    1  A    between atoms: C_1  and  C_2
REMARK    2  A    between atoms: C_2  and  C_3
REMARK    3  A    between atoms: C_2  and  O_4
REMARK    4  A    between atoms: O_4  and  C_5
REMARK    5  A    between atoms: C_5  and  C_6
REMARK    6  A    between atoms: C_6  and  C_7
REMARK    7  A    between atoms: C_7  and  N_8
REMARK    8  A    between atoms: N_8  and  C_25
REMARK    9  A    between atoms: C_9  and  C_11
REMARK   10  A    between atoms: C_11  and  N_12
REMARK   11  A    between atoms: C_13  and  C_15
REMARK                            x       y       z     vdW  Elec       q    Type
REMARK                         _______ _______ _______ _____ _____    ______ ____
ROOT
ATOM      1  C   UNL     1       1.955   7.790  20.652  0.00  0.00    +0.000 C 
ENDROOT
BRANCH   1   2
ATOM      2  N   UNL     1       0.890   8.732  20.837  0.00  0.00    +0.000 N 
ATOM      3  C   UNL     1       0.851   9.490  21.977  0.00  0.00    +0.000 C 
ATOM      4  O   UNL     1       1.707   9.390  22.890  0.00  0.00    +0.000 OA
ATOM      5  H   UNL     1       0.263   8.910  20.059  0.00  0.00    +0.000 HD
BRANCH   3   6
ATOM      6  C   UNL     1      -0.219  10.434  22.058  0.00  0.00    +0.000 A 
ATOM      7  C   UNL     1      -1.054  10.751  23.120  0.00  0.00    +0.000 A 
ATOM      8  C   UNL     1      -1.976  11.736  22.687  0.00  0.00    +0.000 A 
ATOM      9  C   UNL     1      -3.048  12.406  23.303  0.00  0.00    +0.000 A 
ATOM     10  C   UNL     1      -3.784  13.331  22.555  0.00  0.00    +0.000 A 
ATOM     11 CL   UNL     1      -5.137  14.115  23.276  0.00  0.00    +0.000 Cl
ATOM     12  C   UNL     1      -3.454  13.616  21.232  0.00  0.00    +0.000 A 
ATOM     13  C   UNL     1      -2.379  12.974  20.608  0.00  0.00    +0.000 A 
ATOM     14  C   UNL     1      -1.666  12.033  21.359  0.00  0.00    +0.000 A 
ATOM     15  N   UNL     1      -0.596  11.244  21.010  0.00  0.00    +0.000 N 
ATOM     16  H   UNL     1      -0.147  11.236  20.102  0.00  0.00    +0.000 HD
ENDBRANCH   3   6
ENDBRANCH   1   2
BRANCH   1  18
ATOM     17  N   UNL     1       2.453   5.769  19.145  0.00  0.00    +0.000 N 
ATOM     18  C   UNL     1       2.241   7.176  19.244  0.00  0.00    +0.000 C 
ATOM     19  O   UNL     1       2.299   7.946  18.297  0.00  0.00    +0.000 OA
BRANCH  17  20
ATOM     20  C   UNL     1       2.241   4.876  20.284  0.00  0.00    +0.000 C 
ATOM     21  C   UNL     1       0.953   4.047  20.276  0.00  0.00    +0.000 C 
ATOM     22  C   UNL     1       1.202   2.913  21.259  0.00  0.00    +0.000 C 
ATOM     23  C   UNL     1       2.708   2.677  21.230  0.00  0.00    +0.000 C 
ATOM     24  C   UNL     1       3.312   3.795  20.380  0.00  0.00    +0.000 C 
ENDBRANCH  17  20
BRANCH  17  25
ATOM     25  C   UNL     1       2.728   5.084  17.845  0.00  0.00    +0.000 C 
BRANCH  25  26
ATOM     26  C   UNL     1       3.982   5.508  17.129  0.00  0.00    +0.000 C 
BRANCH  26  27
ATOM     27  C   UNL     1       5.237   4.909  17.667  0.00  0.00    +0.000 C 
BRANCH  27  28
ATOM     28  O   UNL     1       5.883   5.880  18.479  0.00  0.00    +0.000 OA
BRANCH  28  30
ATOM     29  C   UNL     1       7.559   7.340  17.596  0.00  0.00    +0.000 C 
ATOM     30  C   UNL     1       7.265   5.963  18.166  0.00  0.00    +0.000 C 
ATOM     31  C   UNL     1       8.094   5.733  19.422  0.00  0.00    +0.000 C 
ENDBRANCH  28  30
ENDBRANCH  27  28
ENDBRANCH  26  27
ENDBRANCH  25  26
ENDBRANCH  17  25
ENDBRANCH   1  18
TORSDOF 9
ENDMDL
MODEL 9
REMARK VINA RESULT:      -7.3      5.789      8.743
REMARK  Name = 
REMARK  11 active torsions:
REMARK  status: ('A' for Active; 'I' for Inactive)
REMARK    1  A    between atoms: C_1  and  C_2
REMARK    2  A    between atoms: C_2  and  C_3
REMARK    3  A    between atoms: C_2  and  O_4
REMARK    4  A    between atoms: O_4  and  C_5
REMARK    5  A    between atoms: C_5  and  C_6
REMARK    6  A    between atoms: C_6  and  C_7
REMARK    7  A    between atoms: C_7  and  N_8
REMARK    8  A    between atoms: N_8  and  C_25
REMARK    9  A    between atoms: C_9  and  C_11
REMARK   10  A    between atoms: C_11  and  N_12
REMARK   11  A    between atoms: C_13  and  C_15
REMARK                            x       y       z     vdW  Elec       q    Type
REMARK                         _______ _______ _______ _____ _____    ______ ____
ROOT
ATOM      1  C   UNL     1       2.596   7.690  19.245  0.00  0.00    +0.000 C 
ENDROOT
BRANCH   1   2
ATOM      2  N   UNL     1       1.337   8.372  19.169  0.00  0.00    +0.000 N 
ATOM      3  C   UNL     1       1.207   9.457  18.343  0.00  0.00    +0.000 C 
ATOM      4  O   UNL     1       2.155   9.901  17.649  0.00  0.00    +0.000 OA
ATOM      5  H   UNL     1       0.535   7.955  19.628  0.00  0.00    +0.000 HD
BRANCH   3   6
ATOM      6  C   UNL     1      -0.093  10.048  18.296  0.00  0.00    +0.000 A 
ATOM      7  C   UNL     1      -0.741  10.861  19.215  0.00  0.00    +0.000 A 
ATOM      8  C   UNL     1      -2.031  11.164  18.715  0.00  0.00    +0.000 A 
ATOM      9  C   UNL     1      -3.119  11.908  19.208  0.00  0.00    +0.000 A 
ATOM     10  C   UNL     1      -4.286  11.984  18.441  0.00  0.00    +0.000 A 
ATOM     11 CL   UNL     1      -5.647  12.840  19.058  0.00  0.00    +0.000 Cl
ATOM     12  C   UNL     1      -4.374  11.366  17.195  0.00  0.00    +0.000 A 
ATOM     13  C   UNL     1      -3.296  10.639  16.680  0.00  0.00    +0.000 A 
ATOM     14  C   UNL     1      -2.144  10.549  17.468  0.00  0.00    +0.000 A 
ATOM     15  N   UNL     1      -0.957   9.894  17.234  0.00  0.00    +0.000 N 
ATOM     16  H   UNL     1      -0.741   9.353  16.406  0.00  0.00    +0.000 HD
ENDBRANCH   3   6
ENDBRANCH   1   2
BRANCH   1  18
ATOM     17  N   UNL     1       2.760   5.310  18.290  0.00  0.00    +0.000 N 
ATOM     18  C   UNL     1       3.037   6.699  18.121  0.00  0.00    +0.000 C 
ATOM     19  O   UNL     1       3.629   7.168  17.160  0.00  0.00    +0.000 OA
BRANCH  17  20
ATOM     20  C   UNL     1       1.933   4.819  19.391  0.00  0.00    +0.000 C 
ATOM     21  C   UNL     1       1.260   3.458  19.190  0.00  0.00    +0.000 C 
ATOM     22  C   UNL     1       0.888   2.986  20.588  0.00  0.00    +0.000 C 
ATOM     23  C   UNL     1       1.918   3.620  21.516  0.00  0.00    +0.000 C 
ATOM     24  C   UNL     1       2.741   4.587  20.663  0.00  0.00    +0.000 C 
ENDBRANCH  17  20
BRANCH  17  25
ATOM     25  C   UNL     1       3.135   4.284  17.271  0.00  0.00    +0.000 C 
BRANCH  25  26
ATOM     26  C   UNL     1       4.583   3.872  17.251  0.00  0.00    +0.000 C 
BRANCH  26  27
ATOM     27  C   UNL     1       5.303   4.074  18.542  0.00  0.00    +0.000 C 
BRANCH  27  28
ATOM     28  O   UNL     1       6.653   4.408  18.252  0.00  0.00    +0.000 OA
BRANCH  28  30
ATOM     29  C   UNL     1       8.080   5.851  19.518  0.00  0.00    +0.000 C 
ATOM     30  C   UNL     1       6.911   5.772  18.550  0.00  0.00    +0.000 C 
ATOM     31  C   UNL     1       7.245   6.526  17.271  0.00  0.00    +0.000 C 
ENDBRANCH  28  30
ENDBRANCH  27  28
ENDBRANCH  26  27
ENDBRANCH  25  26
ENDBRANCH  17  25
ENDBRANCH   1  18
TORSDOF 9
ENDMDL
