MODEL 1
REMARK VINA RESULT:      -8.6      0.000      0.000
REMARK  Name = 
REMARK  7 active torsions:
REMARK  status: ('A' for Active; 'I' for Inactive)
REMARK    1  A    between atoms: C_1  and  O_2
REMARK    2  A    between atoms: O_2  and  C_3
REMARK    3  A    between atoms: C_8  and  C_9
REMARK    4  A    between atoms: N_11  and  N_12
REMARK    5  A    between atoms: C_13  and  C_15
REMARK    6  A    between atoms: C_15  and  O_16
REMARK    7  A    between atoms: O_16  and  C_17
REMARK                            x       y       z     vdW  Elec       q    Type
REMARK                         _______ _______ _______ _____ _____    ______ ____
ROOT
ATOM      1  N   UNL     1       7.753   8.441  17.532  0.00  0.00    +0.000 N 
ATOM      2  C   UNL     1       7.496   7.138  17.921  0.00  0.00    +0.000 C 
ATOM      3  O   UNL     1       8.085   6.590  18.853  0.00  0.00    +0.000 OA
ATOM      4  H   UNL     1       7.458   8.804  16.626  0.00  0.00    +0.000 HD
ENDROOT
BRANCH   1   7
ATOM      5  C   UNL     1       8.813  10.525  18.047  0.00  0.00    +0.000 C 
ATOM      6  O   UNL     1       7.954  11.121  17.395  0.00  0.00    +0.000 OA
ATOM      7  N   UNL     1       8.790   9.150  18.162  0.00  0.00    +0.000 N 
ATOM      8  H   UNL     1       9.486   8.623  18.692  0.00  0.00    +0.000 HD
BRANCH   5  14
ATOM      9  C   UNL     1      10.003  11.515  20.118  0.00  0.00    +0.000 A 
ATOM     10  C   UNL     1      11.078  12.273  20.618  0.00  0.00    +0.000 A 
ATOM     11  C   UNL     1      12.069  12.771  19.768  0.00  0.00    +0.000 A 
ATOM     12  C   UNL     1      11.994  12.529  18.403  0.00  0.00    +0.000 A 
ATOM     13  C   UNL     1      10.923  11.795  17.891  0.00  0.00    +0.000 A 
ATOM     14  C   UNL     1       9.916  11.286  18.731  0.00  0.00    +0.000 A 
BRANCH   9  16
ATOM     15  C   UNL     1       8.637  11.834  22.042  0.00  0.00    +0.000 C 
ATOM     16  O   UNL     1       9.010  11.022  20.929  0.00  0.00    +0.000 OA
ENDBRANCH   9  16
ENDBRANCH   5  14
ENDBRANCH   1   7
BRANCH   2  17
ATOM     17  C   UNL     1       6.359   6.465  17.143  0.00  0.00    +0.000 C 
BRANCH  17  18
ATOM     18  O   UNL     1       6.275   5.079  17.450  0.00  0.00    +0.000 OA
BRANCH  18  19
ATOM     19  C   UNL     1       5.045   4.592  17.813  0.00  0.00    +0.000 A 
ATOM     20  C   UNL     1       4.401   3.844  16.828  0.00  0.00    +0.000 A 
ATOM     21  C   UNL     1       3.152   3.264  17.069  0.00  0.00    +0.000 A 
ATOM     22  C   UNL     1       2.510   3.431  18.304  0.00  0.00    +0.000 A 
ATOM     23  C   UNL     1       1.276   2.819  18.575  0.00  0.00    +0.000 A 
ATOM     24  C   UNL     1       0.640   3.009  19.804  0.00  0.00    +0.000 A 
ATOM     25  C   UNL     1       1.216   3.838  20.761  0.00  0.00    +0.000 A 
ATOM     26  C   UNL     1       2.448   4.446  20.508  0.00  0.00    +0.000 A 
ATOM     27  C   UNL     1       3.126   4.234  19.291  0.00  0.00    +0.000 A 
ATOM     28  C   UNL     1       4.399   4.796  19.036  0.00  0.00    +0.000 A 
ENDBRANCH  18  19
ENDBRANCH  17  18
ENDBRANCH   2  17
TORSDOF 6
ENDMDL
MODEL 2
REMARK VINA RESULT:      -8.5      0.511      1.383
REMARK  Name = 
REMARK  7 active torsions:
REMARK  status: ('A' for Active; 'I' for Inactive)
REMARK    1  A    between atoms: C_1  and  O_2
REMARK    2  A    between atoms: O_2  and  C_3
REMARK    3  A    between atoms: C_8  and  C_9
REMARK    4  A    between atoms: N_11  and  N_12
REMARK    5  A    between atoms: C_13  and  C_15
REMARK    6  A    between atoms: C_15  and  O_16
REMARK    7  A    between atoms: O_16  and  C_17
REMARK                            x       y       z     vdW  Elec       q    Type
REMARK                         _______ _______ _______ _____ _____    ______ ____
ROOT
ATOM      1  N   UNL     1       7.518   8.637  17.550  0.00  0.00    +0.000 N 
ATOM      2  C   UNL     1       7.349   7.270  17.685  0.00  0.00    +0.000 C 
ATOM      3  O   UNL     1       8.078   6.573  18.391  0.00  0.00    +0.000 OA
ATOM      4  H   UNL     1       7.088   9.164  16.790  0.00  0.00    +0.000 HD
ENDROOT
BRANCH   1   7
ATOM      5  C   UNL     1       8.786  10.615  18.012  0.00  0.00    +0.000 C 
ATOM      6  O   UNL     1       7.999  11.276  17.333  0.00  0.00    +0.000 OA
ATOM      7  N   UNL     1       8.620   9.254  18.168  0.00  0.00    +0.000 N 
ATOM      8  H   UNL     1       9.253   8.674  18.721  0.00  0.00    +0.000 HD
BRANCH   5  14
ATOM      9  C   UNL     1      10.118  11.424  20.075  0.00  0.00    +0.000 A 
ATOM     10  C   UNL     1      11.253  12.097  20.565  0.00  0.00    +0.000 A 
ATOM     11  C   UNL     1      12.232  12.588  19.697  0.00  0.00    +0.000 A 
ATOM     12  C   UNL     1      12.085  12.427  18.327  0.00  0.00    +0.000 A 
ATOM     13  C   UNL     1      10.953  11.779  17.826  0.00  0.00    +0.000 A 
ATOM     14  C   UNL     1       9.958  11.278  18.683  0.00  0.00    +0.000 A 
BRANCH   9  16
ATOM     15  C   UNL     1       8.715  11.799  21.963  0.00  0.00    +0.000 C 
ATOM     16  O   UNL     1       9.135  10.940  20.903  0.00  0.00    +0.000 OA
ENDBRANCH   9  16
ENDBRANCH   5  14
ENDBRANCH   1   7
BRANCH   2  17
ATOM     17  C   UNL     1       6.127   6.714  16.945  0.00  0.00    +0.000 C 
BRANCH  17  18
ATOM     18  O   UNL     1       5.968   5.322  17.187  0.00  0.00    +0.000 OA
BRANCH  18  19
ATOM     19  C   UNL     1       4.848   4.931  17.875  0.00  0.00    +0.000 A 
ATOM     20  C   UNL     1       4.593   5.660  19.036  0.00  0.00    +0.000 A 
ATOM     21  C   UNL     1       3.470   5.388  19.823  0.00  0.00    +0.000 A 
ATOM     22  C   UNL     1       2.580   4.364  19.471  0.00  0.00    +0.000 A 
ATOM     23  C   UNL     1       1.425   4.107  20.228  0.00  0.00    +0.000 A 
ATOM     24  C   UNL     1       0.555   3.073  19.875  0.00  0.00    +0.000 A 
ATOM     25  C   UNL     1       0.848   2.265  18.781  0.00  0.00    +0.000 A 
ATOM     26  C   UNL     1       1.989   2.516  18.013  0.00  0.00    +0.000 A 
ATOM     27  C   UNL     1       2.856   3.580  18.327  0.00  0.00    +0.000 A 
ATOM     28  C   UNL     1       3.986   3.884  17.533  0.00  0.00    +0.000 A 
ENDBRANCH  18  19
ENDBRANCH  17  18
ENDBRANCH   2  17
TORSDOF 6
ENDMDL
MODEL 3
REMARK VINA RESULT:      -8.1      1.597      1.819
REMARK  Name = 
REMARK  7 active torsions:
REMARK  status: ('A' for Active; 'I' for Inactive)
REMARK    1  A    between atoms: C_1  and  O_2
REMARK    2  A    between atoms: O_2  and  C_3
REMARK    3  A    between atoms: C_8  and  C_9
REMARK    4  A    between atoms: N_11  and  N_12
REMARK    5  A    between atoms: C_13  and  C_15
REMARK    6  A    between atoms: C_15  and  O_16
REMARK    7  A    between atoms: O_16  and  C_17
REMARK                            x       y       z     vdW  Elec       q    Type
REMARK                         _______ _______ _______ _____ _____    ______ ____
ROOT
ATOM      1  N   UNL     1       8.629   8.364  18.876  0.00  0.00    +0.000 N 
ATOM      2  C   UNL     1       7.916   7.487  18.079  0.00  0.00    +0.000 C 
ATOM      3  O   UNL     1       7.685   7.701  16.889  0.00  0.00    +0.000 OA
ATOM      4  H   UNL     1       8.606   8.313  19.895  0.00  0.00    +0.000 HD
ENDROOT
BRANCH   1   7
ATOM      5  C   UNL     1       9.408  10.604  19.209  0.00  0.00    +0.000 C 
ATOM      6  O   UNL     1       9.375  10.433  20.429  0.00  0.00    +0.000 OA
ATOM      7  N   UNL     1       9.035   9.599  18.340  0.00  0.00    +0.000 N 
ATOM      8  H   UNL     1       9.047   9.706  17.325  0.00  0.00    +0.000 HD
BRANCH   5  14
ATOM      9  C   UNL     1       9.357  13.182  19.020  0.00  0.00    +0.000 A 
ATOM     10  C   UNL     1       9.845  14.334  18.375  0.00  0.00    +0.000 A 
ATOM     11  C   UNL     1      10.831  14.247  17.388  0.00  0.00    +0.000 A 
ATOM     12  C   UNL     1      11.335  13.007  17.023  0.00  0.00    +0.000 A 
ATOM     13  C   UNL     1      10.846  11.854  17.641  0.00  0.00    +0.000 A 
ATOM     14  C   UNL     1       9.854  11.922  18.636  0.00  0.00    +0.000 A 
BRANCH   9  16
ATOM     15  C   UNL     1       8.725  13.907  21.199  0.00  0.00    +0.000 C 
ATOM     16  O   UNL     1       8.382  13.237  19.986  0.00  0.00    +0.000 OA
ENDBRANCH   9  16
ENDBRANCH   5  14
ENDBRANCH   1   7
BRANCH   2  17
ATOM     17  C   UNL     1       7.511   6.187  18.785  0.00  0.00    +0.000 C 
BRANCH  17  18
ATOM     18  O   UNL     1       6.823   5.313  17.901  0.00  0.00    +0.000 OA
BRANCH  18  19
ATOM     19  C   UNL     1       5.531   4.986  18.224  0.00  0.00    +0.000 A 
ATOM     20  C   UNL     1       4.557   5.711  17.537  0.00  0.00    +0.000 A 
ATOM     21  C   UNL     1       3.197   5.464  17.748  0.00  0.00    +0.000 A 
ATOM     22  C   UNL     1       2.779   4.489  18.664  0.00  0.00    +0.000 A 
ATOM     23  C   UNL     1       1.417   4.201  18.854  0.00  0.00    +0.000 A 
ATOM     24  C   UNL     1       1.014   3.239  19.784  0.00  0.00    +0.000 A 
ATOM     25  C   UNL     1       1.967   2.581  20.555  0.00  0.00    +0.000 A 
ATOM     26  C   UNL     1       3.325   2.851  20.370  0.00  0.00    +0.000 A 
ATOM     27  C   UNL     1       3.754   3.787  19.408  0.00  0.00    +0.000 A 
ATOM     28  C   UNL     1       5.125   4.037  19.167  0.00  0.00    +0.000 A 
ENDBRANCH  18  19
ENDBRANCH  17  18
ENDBRANCH   2  17
TORSDOF 6
ENDMDL
MODEL 4
REMARK VINA RESULT:      -8.1      1.011      1.875
REMARK  Name = 
REMARK  7 active torsions:
REMARK  status: ('A' for Active; 'I' for Inactive)
REMARK    1  A    between atoms: C_1  and  O_2
REMARK    2  A    between atoms: O_2  and  C_3
REMARK    3  A    between atoms: C_8  and  C_9
REMARK    4  A    between atoms: N_11  and  N_12
REMARK    5  A    between atoms: C_13  and  C_15
REMARK    6  A    between atoms: C_15  and  O_16
REMARK    7  A    between atoms: O_16  and  C_17
REMARK                            x       y       z     vdW  Elec       q    Type
REMARK                         _______ _______ _______ _____ _____    ______ ____
ROOT
ATOM      1  N   UNL     1       7.792   8.476  17.479  0.00  0.00    +0.000 N 
ATOM      2  C   UNL     1       7.636   7.149  17.841  0.00  0.00    +0.000 C 
ATOM      3  O   UNL     1       8.128   6.673  18.864  0.00  0.00    +0.000 OA
ATOM      4  H   UNL     1       7.606   8.805  16.532  0.00  0.00    +0.000 HD
ENDROOT
BRANCH   1   7
ATOM      5  C   UNL     1       8.518  10.671  18.103  0.00  0.00    +0.000 C 
ATOM      6  O   UNL     1       7.729  11.160  17.294  0.00  0.00    +0.000 OA
ATOM      7  N   UNL     1       8.622   9.303  18.256  0.00  0.00    +0.000 N 
ATOM      8  H   UNL     1       9.266   8.863  18.914  0.00  0.00    +0.000 HD
BRANCH   5  14
ATOM      9  C   UNL     1      10.253  12.558  18.443  0.00  0.00    +0.000 A 
ATOM     10  C   UNL     1      11.043  13.293  19.346  0.00  0.00    +0.000 A 
ATOM     11  C   UNL     1      10.968  13.067  20.723  0.00  0.00    +0.000 A 
ATOM     12  C   UNL     1      10.109  12.095  21.218  0.00  0.00    +0.000 A 
ATOM     13  C   UNL     1       9.333  11.344  20.332  0.00  0.00    +0.000 A 
ATOM     14  C   UNL     1       9.397  11.557  18.943  0.00  0.00    +0.000 A 
BRANCH   9  16
ATOM     15  C   UNL     1      11.498  13.371  16.584  0.00  0.00    +0.000 C 
ATOM     16  O   UNL     1      10.314  12.751  17.085  0.00  0.00    +0.000 OA
ENDBRANCH   9  16
ENDBRANCH   5  14
ENDBRANCH   1   7
BRANCH   2  17
ATOM     17  C   UNL     1       6.728   6.347  16.901  0.00  0.00    +0.000 C 
BRANCH  17  18
ATOM     18  O   UNL     1       6.549   5.017  17.370  0.00  0.00    +0.000 OA
BRANCH  18  19
ATOM     19  C   UNL     1       5.283   4.652  17.749  0.00  0.00    +0.000 A 
ATOM     20  C   UNL     1       4.569   3.939  16.785  0.00  0.00    +0.000 A 
ATOM     21  C   UNL     1       3.274   3.480  17.046  0.00  0.00    +0.000 A 
ATOM     22  C   UNL     1       2.657   3.736  18.277  0.00  0.00    +0.000 A 
ATOM     23  C   UNL     1       1.373   3.245  18.568  0.00  0.00    +0.000 A 
ATOM     24  C   UNL     1       0.763   3.522  19.793  0.00  0.00    +0.000 A 
ATOM     25  C   UNL     1       1.416   4.321  20.726  0.00  0.00    +0.000 A 
ATOM     26  C   UNL     1       2.697   4.809  20.453  0.00  0.00    +0.000 A 
ATOM     27  C   UNL     1       3.347   4.505  19.242  0.00  0.00    +0.000 A 
ATOM     28  C   UNL     1       4.663   4.945  18.968  0.00  0.00    +0.000 A 
ENDBRANCH  18  19
ENDBRANCH  17  18
ENDBRANCH   2  17
TORSDOF 6
ENDMDL
MODEL 5
REMARK VINA RESULT:      -8.1      1.643     10.400
REMARK  Name = 
REMARK  7 active torsions:
REMARK  status: ('A' for Active; 'I' for Inactive)
REMARK    1  A    between atoms: C_1  and  O_2
REMARK    2  A    between atoms: O_2  and  C_3
REMARK    3  A    between atoms: C_8  and  C_9
REMARK    4  A    between atoms: N_11  and  N_12
REMARK    5  A    between atoms: C_13  and  C_15
REMARK    6  A    between atoms: C_15  and  O_16
REMARK    7  A    between atoms: O_16  and  C_17
REMARK                            x       y       z     vdW  Elec       q    Type
REMARK                         _______ _______ _______ _____ _____    ______ ____
ROOT
ATOM      1  N   UNL     1       6.662   7.706  17.260  0.00  0.00    +0.000 N 
ATOM      2  C   UNL     1       7.785   7.883  18.049  0.00  0.00    +0.000 C 
ATOM      3  O   UNL     1       8.276   6.979  18.727  0.00  0.00    +0.000 OA
ATOM      4  H   UNL     1       6.119   8.493  16.906  0.00  0.00    +0.000 HD
ENDROOT
BRANCH   1   7
ATOM      5  C   UNL     1       4.615   6.474  17.407  0.00  0.00    +0.000 C 
ATOM      6  O   UNL     1       3.987   7.530  17.491  0.00  0.00    +0.000 OA
ATOM      7  N   UNL     1       5.990   6.472  17.295  0.00  0.00    +0.000 N 
ATOM      8  H   UNL     1       6.543   5.616  17.227  0.00  0.00    +0.000 HD
BRANCH   5  14
ATOM      9  C   UNL     1       4.440   3.923  17.021  0.00  0.00    +0.000 A 
ATOM     10  C   UNL     1       3.637   2.768  17.070  0.00  0.00    +0.000 A 
ATOM     11  C   UNL     1       2.325   2.821  17.548  0.00  0.00    +0.000 A 
ATOM     12  C   UNL     1       1.792   4.029  17.973  0.00  0.00    +0.000 A 
ATOM     13  C   UNL     1       2.571   5.187  17.911  0.00  0.00    +0.000 A 
ATOM     14  C   UNL     1       3.893   5.154  17.433  0.00  0.00    +0.000 A 
BRANCH   9  16
ATOM     15  C   UNL     1       5.886   3.707  15.141  0.00  0.00    +0.000 C 
ATOM     16  O   UNL     1       5.729   3.904  16.546  0.00  0.00    +0.000 OA
ENDBRANCH   9  16
ENDBRANCH   5  14
ENDBRANCH   1   7
BRANCH   2  17
ATOM     17  C   UNL     1       8.413   9.277  17.941  0.00  0.00    +0.000 C 
BRANCH  17  18
ATOM     18  O   UNL     1       9.199   9.578  19.087  0.00  0.00    +0.000 OA
BRANCH  18  19
ATOM     19  C   UNL     1       9.795  10.813  19.130  0.00  0.00    +0.000 A 
ATOM     20  C   UNL     1       9.673  11.477  20.351  0.00  0.00    +0.000 A 
ATOM     21  C   UNL     1      10.256  12.733  20.546  0.00  0.00    +0.000 A 
ATOM     22  C   UNL     1      10.966  13.361  19.514  0.00  0.00    +0.000 A 
ATOM     23  C   UNL     1      11.592  14.603  19.709  0.00  0.00    +0.000 A 
ATOM     24  C   UNL     1      12.283  15.226  18.667  0.00  0.00    +0.000 A 
ATOM     25  C   UNL     1      12.325  14.629  17.411  0.00  0.00    +0.000 A 
ATOM     26  C   UNL     1      11.714  13.389  17.206  0.00  0.00    +0.000 A 
ATOM     27  C   UNL     1      11.050  12.725  18.254  0.00  0.00    +0.000 A 
ATOM     28  C   UNL     1      10.471  11.446  18.082  0.00  0.00    +0.000 A 
ENDBRANCH  18  19
ENDBRANCH  17  18
ENDBRANCH   2  17
TORSDOF 6
ENDMDL
MODEL 6
REMARK VINA RESULT:      -8.1      5.618      7.678
REMARK  Name = 
REMARK  7 active torsions:
REMARK  status: ('A' for Active; 'I' for Inactive)
REMARK    1  A    between atoms: C_1  and  O_2
REMARK    2  A    between atoms: O_2  and  C_3
REMARK    3  A    between atoms: C_8  and  C_9
REMARK    4  A    between atoms: N_11  and  N_12
REMARK    5  A    between atoms: C_13  and  C_15
REMARK    6  A    between atoms: C_15  and  O_16
REMARK    7  A    between atoms: O_16  and  C_17
REMARK                            x       y       z     vdW  Elec       q    Type
REMARK                         _______ _______ _______ _____ _____    ______ ____
ROOT
ATOM      1  N   UNL     1       2.422   5.757  20.913  0.00  0.00    +0.000 N 
ATOM      2  C   UNL     1       1.802   4.551  20.637  0.00  0.00    +0.000 C 
ATOM      3  O   UNL     1       0.615   4.466  20.324  0.00  0.00    +0.000 OA
ATOM      4  H   UNL     1       3.314   5.809  21.405  0.00  0.00    +0.000 HD
ENDROOT
BRANCH   1   7
ATOM      5  C   UNL     1       1.824   7.847  19.909  0.00  0.00    +0.000 C 
ATOM      6  O   UNL     1       2.643   7.649  19.011  0.00  0.00    +0.000 OA
ATOM      7  N   UNL     1       1.652   6.934  20.929  0.00  0.00    +0.000 N 
ATOM      8  H   UNL     1       0.985   7.066  21.691  0.00  0.00    +0.000 HD
BRANCH   5  14
ATOM      9  C   UNL     1       0.543   9.767  21.076  0.00  0.00    +0.000 A 
ATOM     10  C   UNL     1      -0.258  10.916  20.935  0.00  0.00    +0.000 A 
ATOM     11  C   UNL     1      -0.584  11.419  19.673  0.00  0.00    +0.000 A 
ATOM     12  C   UNL     1      -0.125  10.775  18.532  0.00  0.00    +0.000 A 
ATOM     13  C   UNL     1       0.653   9.622  18.657  0.00  0.00    +0.000 A 
ATOM     14  C   UNL     1       0.992   9.101  19.919  0.00  0.00    +0.000 A 
BRANCH   9  16
ATOM     15  C   UNL     1      -0.021   9.538  23.378  0.00  0.00    +0.000 C 
ATOM     16  O   UNL     1       0.871   9.244  22.303  0.00  0.00    +0.000 OA
ENDBRANCH   9  16
ENDBRANCH   5  14
ENDBRANCH   1   7
BRANCH   2  17
ATOM     17  C   UNL     1       2.743   3.341  20.674  0.00  0.00    +0.000 C 
BRANCH  17  18
ATOM     18  O   UNL     1       2.924   2.791  19.376  0.00  0.00    +0.000 OA
BRANCH  18  19
ATOM     19  C   UNL     1       3.909   3.341  18.595  0.00  0.00    +0.000 A 
ATOM     20  C   UNL     1       4.946   3.946  19.304  0.00  0.00    +0.000 A 
ATOM     21  C   UNL     1       6.030   4.524  18.637  0.00  0.00    +0.000 A 
ATOM     22  C   UNL     1       6.094   4.522  17.237  0.00  0.00    +0.000 A 
ATOM     23  C   UNL     1       7.197   5.061  16.555  0.00  0.00    +0.000 A 
ATOM     24  C   UNL     1       7.240   5.066  15.159  0.00  0.00    +0.000 A 
ATOM     25  C   UNL     1       6.166   4.563  14.431  0.00  0.00    +0.000 A 
ATOM     26  C   UNL     1       5.066   4.015  15.098  0.00  0.00    +0.000 A 
ATOM     27  C   UNL     1       5.022   3.961  16.504  0.00  0.00    +0.000 A 
ATOM     28  C   UNL     1       3.944   3.364  17.197  0.00  0.00    +0.000 A 
ENDBRANCH  18  19
ENDBRANCH  17  18
ENDBRANCH   2  17
TORSDOF 6
ENDMDL
MODEL 7
REMARK VINA RESULT:      -8.0      1.394      2.406
REMARK  Name = 
REMARK  7 active torsions:
REMARK  status: ('A' for Active; 'I' for Inactive)
REMARK    1  A    between atoms: C_1  and  O_2
REMARK    2  A    between atoms: O_2  and  C_3
REMARK    3  A    between atoms: C_8  and  C_9
REMARK    4  A    between atoms: N_11  and  N_12
REMARK    5  A    between atoms: C_13  and  C_15
REMARK    6  A    between atoms: C_15  and  O_16
REMARK    7  A    between atoms: O_16  and  C_17
REMARK                            x       y       z     vdW  Elec       q    Type
REMARK                         _______ _______ _______ _____ _____    ______ ____
ROOT
ATOM      1  N   UNL     1       7.898   8.456  17.436  0.00  0.00    +0.000 N 
ATOM      2  C   UNL     1       7.727   7.128  17.784  0.00  0.00    +0.000 C 
ATOM      3  O   UNL     1       8.128   6.658  18.849  0.00  0.00    +0.000 OA
ATOM      4  H   UNL     1       7.796   8.782  16.475  0.00  0.00    +0.000 HD
ENDROOT
BRANCH   1   7
ATOM      5  C   UNL     1       8.546  10.660  18.110  0.00  0.00    +0.000 C 
ATOM      6  O   UNL     1       7.840  11.138  17.221  0.00  0.00    +0.000 OA
ATOM      7  N   UNL     1       8.641   9.295  18.286  0.00  0.00    +0.000 N 
ATOM      8  H   UNL     1       9.217   8.864  19.010  0.00  0.00    +0.000 HD
BRANCH   5  14
ATOM      9  C   UNL     1      10.095  12.668  18.615  0.00  0.00    +0.000 A 
ATOM     10  C   UNL     1      10.806  13.404  19.582  0.00  0.00    +0.000 A 
ATOM     11  C   UNL     1      10.738  13.071  20.937  0.00  0.00    +0.000 A 
ATOM     12  C   UNL     1       9.969  11.991  21.346  0.00  0.00    +0.000 A 
ATOM     13  C   UNL     1       9.274  11.240  20.395  0.00  0.00    +0.000 A 
ATOM     14  C   UNL     1       9.331  11.559  19.027  0.00  0.00    +0.000 A 
BRANCH   9  16
ATOM     15  C   UNL     1      11.430  13.334  16.759  0.00  0.00    +0.000 C 
ATOM     16  O   UNL     1      10.152  12.965  17.275  0.00  0.00    +0.000 OA
ENDBRANCH   9  16
ENDBRANCH   5  14
ENDBRANCH   1   7
BRANCH   2  17
ATOM     17  C   UNL     1       6.921   6.312  16.766  0.00  0.00    +0.000 C 
BRANCH  17  18
ATOM     18  O   UNL     1       5.593   6.805  16.647  0.00  0.00    +0.000 OA
BRANCH  18  19
ATOM     19  C   UNL     1       4.589   6.033  17.174  0.00  0.00    +0.000 A 
ATOM     20  C   UNL     1       3.582   6.748  17.822  0.00  0.00    +0.000 A 
ATOM     21  C   UNL     1       2.483   6.091  18.383  0.00  0.00    +0.000 A 
ATOM     22  C   UNL     1       2.373   4.695  18.320  0.00  0.00    +0.000 A 
ATOM     23  C   UNL     1       1.254   4.026  18.841  0.00  0.00    +0.000 A 
ATOM     24  C   UNL     1       1.165   2.633  18.787  0.00  0.00    +0.000 A 
ATOM     25  C   UNL     1       2.210   1.894  18.240  0.00  0.00    +0.000 A 
ATOM     26  C   UNL     1       3.325   2.548  17.709  0.00  0.00    +0.000 A 
ATOM     27  C   UNL     1       3.414   3.954  17.716  0.00  0.00    +0.000 A 
ATOM     28  C   UNL     1       4.509   4.637  17.137  0.00  0.00    +0.000 A 
ENDBRANCH  18  19
ENDBRANCH  17  18
ENDBRANCH   2  17
TORSDOF 6
ENDMDL
MODEL 8
REMARK VINA RESULT:      -8.0      1.460      2.271
REMARK  Name = 
REMARK  7 active torsions:
REMARK  status: ('A' for Active; 'I' for Inactive)
REMARK    1  A    between atoms: C_1  and  O_2
REMARK    2  A    between atoms: O_2  and  C_3
REMARK    3  A    between atoms: C_8  and  C_9
REMARK    4  A    between atoms: N_11  and  N_12
REMARK    5  A    between atoms: C_13  and  C_15
REMARK    6  A    between atoms: C_15  and  O_16
REMARK    7  A    between atoms: O_16  and  C_17
REMARK                            x       y       z     vdW  Elec       q    Type
REMARK                         _______ _______ _______ _____ _____    ______ ____
ROOT
ATOM      1  N   UNL     1       8.055   7.624  17.994  0.00  0.00    +0.000 N 
ATOM      2  C   UNL     1       7.761   6.367  18.492  0.00  0.00    +0.000 C 
ATOM      3  O   UNL     1       8.024   6.026  19.645  0.00  0.00    +0.000 OA
ATOM      4  H   UNL     1       8.069   7.822  16.993  0.00  0.00    +0.000 HD
ENDROOT
BRANCH   1   7
ATOM      5  C   UNL     1       8.711   9.873  18.489  0.00  0.00    +0.000 C 
ATOM      6  O   UNL     1       8.069  10.273  17.517  0.00  0.00    +0.000 OA
ATOM      7  N   UNL     1       8.765   8.530  18.801  0.00  0.00    +0.000 N 
ATOM      8  H   UNL     1       9.289   8.163  19.597  0.00  0.00    +0.000 HD
BRANCH   5  14
ATOM      9  C   UNL     1      10.533  11.653  18.934  0.00  0.00    +0.000 A 
ATOM     10  C   UNL     1      11.163  12.497  19.868  0.00  0.00    +0.000 A 
ATOM     11  C   UNL     1      10.724  12.565  21.193  0.00  0.00    +0.000 A 
ATOM     12  C   UNL     1       9.655  11.783  21.607  0.00  0.00    +0.000 A 
ATOM     13  C   UNL     1       9.032  10.927  20.697  0.00  0.00    +0.000 A 
ATOM     14  C   UNL     1       9.461  10.844  19.359  0.00  0.00    +0.000 A 
BRANCH   9  16
ATOM     15  C   UNL     1      11.103  12.787  16.919  0.00  0.00    +0.000 C 
ATOM     16  O   UNL     1      10.949  11.558  17.629  0.00  0.00    +0.000 OA
ENDBRANCH   9  16
ENDBRANCH   5  14
ENDBRANCH   1   7
BRANCH   2  17
ATOM     17  C   UNL     1       7.006   5.465  17.508  0.00  0.00    +0.000 C 
BRANCH  17  18
ATOM     18  O   UNL     1       5.701   5.966  17.248  0.00  0.00    +0.000 OA
BRANCH  18  19
ATOM     19  C   UNL     1       4.692   5.540  18.073  0.00  0.00    +0.000 A 
ATOM     20  C   UNL     1       3.610   6.415  18.169  0.00  0.00    +0.000 A 
ATOM     21  C   UNL     1       2.497   6.097  18.954  0.00  0.00    +0.000 A 
ATOM     22  C   UNL     1       2.448   4.896  19.675  0.00  0.00    +0.000 A 
ATOM     23  C   UNL     1       1.320   4.544  20.433  0.00  0.00    +0.000 A 
ATOM     24  C   UNL     1       1.291   3.352  21.160  0.00  0.00    +0.000 A 
ATOM     25  C   UNL     1       2.403   2.516  21.162  0.00  0.00    +0.000 A 
ATOM     26  C   UNL     1       3.529   2.849  20.404  0.00  0.00    +0.000 A 
ATOM     27  C   UNL     1       3.562   4.026  19.631  0.00  0.00    +0.000 A 
ATOM     28  C   UNL     1       4.670   4.356  18.816  0.00  0.00    +0.000 A 
ENDBRANCH  18  19
ENDBRANCH  17  18
ENDBRANCH   2  17
TORSDOF 6
ENDMDL
MODEL 9
REMARK VINA RESULT:      -7.9      1.252      1.478
REMARK  Name = 
REMARK  7 active torsions:
REMARK  status: ('A' for Active; 'I' for Inactive)
REMARK    1  A    between atoms: C_1  and  O_2
REMARK    2  A    between atoms: O_2  and  C_3
REMARK    3  A    between atoms: C_8  and  C_9
REMARK    4  A    between atoms: N_11  and  N_12
REMARK    5  A    between atoms: C_13  and  C_15
REMARK    6  A    between atoms: C_15  and  O_16
REMARK    7  A    between atoms: O_16  and  C_17
REMARK                            x       y       z     vdW  Elec       q    Type
REMARK                         _______ _______ _______ _____ _____    ______ ____
ROOT
ATOM      1  N   UNL     1       7.813   8.747  17.510  0.00  0.00    +0.000 N 
ATOM      2  C   UNL     1       7.721   7.423  17.902  0.00  0.00    +0.000 C 
ATOM      3  O   UNL     1       8.338   6.965  18.864  0.00  0.00    +0.000 OA
ATOM      4  H   UNL     1       7.510   9.062  16.589  0.00  0.00    +0.000 HD
ENDROOT
BRANCH   1   7
ATOM      5  C   UNL     1       8.611  10.956  17.975  0.00  0.00    +0.000 C 
ATOM      6  O   UNL     1       7.756  11.422  17.220  0.00  0.00    +0.000 OA
ATOM      7  N   UNL     1       8.716   9.595  18.175  0.00  0.00    +0.000 N 
ATOM      8  H   UNL     1       9.413   9.173  18.791  0.00  0.00    +0.000 HD
BRANCH   5  14
ATOM      9  C   UNL     1       9.321  13.214  19.016  0.00  0.00    +0.000 A 
ATOM     10  C   UNL     1      10.324  13.956  19.666  0.00  0.00    +0.000 A 
ATOM     11  C   UNL     1      11.541  13.369  20.024  0.00  0.00    +0.000 A 
ATOM     12  C   UNL     1      11.778  12.035  19.726  0.00  0.00    +0.000 A 
ATOM     13  C   UNL     1      10.800  11.291  19.063  0.00  0.00    +0.000 A 
ATOM     14  C   UNL     1       9.569  11.865  18.695  0.00  0.00    +0.000 A 
BRANCH   9  16
ATOM     15  C   UNL     1       8.170  15.083  18.092  0.00  0.00    +0.000 C 
ATOM     16  O   UNL     1       8.120  13.767  18.643  0.00  0.00    +0.000 OA
ENDBRANCH   9  16
ENDBRANCH   5  14
ENDBRANCH   1   7
BRANCH   2  17
ATOM     17  C   UNL     1       6.720   6.596  17.086  0.00  0.00    +0.000 C 
BRANCH  17  18
ATOM     18  O   UNL     1       6.590   5.281  17.609  0.00  0.00    +0.000 OA
BRANCH  18  19
ATOM     19  C   UNL     1       5.324   4.849  17.910  0.00  0.00    +0.000 A 
ATOM     20  C   UNL     1       4.700   4.121  16.897  0.00  0.00    +0.000 A 
ATOM     21  C   UNL     1       3.417   3.596  17.077  0.00  0.00    +0.000 A 
ATOM     22  C   UNL     1       2.720   3.800  18.276  0.00  0.00    +0.000 A 
ATOM     23  C   UNL     1       1.449   3.242  18.487  0.00  0.00    +0.000 A 
ATOM     24  C   UNL     1       0.759   3.468  19.680  0.00  0.00    +0.000 A 
ATOM     25  C   UNL     1       1.320   4.279  20.661  0.00  0.00    +0.000 A 
ATOM     26  C   UNL     1       2.589   4.832  20.468  0.00  0.00    +0.000 A 
ATOM     27  C   UNL     1       3.319   4.583  19.290  0.00  0.00    +0.000 A 
ATOM     28  C   UNL     1       4.625   5.089  19.097  0.00  0.00    +0.000 A 
ENDBRANCH  18  19
ENDBRANCH  17  18
ENDBRANCH   2  17
TORSDOF 6
ENDMDL
