MODEL 1
REMARK VINA RESULT:      -8.4      0.000      0.000
REMARK  Name = 
REMARK  9 active torsions:
REMARK  status: ('A' for Active; 'I' for Inactive)
REMARK    1  A    between atoms: C_2  and  C_3
REMARK    2  A    between atoms: C_3  and  N_4
REMARK    3  A    between atoms: N_7  and  C_8
REMARK    4  A    between atoms: C_8  and  C_9
REMARK    5  A    between atoms: C_12  and  C_13
REMARK    6  A    between atoms: C_13  and  O_15
REMARK    7  A    between atoms: N_20  and  C_21
REMARK    8  A    between atoms: C_24  and  O_25
REMARK    9  A    between atoms: O_25  and  C_26
REMARK                            x       y       z     vdW  Elec       q    Type
REMARK                         _______ _______ _______ _____ _____    ______ ____
ROOT
ATOM      1  C   UNL     1       2.462   3.488  21.241  0.00  0.00    +0.000 C 
ENDROOT
BRANCH   1   2
ATOM      2  N   UNL     1       2.737   2.512  20.156  0.00  0.00    +0.000 NA
ATOM      3  C   UNL     1       2.120   2.887  18.859  0.00  0.00    +0.000 C 
ATOM      4  C   UNL     1       2.777   4.065  18.080  0.00  0.00    +0.000 C 
ATOM      5  N   UNL     1       4.257   4.041  17.987  0.00  0.00    +0.000 NA
ATOM      6  C   UNL     1       4.811   3.742  19.319  0.00  0.00    +0.000 C 
ATOM      7  C   UNL     1       4.215   2.464  19.962  0.00  0.00    +0.000 C 
BRANCH   5   8
ATOM      8  C   UNL     1       4.718   3.086  16.965  0.00  0.00    +0.000 C 
BRANCH   8   9
ATOM      9  C   UNL     1       5.569   3.730  15.883  0.00  0.00    +0.000 A 
ATOM     10  C   UNL     1       6.660   4.542  16.224  0.00  0.00    +0.000 A 
ATOM     11  C   UNL     1       7.452   5.122  15.229  0.00  0.00    +0.000 A 
ATOM     12  C   UNL     1       7.165   4.902  13.875  0.00  0.00    +0.000 A 
ATOM     13  C   UNL     1       6.068   4.103  13.529  0.00  0.00    +0.000 A 
ATOM     14  C   UNL     1       5.267   3.535  14.527  0.00  0.00    +0.000 A 
BRANCH  12  15
ATOM     15  C   UNL     1       8.088   5.491  12.866  0.00  0.00    +0.000 C 
ATOM     16  O   UNL     1       9.127   6.055  13.170  0.00  0.00    +0.000 OA
BRANCH  15  17
ATOM     17  O   UNL     1       7.652   5.383  11.593  0.00  0.00    +0.000 OA
ATOM     18  H   UNL     1       7.993   4.623  11.095  0.00  0.00    +0.000 HD
ENDBRANCH  15  17
ENDBRANCH  12  15
ENDBRANCH   8   9
ENDBRANCH   5   8
ENDBRANCH   1   2
BRANCH   1  20
ATOM     19  O   UNL     1       0.528   4.657  20.494  0.00  0.00    +0.000 OA
ATOM     20  C   UNL     1       1.716   4.743  20.821  0.00  0.00    +0.000 C 
ATOM     21  N   UNL     1       2.468   5.900  20.767  0.00  0.00    +0.000 N 
ATOM     22  H   UNL     1       3.289   5.912  21.364  0.00  0.00    +0.000 HD
BRANCH  21  23
ATOM     23  C   UNL     1       1.944   7.117  20.289  0.00  0.00    +0.000 A 
ATOM     24  C   UNL     1       2.262   7.536  18.998  0.00  0.00    +0.000 A 
ATOM     25  C   UNL     1       1.802   8.774  18.533  0.00  0.00    +0.000 A 
ATOM     26  C   UNL     1       0.969   9.561  19.330  0.00  0.00    +0.000 A 
ATOM     27  C   UNL     1       0.653   9.146  20.624  0.00  0.00    +0.000 A 
ATOM     28  C   UNL     1       1.125   7.920  21.092  0.00  0.00    +0.000 A 
BRANCH  26  29
ATOM     29  O   UNL     1       0.543  10.754  18.790  0.00  0.00    +0.000 OA
BRANCH  29  30
ATOM     30  C   UNL     1      -0.806  10.951  18.590  0.00  0.00    +0.000 A 
ATOM     31  C   UNL     1      -1.426  11.882  19.425  0.00  0.00    +0.000 A 
ATOM     32  C   UNL     1      -2.791  12.139  19.293  0.00  0.00    +0.000 A 
ATOM     33  C   UNL     1      -3.539  11.468  18.326  0.00  0.00    +0.000 A 
ATOM     34  C   UNL     1      -2.916  10.562  17.469  0.00  0.00    +0.000 A 
ATOM     35  C   UNL     1      -1.547  10.323  17.584  0.00  0.00    +0.000 A 
ENDBRANCH  29  30
ENDBRANCH  26  29
ENDBRANCH  21  23
ENDBRANCH   1  20
TORSDOF 9
ENDMDL
MODEL 2
REMARK VINA RESULT:      -8.2      0.344      1.232
REMARK  Name = 
REMARK  9 active torsions:
REMARK  status: ('A' for Active; 'I' for Inactive)
REMARK    1  A    between atoms: C_2  and  C_3
REMARK    2  A    between atoms: C_3  and  N_4
REMARK    3  A    between atoms: N_7  and  C_8
REMARK    4  A    between atoms: C_8  and  C_9
REMARK    5  A    between atoms: C_12  and  C_13
REMARK    6  A    between atoms: C_13  and  O_15
REMARK    7  A    between atoms: N_20  and  C_21
REMARK    8  A    between atoms: C_24  and  O_25
REMARK    9  A    between atoms: O_25  and  C_26
REMARK                            x       y       z     vdW  Elec       q    Type
REMARK                         _______ _______ _______ _____ _____    ______ ____
ROOT
ATOM      1  C   UNL     1       2.333   3.838  21.195  0.00  0.00    +0.000 C 
ENDROOT
BRANCH   1   2
ATOM      2  N   UNL     1       2.541   2.847  20.108  0.00  0.00    +0.000 NA
ATOM      3  C   UNL     1       2.028   3.304  18.792  0.00  0.00    +0.000 C 
ATOM      4  C   UNL     1       2.847   4.406  18.059  0.00  0.00    +0.000 C 
ATOM      5  N   UNL     1       4.317   4.215  18.027  0.00  0.00    +0.000 NA
ATOM      6  C   UNL     1       4.776   3.842  19.376  0.00  0.00    +0.000 C 
ATOM      7  C   UNL     1       4.012   2.633  19.975  0.00  0.00    +0.000 C 
BRANCH   5   8
ATOM      8  C   UNL     1       4.710   3.224  17.011  0.00  0.00    +0.000 C 
BRANCH   8   9
ATOM      9  C   UNL     1       5.617   3.796  15.935  0.00  0.00    +0.000 A 
ATOM     10  C   UNL     1       5.388   3.506  14.582  0.00  0.00    +0.000 A 
ATOM     11  C   UNL     1       6.214   4.045  13.591  0.00  0.00    +0.000 A 
ATOM     12  C   UNL     1       7.285   4.880  13.936  0.00  0.00    +0.000 A 
ATOM     13  C   UNL     1       7.526   5.161  15.286  0.00  0.00    +0.000 A 
ATOM     14  C   UNL     1       6.707   4.609  16.279  0.00  0.00    +0.000 A 
BRANCH  12  15
ATOM     15  C   UNL     1       8.083   5.476  12.829  0.00  0.00    +0.000 C 
ATOM     16  O   UNL     1       9.062   6.180  13.024  0.00  0.00    +0.000 OA
BRANCH  15  17
ATOM     17  O   UNL     1       7.604   5.204  11.596  0.00  0.00    +0.000 OA
ATOM     18  H   UNL     1       6.662   4.974  11.552  0.00  0.00    +0.000 HD
ENDBRANCH  15  17
ENDBRANCH  12  15
ENDBRANCH   8   9
ENDBRANCH   5   8
ENDBRANCH   1   2
BRANCH   1  20
ATOM     19  O   UNL     1       0.392   4.996  20.451  0.00  0.00    +0.000 OA
ATOM     20  C   UNL     1       1.572   5.093  20.802  0.00  0.00    +0.000 C 
ATOM     21  N   UNL     1       2.304   6.264  20.801  0.00  0.00    +0.000 N 
ATOM     22  H   UNL     1       3.113   6.271  21.413  0.00  0.00    +0.000 HD
BRANCH  21  23
ATOM     23  C   UNL     1       1.766   7.486  20.352  0.00  0.00    +0.000 A 
ATOM     24  C   UNL     1       1.950   7.867  19.023  0.00  0.00    +0.000 A 
ATOM     25  C   UNL     1       1.478   9.108  18.581  0.00  0.00    +0.000 A 
ATOM     26  C   UNL     1       0.763   9.940  19.446  0.00  0.00    +0.000 A 
ATOM     27  C   UNL     1       0.581   9.564  20.776  0.00  0.00    +0.000 A 
ATOM     28  C   UNL     1       1.066   8.333  21.221  0.00  0.00    +0.000 A 
BRANCH  26  29
ATOM     29  O   UNL     1       0.316  11.134  18.925  0.00  0.00    +0.000 OA
BRANCH  29  30
ATOM     30  C   UNL     1      -1.041  11.331  18.784  0.00  0.00    +0.000 A 
ATOM     31  C   UNL     1      -1.635  10.760  17.657  0.00  0.00    +0.000 A 
ATOM     32  C   UNL     1      -3.004  10.915  17.434  0.00  0.00    +0.000 A 
ATOM     33  C   UNL     1      -3.782  11.639  18.338  0.00  0.00    +0.000 A 
ATOM     34  C   UNL     1      -3.197  12.183  19.480  0.00  0.00    +0.000 A 
ATOM     35  C   UNL     1      -1.834  12.007  19.717  0.00  0.00    +0.000 A 
ENDBRANCH  29  30
ENDBRANCH  26  29
ENDBRANCH  21  23
ENDBRANCH   1  20
TORSDOF 9
ENDMDL
MODEL 3
REMARK VINA RESULT:      -8.0      0.483      1.281
REMARK  Name = 
REMARK  9 active torsions:
REMARK  status: ('A' for Active; 'I' for Inactive)
REMARK    1  A    between atoms: C_2  and  C_3
REMARK    2  A    between atoms: C_3  and  N_4
REMARK    3  A    between atoms: N_7  and  C_8
REMARK    4  A    between atoms: C_8  and  C_9
REMARK    5  A    between atoms: C_12  and  C_13
REMARK    6  A    between atoms: C_13  and  O_15
REMARK    7  A    between atoms: N_20  and  C_21
REMARK    8  A    between atoms: C_24  and  O_25
REMARK    9  A    between atoms: O_25  and  C_26
REMARK                            x       y       z     vdW  Elec       q    Type
REMARK                         _______ _______ _______ _____ _____    ______ ____
ROOT
ATOM      1  C   UNL     1       2.516   3.770  21.089  0.00  0.00    +0.000 C 
ENDROOT
BRANCH   1   2
ATOM      2  N   UNL     1       2.714   2.827  19.958  0.00  0.00    +0.000 NA
ATOM      3  C   UNL     1       2.036   3.258  18.710  0.00  0.00    +0.000 C 
ATOM      4  C   UNL     1       2.670   4.452  17.938  0.00  0.00    +0.000 C 
ATOM      5  N   UNL     1       4.142   4.408  17.763  0.00  0.00    +0.000 NA
ATOM      6  C   UNL     1       4.763   4.054  19.052  0.00  0.00    +0.000 C 
ATOM      7  C   UNL     1       4.179   2.763  19.682  0.00  0.00    +0.000 C 
BRANCH   5   8
ATOM      8  C   UNL     1       4.530   3.483  16.685  0.00  0.00    +0.000 C 
BRANCH   8   9
ATOM      9  C   UNL     1       5.554   4.071  15.729  0.00  0.00    +0.000 A 
ATOM     10  C   UNL     1       5.654   3.599  14.413  0.00  0.00    +0.000 A 
ATOM     11  C   UNL     1       6.585   4.151  13.529  0.00  0.00    +0.000 A 
ATOM     12  C   UNL     1       7.437   5.182  13.948  0.00  0.00    +0.000 A 
ATOM     13  C   UNL     1       7.351   5.647  15.266  0.00  0.00    +0.000 A 
ATOM     14  C   UNL     1       6.427   5.083  16.154  0.00  0.00    +0.000 A 
BRANCH  12  15
ATOM     15  C   UNL     1       8.358   5.773  12.939  0.00  0.00    +0.000 C 
ATOM     16  O   UNL     1       9.543   5.969  13.159  0.00  0.00    +0.000 OA
BRANCH  15  17
ATOM     17  O   UNL     1       7.758   6.111  11.777  0.00  0.00    +0.000 OA
ATOM     18  H   UNL     1       7.438   7.025  11.719  0.00  0.00    +0.000 HD
ENDBRANCH  15  17
ENDBRANCH  12  15
ENDBRANCH   8   9
ENDBRANCH   5   8
ENDBRANCH   1   2
BRANCH   1  20
ATOM     19  O   UNL     1       0.504   4.920  20.552  0.00  0.00    +0.000 OA
ATOM     20  C   UNL     1       1.715   5.020  20.769  0.00  0.00    +0.000 C 
ATOM     21  N   UNL     1       2.442   6.191  20.672  0.00  0.00    +0.000 N 
ATOM     22  H   UNL     1       3.314   6.204  21.190  0.00  0.00    +0.000 HD
BRANCH  21  23
ATOM     23  C   UNL     1       1.856   7.408  20.272  0.00  0.00    +0.000 A 
ATOM     24  C   UNL     1       1.005   8.077  21.150  0.00  0.00    +0.000 A 
ATOM     25  C   UNL     1       0.364   9.252  20.742  0.00  0.00    +0.000 A 
ATOM     26  C   UNL     1       0.626   9.797  19.483  0.00  0.00    +0.000 A 
ATOM     27  C   UNL     1       1.474   9.127  18.601  0.00  0.00    +0.000 A 
ATOM     28  C   UNL     1       2.099   7.947  19.003  0.00  0.00    +0.000 A 
BRANCH  26  29
ATOM     29  O   UNL     1      -0.029  10.967  19.167  0.00  0.00    +0.000 OA
BRANCH  29  30
ATOM     30  C   UNL     1      -1.296  10.896  18.629  0.00  0.00    +0.000 A 
ATOM     31  C   UNL     1      -2.228  11.811  19.120  0.00  0.00    +0.000 A 
ATOM     32  C   UNL     1      -3.536  11.806  18.633  0.00  0.00    +0.000 A 
ATOM     33  C   UNL     1      -3.914  10.887  17.653  0.00  0.00    +0.000 A 
ATOM     34  C   UNL     1      -2.977   9.994  17.138  0.00  0.00    +0.000 A 
ATOM     35  C   UNL     1      -1.663  10.015  17.607  0.00  0.00    +0.000 A 
ENDBRANCH  29  30
ENDBRANCH  26  29
ENDBRANCH  21  23
ENDBRANCH   1  20
TORSDOF 9
ENDMDL
MODEL 4
REMARK VINA RESULT:      -7.9      1.680      2.404
REMARK  Name = 
REMARK  9 active torsions:
REMARK  status: ('A' for Active; 'I' for Inactive)
REMARK    1  A    between atoms: C_2  and  C_3
REMARK    2  A    between atoms: C_3  and  N_4
REMARK    3  A    between atoms: N_7  and  C_8
REMARK    4  A    between atoms: C_8  and  C_9
REMARK    5  A    between atoms: C_12  and  C_13
REMARK    6  A    between atoms: C_13  and  O_15
REMARK    7  A    between atoms: N_20  and  C_21
REMARK    8  A    between atoms: C_24  and  O_25
REMARK    9  A    between atoms: O_25  and  C_26
REMARK                            x       y       z     vdW  Elec       q    Type
REMARK                         _______ _______ _______ _____ _____    ______ ____
ROOT
ATOM      1  C   UNL     1       2.339   3.548  21.181  0.00  0.00    +0.000 C 
ENDROOT
BRANCH   1   2
ATOM      2  N   UNL     1       2.578   2.590  20.072  0.00  0.00    +0.000 NA
ATOM      3  C   UNL     1       2.061   3.067  18.764  0.00  0.00    +0.000 C 
ATOM      4  C   UNL     1       2.858   4.206  18.064  0.00  0.00    +0.000 C 
ATOM      5  N   UNL     1       4.332   4.051  18.037  0.00  0.00    +0.000 NA
ATOM      6  C   UNL     1       4.793   3.655  19.380  0.00  0.00    +0.000 C 
ATOM      7  C   UNL     1       4.054   2.414  19.943  0.00  0.00    +0.000 C 
BRANCH   5   8
ATOM      8  C   UNL     1       4.755   3.096  16.999  0.00  0.00    +0.000 C 
BRANCH   8   9
ATOM      9  C   UNL     1       5.576   3.736  15.893  0.00  0.00    +0.000 A 
ATOM     10  C   UNL     1       6.663   4.567  16.202  0.00  0.00    +0.000 A 
ATOM     11  C   UNL     1       7.428   5.143  15.184  0.00  0.00    +0.000 A 
ATOM     12  C   UNL     1       7.117   4.902  13.840  0.00  0.00    +0.000 A 
ATOM     13  C   UNL     1       6.025   4.085  13.525  0.00  0.00    +0.000 A 
ATOM     14  C   UNL     1       5.251   3.520  14.546  0.00  0.00    +0.000 A 
BRANCH  12  15
ATOM     15  C   UNL     1       8.013   5.490  12.805  0.00  0.00    +0.000 C 
ATOM     16  O   UNL     1       7.773   5.428  11.610  0.00  0.00    +0.000 OA
BRANCH  15  17
ATOM     17  O   UNL     1       9.132   6.059  13.305  0.00  0.00    +0.000 OA
ATOM     18  H   UNL     1       9.594   6.670  12.710  0.00  0.00    +0.000 HD
ENDBRANCH  15  17
ENDBRANCH  12  15
ENDBRANCH   8   9
ENDBRANCH   5   8
ENDBRANCH   1   2
BRANCH   1  20
ATOM     19  O   UNL     1       0.443   4.790  20.459  0.00  0.00    +0.000 OA
ATOM     20  C   UNL     1       1.629   4.834  20.796  0.00  0.00    +0.000 C 
ATOM     21  N   UNL     1       2.412   5.973  20.786  0.00  0.00    +0.000 N 
ATOM     22  H   UNL     1       3.228   5.944  21.388  0.00  0.00    +0.000 HD
BRANCH  21  23
ATOM     23  C   UNL     1       1.922   7.217  20.343  0.00  0.00    +0.000 A 
ATOM     24  C   UNL     1       2.224   7.648  19.052  0.00  0.00    +0.000 A 
ATOM     25  C   UNL     1       1.801   8.911  18.621  0.00  0.00    +0.000 A 
ATOM     26  C   UNL     1       1.018   9.714  19.453  0.00  0.00    +0.000 A 
ATOM     27  C   UNL     1       0.719   9.287  20.747  0.00  0.00    +0.000 A 
ATOM     28  C   UNL     1       1.155   8.035  21.181  0.00  0.00    +0.000 A 
BRANCH  26  29
ATOM     29  O   UNL     1       0.626  10.933  18.946  0.00  0.00    +0.000 OA
BRANCH  29  30
ATOM     30  C   UNL     1       1.392  12.046  19.219  0.00  0.00    +0.000 A 
ATOM     31  C   UNL     1       2.217  12.497  18.187  0.00  0.00    +0.000 A 
ATOM     32  C   UNL     1       3.029  13.615  18.380  0.00  0.00    +0.000 A 
ATOM     33  C   UNL     1       3.017  14.286  19.603  0.00  0.00    +0.000 A 
ATOM     34  C   UNL     1       2.170  13.857  20.624  0.00  0.00    +0.000 A 
ATOM     35  C   UNL     1       1.340  12.754  20.423  0.00  0.00    +0.000 A 
ENDBRANCH  29  30
ENDBRANCH  26  29
ENDBRANCH  21  23
ENDBRANCH   1  20
TORSDOF 9
ENDMDL
MODEL 5
REMARK VINA RESULT:      -7.9      1.645      2.475
REMARK  Name = 
REMARK  9 active torsions:
REMARK  status: ('A' for Active; 'I' for Inactive)
REMARK    1  A    between atoms: C_2  and  C_3
REMARK    2  A    between atoms: C_3  and  N_4
REMARK    3  A    between atoms: N_7  and  C_8
REMARK    4  A    between atoms: C_8  and  C_9
REMARK    5  A    between atoms: C_12  and  C_13
REMARK    6  A    between atoms: C_13  and  O_15
REMARK    7  A    between atoms: N_20  and  C_21
REMARK    8  A    between atoms: C_24  and  O_25
REMARK    9  A    between atoms: O_25  and  C_26
REMARK                            x       y       z     vdW  Elec       q    Type
REMARK                         _______ _______ _______ _____ _____    ______ ____
ROOT
ATOM      1  C   UNL     1       2.244   3.866  21.231  0.00  0.00    +0.000 C 
ENDROOT
BRANCH   1   2
ATOM      2  N   UNL     1       2.474   2.849  20.172  0.00  0.00    +0.000 NA
ATOM      3  C   UNL     1       1.922   3.242  18.852  0.00  0.00    +0.000 C 
ATOM      4  C   UNL     1       2.685   4.351  18.070  0.00  0.00    +0.000 C 
ATOM      5  N   UNL     1       4.161   4.216  18.019  0.00  0.00    +0.000 NA
ATOM      6  C   UNL     1       4.656   3.904  19.371  0.00  0.00    +0.000 C 
ATOM      7  C   UNL     1       3.949   2.687  20.021  0.00  0.00    +0.000 C 
BRANCH   5   8
ATOM      8  C   UNL     1       4.576   3.208  17.028  0.00  0.00    +0.000 C 
BRANCH   8   9
ATOM      9  C   UNL     1       5.505   3.763  15.962  0.00  0.00    +0.000 A 
ATOM     10  C   UNL     1       5.295   3.464  14.608  0.00  0.00    +0.000 A 
ATOM     11  C   UNL     1       6.141   3.987  13.626  0.00  0.00    +0.000 A 
ATOM     12  C   UNL     1       7.214   4.815  13.981  0.00  0.00    +0.000 A 
ATOM     13  C   UNL     1       7.437   5.106  15.332  0.00  0.00    +0.000 A 
ATOM     14  C   UNL     1       6.597   4.569  16.316  0.00  0.00    +0.000 A 
BRANCH  12  15
ATOM     15  C   UNL     1       8.035   5.395  12.882  0.00  0.00    +0.000 C 
ATOM     16  O   UNL     1       9.009   6.102  13.086  0.00  0.00    +0.000 OA
BRANCH  15  17
ATOM     17  O   UNL     1       7.581   5.104  11.643  0.00  0.00    +0.000 OA
ATOM     18  H   UNL     1       7.195   5.847  11.152  0.00  0.00    +0.000 HD
ENDBRANCH  15  17
ENDBRANCH  12  15
ENDBRANCH   8   9
ENDBRANCH   5   8
ENDBRANCH   1   2
BRANCH   1  20
ATOM     19  O   UNL     1       0.385   5.118  20.432  0.00  0.00    +0.000 OA
ATOM     20  C   UNL     1       1.571   5.149  20.773  0.00  0.00    +0.000 C 
ATOM     21  N   UNL     1       2.384   6.263  20.706  0.00  0.00    +0.000 N 
ATOM     22  H   UNL     1       3.197   6.245  21.314  0.00  0.00    +0.000 HD
BRANCH  21  23
ATOM     23  C   UNL     1       1.931   7.494  20.194  0.00  0.00    +0.000 A 
ATOM     24  C   UNL     1       1.231   8.365  21.029  0.00  0.00    +0.000 A 
ATOM     25  C   UNL     1       0.718   9.562  20.516  0.00  0.00    +0.000 A 
ATOM     26  C   UNL     1       0.960   9.922  19.190  0.00  0.00    +0.000 A 
ATOM     27  C   UNL     1       1.656   9.052  18.351  0.00  0.00    +0.000 A 
ATOM     28  C   UNL     1       2.154   7.851  18.859  0.00  0.00    +0.000 A 
BRANCH  26  29
ATOM     29  O   UNL     1       0.438  11.126  18.770  0.00  0.00    +0.000 OA
BRANCH  29  30
ATOM     30  C   UNL     1       1.206  12.263  18.892  0.00  0.00    +0.000 A 
ATOM     31  C   UNL     1       0.793  13.189  19.851  0.00  0.00    +0.000 A 
ATOM     32  C   UNL     1       1.511  14.371  20.037  0.00  0.00    +0.000 A 
ATOM     33  C   UNL     1       2.646  14.628  19.267  0.00  0.00    +0.000 A 
ATOM     34  C   UNL     1       3.080  13.691  18.332  0.00  0.00    +0.000 A 
ATOM     35  C   UNL     1       2.376  12.498  18.162  0.00  0.00    +0.000 A 
ENDBRANCH  29  30
ENDBRANCH  26  29
ENDBRANCH  21  23
ENDBRANCH   1  20
TORSDOF 9
ENDMDL
MODEL 6
REMARK VINA RESULT:      -7.8      1.588      2.352
REMARK  Name = 
REMARK  9 active torsions:
REMARK  status: ('A' for Active; 'I' for Inactive)
REMARK    1  A    between atoms: C_2  and  C_3
REMARK    2  A    between atoms: C_3  and  N_4
REMARK    3  A    between atoms: N_7  and  C_8
REMARK    4  A    between atoms: C_8  and  C_9
REMARK    5  A    between atoms: C_12  and  C_13
REMARK    6  A    between atoms: C_13  and  O_15
REMARK    7  A    between atoms: N_20  and  C_21
REMARK    8  A    between atoms: C_24  and  O_25
REMARK    9  A    between atoms: O_25  and  C_26
REMARK                            x       y       z     vdW  Elec       q    Type
REMARK                         _______ _______ _______ _____ _____    ______ ____
ROOT
ATOM      1  C   UNL     1       2.407   3.884  21.225  0.00  0.00    +0.000 C 
ENDROOT
BRANCH   1   2
ATOM      2  N   UNL     1       2.637   2.856  20.177  0.00  0.00    +0.000 NA
ATOM      3  C   UNL     1       2.057   3.222  18.860  0.00  0.00    +0.000 C 
ATOM      4  C   UNL     1       2.789   4.333  18.051  0.00  0.00    +0.000 C 
ATOM      5  N   UNL     1       4.266   4.223  17.978  0.00  0.00    +0.000 NA
ATOM      6  C   UNL     1       4.788   3.939  19.326  0.00  0.00    +0.000 C 
ATOM      7  C   UNL     1       4.113   2.718  20.004  0.00  0.00    +0.000 C 
BRANCH   5   8
ATOM      8  C   UNL     1       4.683   3.209  16.994  0.00  0.00    +0.000 C 
BRANCH   8   9
ATOM      9  C   UNL     1       5.572   3.769  15.896  0.00  0.00    +0.000 A 
ATOM     10  C   UNL     1       5.266   3.542  14.547  0.00  0.00    +0.000 A 
ATOM     11  C   UNL     1       6.075   4.070  13.537  0.00  0.00    +0.000 A 
ATOM     12  C   UNL     1       7.206   4.831  13.859  0.00  0.00    +0.000 A 
ATOM     13  C   UNL     1       7.525   5.049  15.205  0.00  0.00    +0.000 A 
ATOM     14  C   UNL     1       6.721   4.507  16.216  0.00  0.00    +0.000 A 
BRANCH  12  15
ATOM     15  C   UNL     1       7.986   5.422  12.737  0.00  0.00    +0.000 C 
ATOM     16  O   UNL     1       7.645   5.322  11.569  0.00  0.00    +0.000 OA
BRANCH  15  17
ATOM     17  O   UNL     1       9.124   6.039  13.123  0.00  0.00    +0.000 OA
ATOM     18  H   UNL     1       9.032   6.676  13.849  0.00  0.00    +0.000 HD
ENDBRANCH  15  17
ENDBRANCH  12  15
ENDBRANCH   8   9
ENDBRANCH   5   8
ENDBRANCH   1   2
BRANCH   1  20
ATOM     19  O   UNL     1       0.467   5.044  20.480  0.00  0.00    +0.000 OA
ATOM     20  C   UNL     1       1.664   5.129  20.771  0.00  0.00    +0.000 C 
ATOM     21  N   UNL     1       2.428   6.273  20.648  0.00  0.00    +0.000 N 
ATOM     22  H   UNL     1       3.265   6.299  21.221  0.00  0.00    +0.000 HD
BRANCH  21  23
ATOM     23  C   UNL     1       1.905   7.474  20.132  0.00  0.00    +0.000 A 
ATOM     24  C   UNL     1       2.133   7.800  18.795  0.00  0.00    +0.000 A 
ATOM     25  C   UNL     1       1.676   9.021  18.287  0.00  0.00    +0.000 A 
ATOM     26  C   UNL     1       0.932   9.886  19.091  0.00  0.00    +0.000 A 
ATOM     27  C   UNL     1       0.705   9.565  20.430  0.00  0.00    +0.000 A 
ATOM     28  C   UNL     1       1.175   8.355  20.941  0.00  0.00    +0.000 A 
BRANCH  26  29
ATOM     29  O   UNL     1       0.501  11.057  18.508  0.00  0.00    +0.000 OA
BRANCH  29  30
ATOM     30  C   UNL     1       1.173  12.227  18.790  0.00  0.00    +0.000 A 
ATOM     31  C   UNL     1       0.551  13.096  19.688  0.00  0.00    +0.000 A 
ATOM     32  C   UNL     1       1.161  14.305  20.026  0.00  0.00    +0.000 A 
ATOM     33  C   UNL     1       2.393  14.647  19.469  0.00  0.00    +0.000 A 
ATOM     34  C   UNL     1       3.031  13.767  18.598  0.00  0.00    +0.000 A 
ATOM     35  C   UNL     1       2.435  12.547  18.278  0.00  0.00    +0.000 A 
ENDBRANCH  29  30
ENDBRANCH  26  29
ENDBRANCH  21  23
ENDBRANCH   1  20
TORSDOF 9
ENDMDL
MODEL 7
REMARK VINA RESULT:      -7.8      6.726      9.103
REMARK  Name = 
REMARK  9 active torsions:
REMARK  status: ('A' for Active; 'I' for Inactive)
REMARK    1  A    between atoms: C_2  and  C_3
REMARK    2  A    between atoms: C_3  and  N_4
REMARK    3  A    between atoms: N_7  and  C_8
REMARK    4  A    between atoms: C_8  and  C_9
REMARK    5  A    between atoms: C_12  and  C_13
REMARK    6  A    between atoms: C_13  and  O_15
REMARK    7  A    between atoms: N_20  and  C_21
REMARK    8  A    between atoms: C_24  and  O_25
REMARK    9  A    between atoms: O_25  and  C_26
REMARK                            x       y       z     vdW  Elec       q    Type
REMARK                         _______ _______ _______ _____ _____    ______ ____
ROOT
ATOM      1  C   UNL     1       7.787   7.454  17.724  0.00  0.00    +0.000 C 
ENDROOT
BRANCH   1   2
ATOM      2  N   UNL     1       6.395   7.206  17.271  0.00  0.00    +0.000 NA
ATOM      3  C   UNL     1       6.313   6.692  15.880  0.00  0.00    +0.000 C 
ATOM      4  C   UNL     1       6.742   5.214  15.648  0.00  0.00    +0.000 C 
ATOM      5  N   UNL     1       6.222   4.222  16.620  0.00  0.00    +0.000 NA
ATOM      6  C   UNL     1       6.402   4.754  17.983  0.00  0.00    +0.000 C 
ATOM      7  C   UNL     1       5.809   6.173  18.174  0.00  0.00    +0.000 C 
BRANCH   5   8
ATOM      8  C   UNL     1       4.818   3.877  16.339  0.00  0.00    +0.000 C 
BRANCH   8   9
ATOM      9  C   UNL     1       4.011   3.578  17.591  0.00  0.00    +0.000 A 
ATOM     10  C   UNL     1       4.495   2.680  18.553  0.00  0.00    +0.000 A 
ATOM     11  C   UNL     1       3.759   2.417  19.713  0.00  0.00    +0.000 A 
ATOM     12  C   UNL     1       2.525   3.045  19.928  0.00  0.00    +0.000 A 
ATOM     13  C   UNL     1       2.031   3.932  18.964  0.00  0.00    +0.000 A 
ATOM     14  C   UNL     1       2.762   4.183  17.796  0.00  0.00    +0.000 A 
BRANCH  12  15
ATOM     15  C   UNL     1       1.825   2.775  21.214  0.00  0.00    +0.000 C 
ATOM     16  O   UNL     1       2.417   2.472  22.238  0.00  0.00    +0.000 OA
BRANCH  15  17
ATOM     17  O   UNL     1       0.479   2.853  21.135  0.00  0.00    +0.000 OA
ATOM     18  H   UNL     1       0.041   2.116  20.681  0.00  0.00    +0.000 HD
ENDBRANCH  15  17
ENDBRANCH  12  15
ENDBRANCH   8   9
ENDBRANCH   5   8
ENDBRANCH   1   2
BRANCH   1  20
ATOM     19  O   UNL     1       7.623   9.798  17.353  0.00  0.00    +0.000 OA
ATOM     20  C   UNL     1       8.128   8.901  18.034  0.00  0.00    +0.000 C 
ATOM     21  N   UNL     1       9.059   9.098  19.036  0.00  0.00    +0.000 N 
ATOM     22  H   UNL     1       9.127   8.350  19.717  0.00  0.00    +0.000 HD
BRANCH  21  23
ATOM     23  C   UNL     1       9.557  10.376  19.358  0.00  0.00    +0.000 A 
ATOM     24  C   UNL     1      10.267  11.094  18.396  0.00  0.00    +0.000 A 
ATOM     25  C   UNL     1      10.824  12.336  18.724  0.00  0.00    +0.000 A 
ATOM     26  C   UNL     1      10.616  12.891  19.988  0.00  0.00    +0.000 A 
ATOM     27  C   UNL     1       9.910  12.173  20.952  0.00  0.00    +0.000 A 
ATOM     28  C   UNL     1       9.369  10.928  20.631  0.00  0.00    +0.000 A 
BRANCH  26  29
ATOM     29  O   UNL     1      11.181  14.125  20.221  0.00  0.00    +0.000 OA
BRANCH  29  30
ATOM     30  C   UNL     1      10.758  15.203  19.474  0.00  0.00    +0.000 A 
ATOM     31  C   UNL     1       9.438  15.612  19.669  0.00  0.00    +0.000 A 
ATOM     32  C   UNL     1       8.927  16.692  18.949  0.00  0.00    +0.000 A 
ATOM     33  C   UNL     1       9.735  17.369  18.035  0.00  0.00    +0.000 A 
ATOM     34  C   UNL     1      11.063  16.984  17.862  0.00  0.00    +0.000 A 
ATOM     35  C   UNL     1      11.582  15.919  18.600  0.00  0.00    +0.000 A 
ENDBRANCH  29  30
ENDBRANCH  26  29
ENDBRANCH  21  23
ENDBRANCH   1  20
TORSDOF 9
ENDMDL
MODEL 8
REMARK VINA RESULT:      -7.8      2.081      3.537
REMARK  Name = 
REMARK  9 active torsions:
REMARK  status: ('A' for Active; 'I' for Inactive)
REMARK    1  A    between atoms: C_2  and  C_3
REMARK    2  A    between atoms: C_3  and  N_4
REMARK    3  A    between atoms: N_7  and  C_8
REMARK    4  A    between atoms: C_8  and  C_9
REMARK    5  A    between atoms: C_12  and  C_13
REMARK    6  A    between atoms: C_13  and  O_15
REMARK    7  A    between atoms: N_20  and  C_21
REMARK    8  A    between atoms: C_24  and  O_25
REMARK    9  A    between atoms: O_25  and  C_26
REMARK                            x       y       z     vdW  Elec       q    Type
REMARK                         _______ _______ _______ _____ _____    ______ ____
ROOT
ATOM      1  C   UNL     1       2.214   7.436  20.172  0.00  0.00    +0.000 C 
ENDROOT
BRANCH   1   2
ATOM      2  N   UNL     1       2.103   6.536  18.995  0.00  0.00    +0.000 NA
ATOM      3  C   UNL     1       3.145   6.782  17.968  0.00  0.00    +0.000 C 
ATOM      4  C   UNL     1       4.590   6.306  18.301  0.00  0.00    +0.000 C 
ATOM      5  N   UNL     1       4.712   4.946  18.878  0.00  0.00    +0.000 NA
ATOM      6  C   UNL     1       3.706   4.790  19.944  0.00  0.00    +0.000 C 
ATOM      7  C   UNL     1       2.266   5.137  19.486  0.00  0.00    +0.000 C 
BRANCH   5   8
ATOM      8  C   UNL     1       4.591   3.907  17.841  0.00  0.00    +0.000 C 
BRANCH   8   9
ATOM      9  C   UNL     1       5.426   4.193  16.605  0.00  0.00    +0.000 A 
ATOM     10  C   UNL     1       4.876   4.047  15.324  0.00  0.00    +0.000 A 
ATOM     11  C   UNL     1       5.640   4.325  14.187  0.00  0.00    +0.000 A 
ATOM     12  C   UNL     1       6.969   4.750  14.312  0.00  0.00    +0.000 A 
ATOM     13  C   UNL     1       7.528   4.884  15.588  0.00  0.00    +0.000 A 
ATOM     14  C   UNL     1       6.766   4.591  16.726  0.00  0.00    +0.000 A 
BRANCH  12  15
ATOM     15  C   UNL     1       7.706   5.096  13.065  0.00  0.00    +0.000 C 
ATOM     16  O   UNL     1       7.429   4.615  11.977  0.00  0.00    +0.000 OA
BRANCH  15  17
ATOM     17  O   UNL     1       8.731   5.955  13.252  0.00  0.00    +0.000 OA
ATOM     18  H   UNL     1       9.313   5.759  14.003  0.00  0.00    +0.000 HD
ENDBRANCH  15  17
ENDBRANCH  12  15
ENDBRANCH   8   9
ENDBRANCH   5   8
ENDBRANCH   1   2
BRANCH   1  20
ATOM     19  O   UNL     1       0.245   8.157  21.296  0.00  0.00    +0.000 OA
ATOM     20  C   UNL     1       1.048   8.385  20.385  0.00  0.00    +0.000 C 
ATOM     21  N   UNL     1       0.936   9.415  19.473  0.00  0.00    +0.000 N 
ATOM     22  H   UNL     1       1.802   9.687  19.017  0.00  0.00    +0.000 HD
BRANCH  21  23
ATOM     23  C   UNL     1      -0.154  10.307  19.475  0.00  0.00    +0.000 A 
ATOM     24  C   UNL     1      -0.256  11.259  20.488  0.00  0.00    +0.000 A 
ATOM     25  C   UNL     1      -1.368  12.107  20.540  0.00  0.00    +0.000 A 
ATOM     26  C   UNL     1      -2.344  12.052  19.543  0.00  0.00    +0.000 A 
ATOM     27  C   UNL     1      -2.248  11.097  18.531  0.00  0.00    +0.000 A 
ATOM     28  C   UNL     1      -1.147  10.241  18.489  0.00  0.00    +0.000 A 
BRANCH  26  29
ATOM     29  O   UNL     1      -3.395  12.935  19.657  0.00  0.00    +0.000 OA
BRANCH  29  30
ATOM     30  C   UNL     1      -4.681  12.439  19.681  0.00  0.00    +0.000 A 
ATOM     31  C   UNL     1      -5.213  12.038  18.455  0.00  0.00    +0.000 A 
ATOM     32  C   UNL     1      -6.510  11.529  18.388  0.00  0.00    +0.000 A 
ATOM     33  C   UNL     1      -7.278  11.416  19.547  0.00  0.00    +0.000 A 
ATOM     34  C   UNL     1      -6.738  11.785  20.778  0.00  0.00    +0.000 A 
ATOM     35  C   UNL     1      -5.432  12.272  20.849  0.00  0.00    +0.000 A 
ENDBRANCH  29  30
ENDBRANCH  26  29
ENDBRANCH  21  23
ENDBRANCH   1  20
TORSDOF 9
ENDMDL
MODEL 9
REMARK VINA RESULT:      -7.7      0.770      1.490
REMARK  Name = 
REMARK  9 active torsions:
REMARK  status: ('A' for Active; 'I' for Inactive)
REMARK    1  A    between atoms: C_2  and  C_3
REMARK    2  A    between atoms: C_3  and  N_4
REMARK    3  A    between atoms: N_7  and  C_8
REMARK    4  A    between atoms: C_8  and  C_9
REMARK    5  A    between atoms: C_12  and  C_13
REMARK    6  A    between atoms: C_13  and  O_15
REMARK    7  A    between atoms: N_20  and  C_21
REMARK    8  A    between atoms: C_24  and  O_25
REMARK    9  A    between atoms: O_25  and  C_26
REMARK                            x       y       z     vdW  Elec       q    Type
REMARK                         _______ _______ _______ _____ _____    ______ ____
ROOT
ATOM      1  C   UNL     1       2.391   3.573  21.211  0.00  0.00    +0.000 C 
ENDROOT
BRANCH   1   2
ATOM      2  N   UNL     1       2.655   2.593  20.126  0.00  0.00    +0.000 NA
ATOM      3  C   UNL     1       2.107   3.013  18.812  0.00  0.00    +0.000 C 
ATOM      4  C   UNL     1       2.852   4.161  18.071  0.00  0.00    +0.000 C 
ATOM      5  N   UNL     1       4.330   4.062  18.031  0.00  0.00    +0.000 NA
ATOM      6  C   UNL     1       4.820   3.722  19.379  0.00  0.00    +0.000 C 
ATOM      7  C   UNL     1       4.135   2.471  19.986  0.00  0.00    +0.000 C 
BRANCH   5   8
ATOM      8  C   UNL     1       4.779   3.094  17.016  0.00  0.00    +0.000 C 
BRANCH   8   9
ATOM      9  C   UNL     1       5.590   3.729  15.899  0.00  0.00    +0.000 A 
ATOM     10  C   UNL     1       6.663   4.581  16.194  0.00  0.00    +0.000 A 
ATOM     11  C   UNL     1       7.419   5.153  15.166  0.00  0.00    +0.000 A 
ATOM     12  C   UNL     1       7.112   4.885  13.825  0.00  0.00    +0.000 A 
ATOM     13  C   UNL     1       6.032   4.045  13.525  0.00  0.00    +0.000 A 
ATOM     14  C   UNL     1       5.267   3.485  14.556  0.00  0.00    +0.000 A 
BRANCH  12  15
ATOM     15  C   UNL     1       7.998   5.469  12.781  0.00  0.00    +0.000 C 
ATOM     16  O   UNL     1       7.756   5.389  11.587  0.00  0.00    +0.000 OA
BRANCH  15  17
ATOM     17  O   UNL     1       9.111   6.057  13.270  0.00  0.00    +0.000 OA
ATOM     18  H   UNL     1       9.664   5.501  13.842  0.00  0.00    +0.000 HD
ENDBRANCH  15  17
ENDBRANCH  12  15
ENDBRANCH   8   9
ENDBRANCH   5   8
ENDBRANCH   1   2
BRANCH   1  20
ATOM     19  O   UNL     1       0.481   4.774  20.456  0.00  0.00    +0.000 OA
ATOM     20  C   UNL     1       1.668   4.841  20.789  0.00  0.00    +0.000 C 
ATOM     21  N   UNL     1       2.439   5.986  20.743  0.00  0.00    +0.000 N 
ATOM     22  H   UNL     1       3.257   5.982  21.344  0.00  0.00    +0.000 HD
BRANCH  21  23
ATOM     23  C   UNL     1       1.937   7.211  20.263  0.00  0.00    +0.000 A 
ATOM     24  C   UNL     1       2.234   7.608  18.960  0.00  0.00    +0.000 A 
ATOM     25  C   UNL     1       1.798   8.853  18.493  0.00  0.00    +0.000 A 
ATOM     26  C   UNL     1       1.008   9.672  19.302  0.00  0.00    +0.000 A 
ATOM     27  C   UNL     1       0.713   9.280  20.607  0.00  0.00    +0.000 A 
ATOM     28  C   UNL     1       1.162   8.046  21.078  0.00  0.00    +0.000 A 
BRANCH  26  29
ATOM     29  O   UNL     1       0.602  10.871  18.759  0.00  0.00    +0.000 OA
BRANCH  29  30
ATOM     30  C   UNL     1      -0.147  11.732  19.531  0.00  0.00    +0.000 A 
ATOM     31  C   UNL     1      -1.523  11.738  19.294  0.00  0.00    +0.000 A 
ATOM     32  C   UNL     1      -2.355  12.583  20.029  0.00  0.00    +0.000 A 
ATOM     33  C   UNL     1      -1.815  13.421  21.004  0.00  0.00    +0.000 A 
ATOM     34  C   UNL     1      -0.447  13.394  21.266  0.00  0.00    +0.000 A 
ATOM     35  C   UNL     1       0.383  12.532  20.549  0.00  0.00    +0.000 A 
ENDBRANCH  29  30
ENDBRANCH  26  29
ENDBRANCH  21  23
ENDBRANCH   1  20
TORSDOF 9
ENDMDL
