MODEL 1
REMARK VINA RESULT:      -7.3      0.000      0.000
REMARK  Name = 
REMARK  5 active torsions:
REMARK  status: ('A' for Active; 'I' for Inactive)
REMARK    1  A    between atoms: C_1  and  C_2
REMARK    2  A    between atoms: C_2  and  C_8
REMARK    3  A    between atoms: N_3  and  N_4
REMARK    4  A    between atoms: N_11  and  C_12
REMARK    5  A    between atoms: C_19  and  C_20
REMARK                            x       y       z     vdW  Elec       q    Type
REMARK                         _______ _______ _______ _____ _____    ______ ____
ROOT
ATOM      1  C   UNL     1       6.336   5.241  17.918  0.00  0.00    +0.000 A 
ATOM      2  N   UNL     1       6.972   5.037  19.115  0.00  0.00    +0.000 NA
ATOM      3  N   UNL     1       6.074   4.663  20.008  0.00  0.00    +0.000 NA
ATOM      4  N   UNL     1       4.885   4.497  19.381  0.00  0.00    +0.000 N 
ATOM      5  C   UNL     1       4.991   4.927  18.068  0.00  0.00    +0.000 A 
ATOM      6  C   UNL     1       3.857   5.146  17.142  0.00  0.00    +0.000 C 
ENDROOT
BRANCH   4   7
ATOM      7  C   UNL     1       3.788   3.940  20.084  0.00  0.00    +0.000 A 
ATOM      8  C   UNL     1       2.676   4.748  20.372  0.00  0.00    +0.000 A 
ATOM      9  C   UNL     1       1.597   4.223  21.087  0.00  0.00    +0.000 A 
ATOM     10  C   UNL     1       1.650   2.910  21.540  0.00  0.00    +0.000 A 
ATOM     11  F   UNL     1       0.630   2.416  22.255  0.00  0.00    +0.000 F 
ATOM     12  C   UNL     1       2.752   2.105  21.276  0.00  0.00    +0.000 A 
ATOM     13  C   UNL     1       3.826   2.615  20.541  0.00  0.00    +0.000 A 
ENDBRANCH   4   7
BRANCH   1  15
ATOM     14  C   UNL     1       7.496   7.240  16.889  0.00  0.00    +0.000 C 
ATOM     15  C   UNL     1       7.051   5.797  16.768  0.00  0.00    +0.000 C 
ATOM     16  N   UNL     1       7.216   5.026  15.727  0.00  0.00    +0.000 NA
BRANCH  16  17
ATOM     17  N   UNL     1       7.812   5.539  14.606  0.00  0.00    +0.000 N 
ATOM     18  C   UNL     1       7.518   5.129  13.337  0.00  0.00    +0.000 C 
ATOM     19  N   UNL     1       6.592   4.148  13.236  0.00  0.00    +0.000 N 
ATOM     20  O   UNL     1       8.053   5.620  12.349  0.00  0.00    +0.000 OA
ATOM     21  H   UNL     1       8.466   6.308  14.650  0.00  0.00    +0.000 HD
ATOM     22  H   UNL     1       6.437   3.602  14.070  0.00  0.00    +0.000 HD
ATOM     23  H   UNL     1       6.480   3.720  12.332  0.00  0.00    +0.000 HD
ENDBRANCH  16  17
ENDBRANCH   1  15
TORSDOF 3
ENDMDL
MODEL 2
REMARK VINA RESULT:      -7.2      0.101      1.086
REMARK  Name = 
REMARK  5 active torsions:
REMARK  status: ('A' for Active; 'I' for Inactive)
REMARK    1  A    between atoms: C_1  and  C_2
REMARK    2  A    between atoms: C_2  and  C_8
REMARK    3  A    between atoms: N_3  and  N_4
REMARK    4  A    between atoms: N_11  and  C_12
REMARK    5  A    between atoms: C_19  and  C_20
REMARK                            x       y       z     vdW  Elec       q    Type
REMARK                         _______ _______ _______ _____ _____    ______ ____
ROOT
ATOM      1  C   UNL     1       6.341   5.262  17.899  0.00  0.00    +0.000 A 
ATOM      2  N   UNL     1       7.005   4.987  19.066  0.00  0.00    +0.000 NA
ATOM      3  N   UNL     1       6.119   4.637  19.980  0.00  0.00    +0.000 NA
ATOM      4  N   UNL     1       4.901   4.556  19.392  0.00  0.00    +0.000 N 
ATOM      5  C   UNL     1       4.986   5.019  18.088  0.00  0.00    +0.000 A 
ATOM      6  C   UNL     1       3.834   5.329  17.211  0.00  0.00    +0.000 C 
ENDROOT
BRANCH   4   7
ATOM      7  C   UNL     1       3.800   4.039  20.119  0.00  0.00    +0.000 A 
ATOM      8  C   UNL     1       3.876   2.741  20.650  0.00  0.00    +0.000 A 
ATOM      9  C   UNL     1       2.791   2.207  21.347  0.00  0.00    +0.000 A 
ATOM     10  C   UNL     1       1.625   2.953  21.476  0.00  0.00    +0.000 A 
ATOM     11  F   UNL     1       0.571   2.428  22.115  0.00  0.00    +0.000 F 
ATOM     12  C   UNL     1       1.531   4.233  20.941  0.00  0.00    +0.000 A 
ATOM     13  C   UNL     1       2.621   4.785  20.263  0.00  0.00    +0.000 A 
ENDBRANCH   4   7
BRANCH   1  15
ATOM     14  C   UNL     1       7.456   7.268  16.833  0.00  0.00    +0.000 C 
ATOM     15  C   UNL     1       7.045   5.812  16.740  0.00  0.00    +0.000 C 
ATOM     16  N   UNL     1       7.232   5.025  15.715  0.00  0.00    +0.000 NA
BRANCH  16  17
ATOM     17  N   UNL     1       7.818   5.530  14.585  0.00  0.00    +0.000 N 
ATOM     18  C   UNL     1       7.508   5.117  13.321  0.00  0.00    +0.000 C 
ATOM     19  N   UNL     1       6.575   4.141  13.234  0.00  0.00    +0.000 N 
ATOM     20  O   UNL     1       8.035   5.600  12.325  0.00  0.00    +0.000 OA
ATOM     21  H   UNL     1       8.477   6.295  14.619  0.00  0.00    +0.000 HD
ATOM     22  H   UNL     1       6.426   3.600  14.072  0.00  0.00    +0.000 HD
ATOM     23  H   UNL     1       6.450   3.710  12.333  0.00  0.00    +0.000 HD
ENDBRANCH  16  17
ENDBRANCH   1  15
TORSDOF 3
ENDMDL
MODEL 3
REMARK VINA RESULT:      -7.1      4.498      5.542
REMARK  Name = 
REMARK  5 active torsions:
REMARK  status: ('A' for Active; 'I' for Inactive)
REMARK    1  A    between atoms: C_1  and  C_2
REMARK    2  A    between atoms: C_2  and  C_8
REMARK    3  A    between atoms: N_3  and  N_4
REMARK    4  A    between atoms: N_11  and  C_12
REMARK    5  A    between atoms: C_19  and  C_20
REMARK                            x       y       z     vdW  Elec       q    Type
REMARK                         _______ _______ _______ _____ _____    ______ ____
ROOT
ATOM      1  C   UNL     1       3.004   7.021  18.474  0.00  0.00    +0.000 A 
ATOM      2  N   UNL     1       2.832   8.194  17.786  0.00  0.00    +0.000 NA
ATOM      3  N   UNL     1       1.970   8.945  18.447  0.00  0.00    +0.000 NA
ATOM      4  N   UNL     1       1.675   8.334  19.619  0.00  0.00    +0.000 N 
ATOM      5  C   UNL     1       2.252   7.074  19.641  0.00  0.00    +0.000 A 
ATOM      6  C   UNL     1       1.952   6.009  20.625  0.00  0.00    +0.000 C 
ENDROOT
BRANCH   4   7
ATOM      7  C   UNL     1       0.896   9.009  20.592  0.00  0.00    +0.000 A 
ATOM      8  C   UNL     1      -0.016   9.994  20.176  0.00  0.00    +0.000 A 
ATOM      9  C   UNL     1      -0.773  10.687  21.122  0.00  0.00    +0.000 A 
ATOM     10  C   UNL     1      -0.590  10.423  22.474  0.00  0.00    +0.000 A 
ATOM     11  F   UNL     1      -1.291  11.112  23.384  0.00  0.00    +0.000 F 
ATOM     12  C   UNL     1       0.322   9.462  22.899  0.00  0.00    +0.000 A 
ATOM     13  C   UNL     1       1.067   8.746  21.958  0.00  0.00    +0.000 A 
ENDBRANCH   4   7
BRANCH   1  15
ATOM     14  C   UNL     1       3.038   4.673  17.533  0.00  0.00    +0.000 C 
ATOM     15  C   UNL     1       3.798   5.926  17.914  0.00  0.00    +0.000 C 
ATOM     16  N   UNL     1       5.089   6.101  17.821  0.00  0.00    +0.000 NA
BRANCH  16  17
ATOM     17  N   UNL     1       5.871   5.070  17.375  0.00  0.00    +0.000 N 
ATOM     18  C   UNL     1       7.068   5.244  16.742  0.00  0.00    +0.000 C 
ATOM     19  N   UNL     1       7.451   6.529  16.555  0.00  0.00    +0.000 N 
ATOM     20  O   UNL     1       7.758   4.302  16.370  0.00  0.00    +0.000 OA
ATOM     21  H   UNL     1       5.633   4.103  17.549  0.00  0.00    +0.000 HD
ATOM     22  H   UNL     1       6.717   7.218  16.604  0.00  0.00    +0.000 HD
ATOM     23  H   UNL     1       8.242   6.684  15.952  0.00  0.00    +0.000 HD
ENDBRANCH  16  17
ENDBRANCH   1  15
TORSDOF 3
ENDMDL
MODEL 4
REMARK VINA RESULT:      -7.1      1.052      1.132
REMARK  Name = 
REMARK  5 active torsions:
REMARK  status: ('A' for Active; 'I' for Inactive)
REMARK    1  A    between atoms: C_1  and  C_2
REMARK    2  A    between atoms: C_2  and  C_8
REMARK    3  A    between atoms: N_3  and  N_4
REMARK    4  A    between atoms: N_11  and  C_12
REMARK    5  A    between atoms: C_19  and  C_20
REMARK                            x       y       z     vdW  Elec       q    Type
REMARK                         _______ _______ _______ _____ _____    ______ ____
ROOT
ATOM      1  C   UNL     1       5.320   5.300  17.244  0.00  0.00    +0.000 A 
ATOM      2  N   UNL     1       5.807   5.847  18.403  0.00  0.00    +0.000 NA
ATOM      3  N   UNL     1       5.023   5.482  19.400  0.00  0.00    +0.000 NA
ATOM      4  N   UNL     1       4.106   4.603  18.930  0.00  0.00    +0.000 N 
ATOM      5  C   UNL     1       4.212   4.518  17.550  0.00  0.00    +0.000 A 
ATOM      6  C   UNL     1       3.230   3.871  16.652  0.00  0.00    +0.000 C 
ENDROOT
BRANCH   4   7
ATOM      7  C   UNL     1       3.243   3.932  19.832  0.00  0.00    +0.000 A 
ATOM      8  C   UNL     1       1.937   4.414  20.019  0.00  0.00    +0.000 A 
ATOM      9  C   UNL     1       1.082   3.780  20.923  0.00  0.00    +0.000 A 
ATOM     10  C   UNL     1       1.546   2.697  21.660  0.00  0.00    +0.000 A 
ATOM     11  F   UNL     1       0.737   2.110  22.553  0.00  0.00    +0.000 F 
ATOM     12  C   UNL     1       2.842   2.221  21.497  0.00  0.00    +0.000 A 
ATOM     13  C   UNL     1       3.697   2.834  20.577  0.00  0.00    +0.000 A 
ENDBRANCH   4   7
BRANCH   1  15
ATOM     14  C   UNL     1       5.247   6.787  15.198  0.00  0.00    +0.000 C 
ATOM     15  C   UNL     1       5.900   5.641  15.944  0.00  0.00    +0.000 C 
ATOM     16  N   UNL     1       6.901   4.918  15.520  0.00  0.00    +0.000 NA
BRANCH  16  17
ATOM     17  N   UNL     1       7.418   5.161  14.276  0.00  0.00    +0.000 N 
ATOM     18  C   UNL     1       7.108   4.423  13.169  0.00  0.00    +0.000 C 
ATOM     19  N   UNL     1       6.250   3.396  13.369  0.00  0.00    +0.000 N 
ATOM     20  O   UNL     1       7.571   4.675  12.062  0.00  0.00    +0.000 OA
ATOM     21  H   UNL     1       8.018   5.952  14.089  0.00  0.00    +0.000 HD
ATOM     22  H   UNL     1       6.164   3.075  14.321  0.00  0.00    +0.000 HD
ATOM     23  H   UNL     1       6.135   2.745  12.610  0.00  0.00    +0.000 HD
ENDBRANCH  16  17
ENDBRANCH   1  15
TORSDOF 3
ENDMDL
MODEL 5
REMARK VINA RESULT:      -7.0      3.410      4.110
REMARK  Name = 
REMARK  5 active torsions:
REMARK  status: ('A' for Active; 'I' for Inactive)
REMARK    1  A    between atoms: C_1  and  C_2
REMARK    2  A    between atoms: C_2  and  C_8
REMARK    3  A    between atoms: N_3  and  N_4
REMARK    4  A    between atoms: N_11  and  C_12
REMARK    5  A    between atoms: C_19  and  C_20
REMARK                            x       y       z     vdW  Elec       q    Type
REMARK                         _______ _______ _______ _____ _____    ______ ____
ROOT
ATOM      1  C   UNL     1       4.641   4.953  16.573  0.00  0.00    +0.000 A 
ATOM      2  N   UNL     1       3.620   4.165  17.037  0.00  0.00    +0.000 NA
ATOM      3  N   UNL     1       2.886   4.878  17.871  0.00  0.00    +0.000 NA
ATOM      4  N   UNL     1       3.338   6.154  17.861  0.00  0.00    +0.000 N 
ATOM      5  C   UNL     1       4.499   6.228  17.107  0.00  0.00    +0.000 A 
ATOM      6  C   UNL     1       5.425   7.382  17.067  0.00  0.00    +0.000 C 
ENDROOT
BRANCH   4   7
ATOM      7  C   UNL     1       2.619   7.163  18.549  0.00  0.00    +0.000 A 
ATOM      8  C   UNL     1       2.292   6.971  19.901  0.00  0.00    +0.000 A 
ATOM      9  C   UNL     1       1.562   7.943  20.588  0.00  0.00    +0.000 A 
ATOM     10  C   UNL     1       1.131   9.080  19.914  0.00  0.00    +0.000 A 
ATOM     11  F   UNL     1       0.401   9.997  20.563  0.00  0.00    +0.000 F 
ATOM     12  C   UNL     1       1.434   9.274  18.571  0.00  0.00    +0.000 A 
ATOM     13  C   UNL     1       2.185   8.318  17.882  0.00  0.00    +0.000 A 
ENDBRANCH   4   7
BRANCH   1  15
ATOM     14  C   UNL     1       7.080   4.311  16.364  0.00  0.00    +0.000 C 
ATOM     15  C   UNL     1       5.704   4.397  15.735  0.00  0.00    +0.000 C 
ATOM     16  N   UNL     1       5.395   4.054  14.513  0.00  0.00    +0.000 NA
BRANCH  16  17
ATOM     17  N   UNL     1       6.382   3.603  13.678  0.00  0.00    +0.000 N 
ATOM     18  C   UNL     1       6.172   3.257  12.374  0.00  0.00    +0.000 C 
ATOM     19  N   UNL     1       4.896   3.369  11.935  0.00  0.00    +0.000 N 
ATOM     20  O   UNL     1       7.078   2.875  11.641  0.00  0.00    +0.000 OA
ATOM     21  H   UNL     1       7.350   3.561  13.965  0.00  0.00    +0.000 HD
ATOM     22  H   UNL     1       4.186   3.388  12.649  0.00  0.00    +0.000 HD
ATOM     23  H   UNL     1       4.689   2.969  11.034  0.00  0.00    +0.000 HD
ENDBRANCH  16  17
ENDBRANCH   1  15
TORSDOF 3
ENDMDL
MODEL 6
REMARK VINA RESULT:      -7.0      4.500      5.617
REMARK  Name = 
REMARK  5 active torsions:
REMARK  status: ('A' for Active; 'I' for Inactive)
REMARK    1  A    between atoms: C_1  and  C_2
REMARK    2  A    between atoms: C_2  and  C_8
REMARK    3  A    between atoms: N_3  and  N_4
REMARK    4  A    between atoms: N_11  and  C_12
REMARK    5  A    between atoms: C_19  and  C_20
REMARK                            x       y       z     vdW  Elec       q    Type
REMARK                         _______ _______ _______ _____ _____    ______ ____
ROOT
ATOM      1  C   UNL     1       2.979   7.070  18.438  0.00  0.00    +0.000 A 
ATOM      2  N   UNL     1       2.794   8.234  17.739  0.00  0.00    +0.000 NA
ATOM      3  N   UNL     1       1.946   8.994  18.407  0.00  0.00    +0.000 NA
ATOM      4  N   UNL     1       1.673   8.398  19.593  0.00  0.00    +0.000 N 
ATOM      5  C   UNL     1       2.251   7.138  19.619  0.00  0.00    +0.000 A 
ATOM      6  C   UNL     1       1.969   6.086  20.622  0.00  0.00    +0.000 C 
ENDROOT
BRANCH   4   7
ATOM      7  C   UNL     1       0.914   9.086  20.571  0.00  0.00    +0.000 A 
ATOM      8  C   UNL     1       1.111   8.786  21.929  0.00  0.00    +0.000 A 
ATOM      9  C   UNL     1       0.353   9.436  22.905  0.00  0.00    +0.000 A 
ATOM     10  C   UNL     1      -0.619  10.351  22.520  0.00  0.00    +0.000 A 
ATOM     11  F   UNL     1      -1.370  10.950  23.454  0.00  0.00    +0.000 F 
ATOM     12  C   UNL     1      -0.836  10.645  21.178  0.00  0.00    +0.000 A 
ATOM     13  C   UNL     1      -0.065  10.017  20.196  0.00  0.00    +0.000 A 
ENDBRANCH   4   7
BRANCH   1  15
ATOM     14  C   UNL     1       3.003   4.691  17.575  0.00  0.00    +0.000 C 
ATOM     15  C   UNL     1       3.762   5.967  17.877  0.00  0.00    +0.000 C 
ATOM     16  N   UNL     1       5.044   6.156  17.716  0.00  0.00    +0.000 NA
BRANCH  16  17
ATOM     17  N   UNL     1       5.819   5.121  17.266  0.00  0.00    +0.000 N 
ATOM     18  C   UNL     1       7.051   5.285  16.701  0.00  0.00    +0.000 C 
ATOM     19  N   UNL     1       7.478   6.564  16.586  0.00  0.00    +0.000 N 
ATOM     20  O   UNL     1       7.732   4.338  16.325  0.00  0.00    +0.000 OA
ATOM     21  H   UNL     1       5.547   4.155  17.388  0.00  0.00    +0.000 HD
ATOM     22  H   UNL     1       6.762   7.272  16.627  0.00  0.00    +0.000 HD
ATOM     23  H   UNL     1       8.303   6.720  16.030  0.00  0.00    +0.000 HD
ENDBRANCH  16  17
ENDBRANCH   1  15
TORSDOF 3
ENDMDL
MODEL 7
REMARK VINA RESULT:      -7.0      3.395      4.011
REMARK  Name = 
REMARK  5 active torsions:
REMARK  status: ('A' for Active; 'I' for Inactive)
REMARK    1  A    between atoms: C_1  and  C_2
REMARK    2  A    between atoms: C_2  and  C_8
REMARK    3  A    between atoms: N_3  and  N_4
REMARK    4  A    between atoms: N_11  and  C_12
REMARK    5  A    between atoms: C_19  and  C_20
REMARK                            x       y       z     vdW  Elec       q    Type
REMARK                         _______ _______ _______ _____ _____    ______ ____
ROOT
ATOM      1  C   UNL     1       4.631   4.916  16.590  0.00  0.00    +0.000 A 
ATOM      2  N   UNL     1       3.632   4.102  17.057  0.00  0.00    +0.000 NA
ATOM      3  N   UNL     1       2.883   4.796  17.895  0.00  0.00    +0.000 NA
ATOM      4  N   UNL     1       3.303   6.084  17.884  0.00  0.00    +0.000 N 
ATOM      5  C   UNL     1       4.458   6.187  17.125  0.00  0.00    +0.000 A 
ATOM      6  C   UNL     1       5.355   7.364  17.083  0.00  0.00    +0.000 C 
ENDROOT
BRANCH   4   7
ATOM      7  C   UNL     1       2.561   7.073  18.576  0.00  0.00    +0.000 A 
ATOM      8  C   UNL     1       2.165   8.236  17.894  0.00  0.00    +0.000 A 
ATOM      9  C   UNL     1       1.456   9.233  18.567  0.00  0.00    +0.000 A 
ATOM     10  C   UNL     1       1.180   9.082  19.920  0.00  0.00    +0.000 A 
ATOM     11  F   UNL     1       0.530  10.054  20.575  0.00  0.00    +0.000 F 
ATOM     12  C   UNL     1       1.581   7.944  20.611  0.00  0.00    +0.000 A 
ATOM     13  C   UNL     1       2.270   6.930  19.940  0.00  0.00    +0.000 A 
ENDBRANCH   4   7
BRANCH   1  15
ATOM     14  C   UNL     1       7.082   4.328  16.374  0.00  0.00    +0.000 C 
ATOM     15  C   UNL     1       5.704   4.388  15.747  0.00  0.00    +0.000 C 
ATOM     16  N   UNL     1       5.401   4.046  14.524  0.00  0.00    +0.000 NA
BRANCH  16  17
ATOM     17  N   UNL     1       6.395   3.621  13.684  0.00  0.00    +0.000 N 
ATOM     18  C   UNL     1       6.191   3.282  12.378  0.00  0.00    +0.000 C 
ATOM     19  N   UNL     1       4.914   3.373  11.940  0.00  0.00    +0.000 N 
ATOM     20  O   UNL     1       7.104   2.923  11.642  0.00  0.00    +0.000 OA
ATOM     21  H   UNL     1       7.364   3.595  13.971  0.00  0.00    +0.000 HD
ATOM     22  H   UNL     1       4.203   3.372  12.655  0.00  0.00    +0.000 HD
ATOM     23  H   UNL     1       4.714   2.976  11.036  0.00  0.00    +0.000 HD
ENDBRANCH  16  17
ENDBRANCH   1  15
TORSDOF 3
ENDMDL
MODEL 8
REMARK VINA RESULT:      -7.0      1.372      1.688
REMARK  Name = 
REMARK  5 active torsions:
REMARK  status: ('A' for Active; 'I' for Inactive)
REMARK    1  A    between atoms: C_1  and  C_2
REMARK    2  A    between atoms: C_2  and  C_8
REMARK    3  A    between atoms: N_3  and  N_4
REMARK    4  A    between atoms: N_11  and  C_12
REMARK    5  A    between atoms: C_19  and  C_20
REMARK                            x       y       z     vdW  Elec       q    Type
REMARK                         _______ _______ _______ _____ _____    ______ ____
ROOT
ATOM      1  C   UNL     1       5.227   4.761  16.911  0.00  0.00    +0.000 A 
ATOM      2  N   UNL     1       4.340   3.985  16.212  0.00  0.00    +0.000 NA
ATOM      3  N   UNL     1       3.559   3.361  17.074  0.00  0.00    +0.000 NA
ATOM      4  N   UNL     1       3.840   3.815  18.319  0.00  0.00    +0.000 N 
ATOM      5  C   UNL     1       4.945   4.650  18.267  0.00  0.00    +0.000 A 
ATOM      6  C   UNL     1       5.711   5.134  19.438  0.00  0.00    +0.000 C 
ENDROOT
BRANCH   4   7
ATOM      7  C   UNL     1       3.028   3.425  19.413  0.00  0.00    +0.000 A 
ATOM      8  C   UNL     1       1.706   3.894  19.488  0.00  0.00    +0.000 A 
ATOM      9  C   UNL     1       0.900   3.540  20.572  0.00  0.00    +0.000 A 
ATOM     10  C   UNL     1       1.428   2.754  21.590  0.00  0.00    +0.000 A 
ATOM     11  F   UNL     1       0.666   2.443  22.647  0.00  0.00    +0.000 F 
ATOM     12  C   UNL     1       2.740   2.297  21.535  0.00  0.00    +0.000 A 
ATOM     13  C   UNL     1       3.546   2.626  20.442  0.00  0.00    +0.000 A 
ENDBRANCH   4   7
BRANCH   1  15
ATOM     14  C   UNL     1       6.647   6.850  16.753  0.00  0.00    +0.000 C 
ATOM     15  C   UNL     1       6.314   5.467  16.230  0.00  0.00    +0.000 C 
ATOM     16  N   UNL     1       6.881   4.871  15.216  0.00  0.00    +0.000 NA
BRANCH  16  17
ATOM     17  N   UNL     1       7.848   5.534  14.509  0.00  0.00    +0.000 N 
ATOM     18  C   UNL     1       8.004   5.430  13.157  0.00  0.00    +0.000 C 
ATOM     19  N   UNL     1       7.140   4.599  12.528  0.00  0.00    +0.000 N 
ATOM     20  O   UNL     1       8.867   6.051  12.545  0.00  0.00    +0.000 OA
ATOM     21  H   UNL     1       8.470   6.200  14.946  0.00  0.00    +0.000 HD
ATOM     22  H   UNL     1       6.686   3.914  13.112  0.00  0.00    +0.000 HD
ATOM     23  H   UNL     1       7.338   4.381  11.565  0.00  0.00    +0.000 HD
ENDBRANCH  16  17
ENDBRANCH   1  15
TORSDOF 3
ENDMDL
MODEL 9
REMARK VINA RESULT:      -6.9      1.057      1.541
REMARK  Name = 
REMARK  5 active torsions:
REMARK  status: ('A' for Active; 'I' for Inactive)
REMARK    1  A    between atoms: C_1  and  C_2
REMARK    2  A    between atoms: C_2  and  C_8
REMARK    3  A    between atoms: N_3  and  N_4
REMARK    4  A    between atoms: N_11  and  C_12
REMARK    5  A    between atoms: C_19  and  C_20
REMARK                            x       y       z     vdW  Elec       q    Type
REMARK                         _______ _______ _______ _____ _____    ______ ____
ROOT
ATOM      1  C   UNL     1       5.345   5.332  17.215  0.00  0.00    +0.000 A 
ATOM      2  N   UNL     1       5.896   5.844  18.361  0.00  0.00    +0.000 NA
ATOM      3  N   UNL     1       5.125   5.513  19.380  0.00  0.00    +0.000 NA
ATOM      4  N   UNL     1       4.149   4.687  18.934  0.00  0.00    +0.000 N 
ATOM      5  C   UNL     1       4.209   4.607  17.551  0.00  0.00    +0.000 A 
ATOM      6  C   UNL     1       3.167   4.018  16.680  0.00  0.00    +0.000 C 
ENDROOT
BRANCH   4   7
ATOM      7  C   UNL     1       3.282   4.055  19.859  0.00  0.00    +0.000 A 
ATOM      8  C   UNL     1       3.733   2.924  20.560  0.00  0.00    +0.000 A 
ATOM      9  C   UNL     1       2.882   2.273  21.456  0.00  0.00    +0.000 A 
ATOM     10  C   UNL     1       1.580   2.730  21.619  0.00  0.00    +0.000 A 
ATOM     11  F   UNL     1       0.753   2.085  22.452  0.00  0.00    +0.000 F 
ATOM     12  C   UNL     1       1.116   3.838  20.918  0.00  0.00    +0.000 A 
ATOM     13  C   UNL     1       1.968   4.510  20.037  0.00  0.00    +0.000 A 
ENDBRANCH   4   7
BRANCH   1  15
ATOM     14  C   UNL     1       5.240   6.791  15.149  0.00  0.00    +0.000 C 
ATOM     15  C   UNL     1       5.902   5.653  15.900  0.00  0.00    +0.000 C 
ATOM     16  N   UNL     1       6.892   4.920  15.466  0.00  0.00    +0.000 NA
BRANCH  16  17
ATOM     17  N   UNL     1       7.386   5.142  14.209  0.00  0.00    +0.000 N 
ATOM     18  C   UNL     1       7.090   4.361  13.129  0.00  0.00    +0.000 C 
ATOM     19  N   UNL     1       6.270   3.311  13.370  0.00  0.00    +0.000 N 
ATOM     20  O   UNL     1       7.530   4.595  12.009  0.00  0.00    +0.000 OA
ATOM     21  H   UNL     1       7.955   5.948  13.992  0.00  0.00    +0.000 HD
ATOM     22  H   UNL     1       6.207   3.016  14.332  0.00  0.00    +0.000 HD
ATOM     23  H   UNL     1       6.170   2.634  12.632  0.00  0.00    +0.000 HD
ENDBRANCH  16  17
ENDBRANCH   1  15
TORSDOF 3
ENDMDL
