MODEL 1
REMARK VINA RESULT:      -7.7      0.000      0.000
REMARK  Name = 
REMARK  2 active torsions:
REMARK  status: ('A' for Active; 'I' for Inactive)
REMARK    1  A    between atoms: C_1  and  C_11
REMARK    2  A    between atoms: N_2  and  N_3
REMARK                            x       y       z     vdW  Elec       q    Type
REMARK                         _______ _______ _______ _____ _____    ______ ____
ROOT
ATOM      1  C   UNL     1       2.045   7.880  19.389  0.00  0.00    +0.000 C 
ATOM      2  N   UNL     1       1.621   8.926  18.758  0.00  0.00    +0.000 NA
ENDROOT
BRANCH   2   3
ATOM      3  N   UNL     1       0.922   9.796  19.605  0.00  0.00    +0.000 NA
ATOM      4  C   UNL     1      -0.125  10.314  19.017  0.00  0.00    +0.000 C 
ATOM      5  N   UNL     1      -0.968  11.116  19.723  0.00  0.00    +0.000 N 
ATOM      6  C   UNL     1      -1.698  12.232  19.162  0.00  0.00    +0.000 C 
ATOM      7  C   UNL     1      -2.907  11.774  18.355  0.00  0.00    +0.000 C 
ATOM      8  C   UNL     1      -2.523  11.120  17.030  0.00  0.00    +0.000 C 
ATOM      9  C   UNL     1      -1.758   9.820  17.226  0.00  0.00    +0.000 C 
ATOM     10  N   UNL     1      -0.421  10.078  17.707  0.00  0.00    +0.000 N 
ATOM     11  H   UNL     1      -0.562  11.315  20.631  0.00  0.00    +0.000 HD
ATOM     12  H   UNL     1       0.255   9.377  17.400  0.00  0.00    +0.000 HD
ENDBRANCH   2   3
BRANCH   1  13
ATOM     13  C   UNL     1       2.740   6.794  18.670  0.00  0.00    +0.000 A 
ATOM     14  C   UNL     1       2.445   5.464  18.964  0.00  0.00    +0.000 A 
ATOM     15  C   UNL     1       3.097   4.442  18.265  0.00  0.00    +0.000 A 
ATOM     16  C   UNL     1       4.042   4.738  17.267  0.00  0.00    +0.000 A 
ATOM     17  C   UNL     1       4.713   3.728  16.557  0.00  0.00    +0.000 A 
ATOM     18  C   UNL     1       5.646   4.049  15.568  0.00  0.00    +0.000 A 
ATOM     19  C   UNL     1       5.917   5.382  15.269  0.00  0.00    +0.000 A 
ATOM     20  C   UNL     1       5.260   6.397  15.964  0.00  0.00    +0.000 A 
ATOM     21  C   UNL     1       4.327   6.090  16.967  0.00  0.00    +0.000 A 
ATOM     22  C   UNL     1       3.674   7.105  17.674  0.00  0.00    +0.000 A 
ENDBRANCH   1  13
TORSDOF 2
ENDMDL
MODEL 2
REMARK VINA RESULT:      -7.6      5.083      8.168
REMARK  Name = 
REMARK  2 active torsions:
REMARK  status: ('A' for Active; 'I' for Inactive)
REMARK    1  A    between atoms: C_1  and  C_11
REMARK    2  A    between atoms: N_2  and  N_3
REMARK                            x       y       z     vdW  Elec       q    Type
REMARK                         _______ _______ _______ _____ _____    ______ ____
ROOT
ATOM      1  C   UNL     1       5.429   5.969  17.176  0.00  0.00    +0.000 C 
ATOM      2  N   UNL     1       6.418   5.172  16.935  0.00  0.00    +0.000 NA
ENDROOT
BRANCH   2   3
ATOM      3  N   UNL     1       7.272   5.685  15.951  0.00  0.00    +0.000 NA
ATOM      4  C   UNL     1       7.093   5.099  14.795  0.00  0.00    +0.000 C 
ATOM      5  N   UNL     1       7.780   5.535  13.704  0.00  0.00    +0.000 N 
ATOM      6  C   UNL     1       8.219   4.684  12.620  0.00  0.00    +0.000 C 
ATOM      7  C   UNL     1       7.076   4.320  11.681  0.00  0.00    +0.000 C 
ATOM      8  C   UNL     1       6.089   3.335  12.300  0.00  0.00    +0.000 C 
ATOM      9  C   UNL     1       5.349   3.927  13.490  0.00  0.00    +0.000 C 
ATOM     10  N   UNL     1       6.228   4.058  14.628  0.00  0.00    +0.000 N 
ATOM     11  H   UNL     1       8.477   6.212  13.993  0.00  0.00    +0.000 HD
ATOM     12  H   UNL     1       5.742   3.966  15.521  0.00  0.00    +0.000 HD
ENDBRANCH   2   3
BRANCH   1  13
ATOM     13  C   UNL     1       4.365   5.588  18.126  0.00  0.00    +0.000 A 
ATOM     14  C   UNL     1       3.292   6.449  18.351  0.00  0.00    +0.000 A 
ATOM     15  C   UNL     1       2.280   6.072  19.240  0.00  0.00    +0.000 A 
ATOM     16  C   UNL     1       2.328   4.834  19.907  0.00  0.00    +0.000 A 
ATOM     17  C   UNL     1       1.327   4.437  20.809  0.00  0.00    +0.000 A 
ATOM     18  C   UNL     1       1.397   3.201  21.457  0.00  0.00    +0.000 A 
ATOM     19  C   UNL     1       2.464   2.342  21.208  0.00  0.00    +0.000 A 
ATOM     20  C   UNL     1       3.466   2.720  20.315  0.00  0.00    +0.000 A 
ATOM     21  C   UNL     1       3.415   3.963  19.664  0.00  0.00    +0.000 A 
ATOM     22  C   UNL     1       4.424   4.350  18.777  0.00  0.00    +0.000 A 
ENDBRANCH   1  13
TORSDOF 2
ENDMDL
MODEL 3
REMARK VINA RESULT:      -7.5      1.990      3.247
REMARK  Name = 
REMARK  2 active torsions:
REMARK  status: ('A' for Active; 'I' for Inactive)
REMARK    1  A    between atoms: C_1  and  C_11
REMARK    2  A    between atoms: N_2  and  N_3
REMARK                            x       y       z     vdW  Elec       q    Type
REMARK                         _______ _______ _______ _____ _____    ______ ____
ROOT
ATOM      1  C   UNL     1       2.365   8.588  18.113  0.00  0.00    +0.000 C 
ATOM      2  N   UNL     1       1.325   8.835  18.840  0.00  0.00    +0.000 NA
ENDROOT
BRANCH   2   3
ATOM      3  N   UNL     1       1.098  10.211  18.973  0.00  0.00    +0.000 NA
ATOM      4  C   UNL     1       0.470  10.498  20.084  0.00  0.00    +0.000 C 
ATOM      5  N   UNL     1       0.245  11.798  20.416  0.00  0.00    +0.000 N 
ATOM      6  C   UNL     1      -0.912  12.268  21.146  0.00  0.00    +0.000 C 
ATOM      7  C   UNL     1      -0.806  11.969  22.636  0.00  0.00    +0.000 C 
ATOM      8  C   UNL     1      -0.975  10.487  22.958  0.00  0.00    +0.000 C 
ATOM      9  C   UNL     1       0.147   9.637  22.380  0.00  0.00    +0.000 C 
ATOM     10  N   UNL     1       0.029   9.536  20.944  0.00  0.00    +0.000 N 
ATOM     11  H   UNL     1       0.499  12.394  19.635  0.00  0.00    +0.000 HD
ATOM     12  H   UNL     1       0.391   8.657  20.575  0.00  0.00    +0.000 HD
ENDBRANCH   2   3
BRANCH   1  13
ATOM     13  C   UNL     1       2.830   7.202  17.907  0.00  0.00    +0.000 A 
ATOM     14  C   UNL     1       4.119   6.965  17.432  0.00  0.00    +0.000 A 
ATOM     15  C   UNL     1       4.558   5.648  17.255  0.00  0.00    +0.000 A 
ATOM     16  C   UNL     1       3.717   4.560  17.556  0.00  0.00    +0.000 A 
ATOM     17  C   UNL     1       4.134   3.230  17.381  0.00  0.00    +0.000 A 
ATOM     18  C   UNL     1       3.282   2.167  17.690  0.00  0.00    +0.000 A 
ATOM     19  C   UNL     1       2.004   2.418  18.183  0.00  0.00    +0.000 A 
ATOM     20  C   UNL     1       1.574   3.732  18.363  0.00  0.00    +0.000 A 
ATOM     21  C   UNL     1       2.416   4.810  18.049  0.00  0.00    +0.000 A 
ATOM     22  C   UNL     1       1.985   6.130  18.217  0.00  0.00    +0.000 A 
ENDBRANCH   1  13
TORSDOF 2
ENDMDL
MODEL 4
REMARK VINA RESULT:      -7.4      2.727      8.079
REMARK  Name = 
REMARK  2 active torsions:
REMARK  status: ('A' for Active; 'I' for Inactive)
REMARK    1  A    between atoms: C_1  and  C_11
REMARK    2  A    between atoms: N_2  and  N_3
REMARK                            x       y       z     vdW  Elec       q    Type
REMARK                         _______ _______ _______ _____ _____    ______ ____
ROOT
ATOM      1  C   UNL     1       2.120   8.316  18.328  0.00  0.00    +0.000 C 
ATOM      2  N   UNL     1       2.589   7.244  18.878  0.00  0.00    +0.000 NA
ENDROOT
BRANCH   2   3
ATOM      3  N   UNL     1       3.277   6.445  17.956  0.00  0.00    +0.000 NA
ATOM      4  C   UNL     1       3.032   5.172  18.133  0.00  0.00    +0.000 C 
ATOM      5  N   UNL     1       3.551   4.258  17.268  0.00  0.00    +0.000 N 
ATOM      6  C   UNL     1       3.951   2.918  17.637  0.00  0.00    +0.000 C 
ATOM      7  C   UNL     1       2.753   1.991  17.804  0.00  0.00    +0.000 C 
ATOM      8  C   UNL     1       1.939   2.292  19.059  0.00  0.00    +0.000 C 
ATOM      9  C   UNL     1       1.279   3.662  19.007  0.00  0.00    +0.000 C 
ATOM     10  N   UNL     1       2.260   4.711  19.157  0.00  0.00    +0.000 N 
ATOM     11  H   UNL     1       4.206   4.717  16.645  0.00  0.00    +0.000 HD
ATOM     12  H   UNL     1       1.884   5.546  19.609  0.00  0.00    +0.000 HD
ENDBRANCH   2   3
BRANCH   1  13
ATOM     13  C   UNL     1       1.294   9.262  19.103  0.00  0.00    +0.000 A 
ATOM     14  C   UNL     1       0.832  10.434  18.504  0.00  0.00    +0.000 A 
ATOM     15  C   UNL     1       0.035  11.317  19.241  0.00  0.00    +0.000 A 
ATOM     16  C   UNL     1      -0.310  11.037  20.576  0.00  0.00    +0.000 A 
ATOM     17  C   UNL     1      -1.103  11.912  21.337  0.00  0.00    +0.000 A 
ATOM     18  C   UNL     1      -1.434  11.609  22.660  0.00  0.00    +0.000 A 
ATOM     19  C   UNL     1      -0.983  10.426  23.239  0.00  0.00    +0.000 A 
ATOM     20  C   UNL     1      -0.195   9.546  22.498  0.00  0.00    +0.000 A 
ATOM     21  C   UNL     1       0.154   9.841  21.171  0.00  0.00    +0.000 A 
ATOM     22  C   UNL     1       0.954   8.966  20.428  0.00  0.00    +0.000 A 
ENDBRANCH   1  13
TORSDOF 2
ENDMDL
MODEL 5
REMARK VINA RESULT:      -7.3      1.792      3.052
REMARK  Name = 
REMARK  2 active torsions:
REMARK  status: ('A' for Active; 'I' for Inactive)
REMARK    1  A    between atoms: C_1  and  C_11
REMARK    2  A    between atoms: N_2  and  N_3
REMARK                            x       y       z     vdW  Elec       q    Type
REMARK                         _______ _______ _______ _____ _____    ______ ____
ROOT
ATOM      1  C   UNL     1       3.188   8.095  17.560  0.00  0.00    +0.000 C 
ATOM      2  N   UNL     1       2.067   8.679  17.833  0.00  0.00    +0.000 NA
ENDROOT
BRANCH   2   3
ATOM      3  N   UNL     1       2.172  10.072  17.750  0.00  0.00    +0.000 NA
ATOM      4  C   UNL     1       1.222  10.675  18.417  0.00  0.00    +0.000 C 
ATOM      5  N   UNL     1       1.222  12.032  18.515  0.00  0.00    +0.000 N 
ATOM      6  C   UNL     1       0.029  12.848  18.586  0.00  0.00    +0.000 C 
ATOM      7  C   UNL     1      -0.607  12.808  19.970  0.00  0.00    +0.000 C 
ATOM      8  C   UNL     1      -1.279  11.472  20.275  0.00  0.00    +0.000 C 
ATOM      9  C   UNL     1      -0.283  10.326  20.349  0.00  0.00    +0.000 C 
ATOM     10  N   UNL     1       0.216   9.993  19.034  0.00  0.00    +0.000 N 
ATOM     11  H   UNL     1       1.936  12.415  17.905  0.00  0.00    +0.000 HD
ATOM     12  H   UNL     1       0.460   9.006  18.939  0.00  0.00    +0.000 HD
ENDBRANCH   2   3
BRANCH   1  13
ATOM     13  C   UNL     1       3.322   6.629  17.663  0.00  0.00    +0.000 A 
ATOM     14  C   UNL     1       4.521   6.012  17.309  0.00  0.00    +0.000 A 
ATOM     15  C   UNL     1       4.643   4.624  17.425  0.00  0.00    +0.000 A 
ATOM     16  C   UNL     1       3.575   3.841  17.901  0.00  0.00    +0.000 A 
ATOM     17  C   UNL     1       3.674   2.445  18.021  0.00  0.00    +0.000 A 
ATOM     18  C   UNL     1       2.599   1.691  18.498  0.00  0.00    +0.000 A 
ATOM     19  C   UNL     1       1.414   2.321  18.868  0.00  0.00    +0.000 A 
ATOM     20  C   UNL     1       1.299   3.706  18.756  0.00  0.00    +0.000 A 
ATOM     21  C   UNL     1       2.367   4.476  18.269  0.00  0.00    +0.000 A 
ATOM     22  C   UNL     1       2.252   5.865  18.144  0.00  0.00    +0.000 A 
ENDBRANCH   1  13
TORSDOF 2
ENDMDL
MODEL 6
REMARK VINA RESULT:      -7.3      2.791      8.281
REMARK  Name = 
REMARK  2 active torsions:
REMARK  status: ('A' for Active; 'I' for Inactive)
REMARK    1  A    between atoms: C_1  and  C_11
REMARK    2  A    between atoms: N_2  and  N_3
REMARK                            x       y       z     vdW  Elec       q    Type
REMARK                         _______ _______ _______ _____ _____    ______ ____
ROOT
ATOM      1  C   UNL     1       1.765   8.277  19.494  0.00  0.00    +0.000 C 
ATOM      2  N   UNL     1       2.309   7.150  19.822  0.00  0.00    +0.000 NA
ENDROOT
BRANCH   2   3
ATOM      3  N   UNL     1       2.983   6.564  18.744  0.00  0.00    +0.000 NA
ATOM      4  C   UNL     1       2.774   5.275  18.678  0.00  0.00    +0.000 C 
ATOM      5  N   UNL     1       3.283   4.560  17.639  0.00  0.00    +0.000 N 
ATOM      6  C   UNL     1       3.727   3.186  17.730  0.00  0.00    +0.000 C 
ATOM      7  C   UNL     1       2.558   2.209  17.750  0.00  0.00    +0.000 C 
ATOM      8  C   UNL     1       1.781   2.240  19.063  0.00  0.00    +0.000 C 
ATOM      9  C   UNL     1       1.088   3.573  19.296  0.00  0.00    +0.000 C 
ATOM     10  N   UNL     1       2.048   4.603  19.617  0.00  0.00    +0.000 N 
ATOM     11  H   UNL     1       3.906   5.149  17.097  0.00  0.00    +0.000 HD
ATOM     12  H   UNL     1       1.669   5.324  20.232  0.00  0.00    +0.000 HD
ENDBRANCH   2   3
BRANCH   1  13
ATOM     13  C   UNL     1       0.938   9.027  20.460  0.00  0.00    +0.000 A 
ATOM     14  C   UNL     1       0.977   8.695  21.813  0.00  0.00    +0.000 A 
ATOM     15  C   UNL     1       0.203   9.422  22.724  0.00  0.00    +0.000 A 
ATOM     16  C   UNL     1      -0.610  10.486  22.293  0.00  0.00    +0.000 A 
ATOM     17  C   UNL     1      -1.400  11.226  23.189  0.00  0.00    +0.000 A 
ATOM     18  C   UNL     1      -2.196  12.281  22.737  0.00  0.00    +0.000 A 
ATOM     19  C   UNL     1      -2.210  12.616  21.385  0.00  0.00    +0.000 A 
ATOM     20  C   UNL     1      -1.431  11.892  20.482  0.00  0.00    +0.000 A 
ATOM     21  C   UNL     1      -0.633  10.823  20.921  0.00  0.00    +0.000 A 
ATOM     22  C   UNL     1       0.140  10.088  20.017  0.00  0.00    +0.000 A 
ENDBRANCH   1  13
TORSDOF 2
ENDMDL
MODEL 7
REMARK VINA RESULT:      -7.2      2.652      3.590
REMARK  Name = 
REMARK  2 active torsions:
REMARK  status: ('A' for Active; 'I' for Inactive)
REMARK    1  A    between atoms: C_1  and  C_11
REMARK    2  A    between atoms: N_2  and  N_3
REMARK                            x       y       z     vdW  Elec       q    Type
REMARK                         _______ _______ _______ _____ _____    ______ ____
ROOT
ATOM      1  C   UNL     1       2.646   8.202  18.254  0.00  0.00    +0.000 C 
ATOM      2  N   UNL     1       1.654   8.991  18.002  0.00  0.00    +0.000 NA
ENDROOT
BRANCH   2   3
ATOM      3  N   UNL     1       2.087  10.259  17.597  0.00  0.00    +0.000 NA
ATOM      4  C   UNL     1       1.662  11.201  18.399  0.00  0.00    +0.000 C 
ATOM      5  N   UNL     1       2.062  12.487  18.203  0.00  0.00    +0.000 N 
ATOM      6  C   UNL     1       1.252  13.649  18.494  0.00  0.00    +0.000 C 
ATOM      7  C   UNL     1       1.206  13.954  19.986  0.00  0.00    +0.000 C 
ATOM      8  C   UNL     1       0.372  12.947  20.772  0.00  0.00    +0.000 C 
ATOM      9  C   UNL     1       0.975  11.551  20.749  0.00  0.00    +0.000 C 
ATOM     10  N   UNL     1       0.825  10.948  19.446  0.00  0.00    +0.000 N 
ATOM     11  H   UNL     1       2.562  12.554  17.324  0.00  0.00    +0.000 HD
ATOM     12  H   UNL     1       0.742   9.931  19.484  0.00  0.00    +0.000 HD
ENDBRANCH   2   3
BRANCH   1  13
ATOM     13  C   UNL     1       2.416   6.839  18.772  0.00  0.00    +0.000 A 
ATOM     14  C   UNL     1       2.065   6.652  20.108  0.00  0.00    +0.000 A 
ATOM     15  C   UNL     1       1.832   5.357  20.585  0.00  0.00    +0.000 A 
ATOM     16  C   UNL     1       1.941   4.243  19.734  0.00  0.00    +0.000 A 
ATOM     17  C   UNL     1       1.718   2.934  20.193  0.00  0.00    +0.000 A 
ATOM     18  C   UNL     1       1.830   1.844  19.326  0.00  0.00    +0.000 A 
ATOM     19  C   UNL     1       2.160   2.046  17.989  0.00  0.00    +0.000 A 
ATOM     20  C   UNL     1       2.385   3.339  17.517  0.00  0.00    +0.000 A 
ATOM     21  C   UNL     1       2.285   4.443  18.378  0.00  0.00    +0.000 A 
ATOM     22  C   UNL     1       2.521   5.740  17.910  0.00  0.00    +0.000 A 
ENDBRANCH   1  13
TORSDOF 2
ENDMDL
MODEL 8
REMARK VINA RESULT:      -7.2      1.865      2.541
REMARK  Name = 
REMARK  2 active torsions:
REMARK  status: ('A' for Active; 'I' for Inactive)
REMARK    1  A    between atoms: C_1  and  C_11
REMARK    2  A    between atoms: N_2  and  N_3
REMARK                            x       y       z     vdW  Elec       q    Type
REMARK                         _______ _______ _______ _____ _____    ______ ____
ROOT
ATOM      1  C   UNL     1       2.267   8.781  18.075  0.00  0.00    +0.000 C 
ATOM      2  N   UNL     1       1.499   8.956  19.101  0.00  0.00    +0.000 NA
ENDROOT
BRANCH   2   3
ATOM      3  N   UNL     1       1.094  10.291  19.227  0.00  0.00    +0.000 NA
ATOM      4  C   UNL     1       0.428  10.497  20.333  0.00  0.00    +0.000 C 
ATOM      5  N   UNL     1       0.033  11.758  20.658  0.00  0.00    +0.000 N 
ATOM      6  C   UNL     1      -1.180  12.076  21.380  0.00  0.00    +0.000 C 
ATOM      7  C   UNL     1      -1.044  11.798  22.872  0.00  0.00    +0.000 C 
ATOM      8  C   UNL     1      -1.021  10.308  23.199  0.00  0.00    +0.000 C 
ATOM      9  C   UNL     1       0.206   9.609  22.631  0.00  0.00    +0.000 C 
ATOM     10  N   UNL     1       0.110   9.489  21.195  0.00  0.00    +0.000 N 
ATOM     11  H   UNL     1       0.211  12.379  19.877  0.00  0.00    +0.000 HD
ATOM     12  H   UNL     1       0.587   8.663  20.832  0.00  0.00    +0.000 HD
ENDBRANCH   2   3
BRANCH   1  13
ATOM     13  C   UNL     1       2.871   7.463  17.800  0.00  0.00    +0.000 A 
ATOM     14  C   UNL     1       2.253   6.304  18.264  0.00  0.00    +0.000 A 
ATOM     15  C   UNL     1       2.824   5.058  17.984  0.00  0.00    +0.000 A 
ATOM     16  C   UNL     1       4.011   4.959  17.236  0.00  0.00    +0.000 A 
ATOM     17  C   UNL     1       4.606   3.719  16.947  0.00  0.00    +0.000 A 
ATOM     18  C   UNL     1       5.784   3.648  16.199  0.00  0.00    +0.000 A 
ATOM     19  C   UNL     1       6.381   4.813  15.724  0.00  0.00    +0.000 A 
ATOM     20  C   UNL     1       5.803   6.052  16.001  0.00  0.00    +0.000 A 
ATOM     21  C   UNL     1       4.625   6.140  16.759  0.00  0.00    +0.000 A 
ATOM     22  C   UNL     1       4.050   7.381  17.048  0.00  0.00    +0.000 A 
ENDBRANCH   1  13
TORSDOF 2
ENDMDL
MODEL 9
REMARK VINA RESULT:      -7.1      2.081      8.022
REMARK  Name = 
REMARK  2 active torsions:
REMARK  status: ('A' for Active; 'I' for Inactive)
REMARK    1  A    between atoms: C_1  and  C_11
REMARK    2  A    between atoms: N_2  and  N_3
REMARK                            x       y       z     vdW  Elec       q    Type
REMARK                         _______ _______ _______ _____ _____    ______ ____
ROOT
ATOM      1  C   UNL     1       2.038   9.129  17.895  0.00  0.00    +0.000 C 
ATOM      2  N   UNL     1       2.213   7.923  18.329  0.00  0.00    +0.000 NA
ENDROOT
BRANCH   2   3
ATOM      3  N   UNL     1       3.397   7.360  17.839  0.00  0.00    +0.000 NA
ATOM      4  C   UNL     1       3.360   6.052  17.856  0.00  0.00    +0.000 C 
ATOM      5  N   UNL     1       4.396   5.341  17.333  0.00  0.00    +0.000 N 
ATOM      6  C   UNL     1       4.838   4.055  17.828  0.00  0.00    +0.000 C 
ATOM      7  C   UNL     1       3.917   2.926  17.385  0.00  0.00    +0.000 C 
ATOM      8  C   UNL     1       2.568   2.944  18.099  0.00  0.00    +0.000 C 
ATOM      9  C   UNL     1       1.748   4.179  17.758  0.00  0.00    +0.000 C 
ATOM     10  N   UNL     1       2.310   5.357  18.377  0.00  0.00    +0.000 N 
ATOM     11  H   UNL     1       5.158   5.971  17.109  0.00  0.00    +0.000 HD
ATOM     12  H   UNL     1       1.606   6.061  18.606  0.00  0.00    +0.000 HD
ENDBRANCH   2   3
BRANCH   1  13
ATOM     13  C   UNL     1       0.813   9.882  18.227  0.00  0.00    +0.000 A 
ATOM     14  C   UNL     1       0.878  10.965  19.103  0.00  0.00    +0.000 A 
ATOM     15  C   UNL     1      -0.286  11.683  19.399  0.00  0.00    +0.000 A 
ATOM     16  C   UNL     1      -1.519  11.330  18.821  0.00  0.00    +0.000 A 
ATOM     17  C   UNL     1      -2.702  12.033  19.108  0.00  0.00    +0.000 A 
ATOM     18  C   UNL     1      -3.913  11.664  18.519  0.00  0.00    +0.000 A 
ATOM     19  C   UNL     1      -3.961  10.593  17.631  0.00  0.00    +0.000 A 
ATOM     20  C   UNL     1      -2.796   9.885  17.334  0.00  0.00    +0.000 A 
ATOM     21  C   UNL     1      -1.573  10.238  17.925  0.00  0.00    +0.000 A 
ATOM     22  C   UNL     1      -0.405   9.523  17.639  0.00  0.00    +0.000 A 
ENDBRANCH   1  13
TORSDOF 2
ENDMDL
