MODEL 1
REMARK VINA RESULT:      -7.9      0.000      0.000
REMARK  Name = 
REMARK  4 active torsions:
REMARK  status: ('A' for Active; 'I' for Inactive)
REMARK    1  A    between atoms: C_1  and  C_2
REMARK    2  A    between atoms: C_4  and  C_5
REMARK    3  A    between atoms: C_12  and  C_13
REMARK    4  A    between atoms: C_13  and  N_15
REMARK                            x       y       z     vdW  Elec       q    Type
REMARK                         _______ _______ _______ _____ _____    ______ ____
ROOT
ATOM      1  C   UNL     1       5.316   4.137  14.655  0.00  0.00    +0.000 C 
ATOM      2  C   UNL     1       5.107   4.272  16.105  0.00  0.00    +0.000 A 
ATOM      3  O   UNL     1       3.905   3.862  16.610  0.00  0.00    +0.000 OA
ATOM      4  C   UNL     1       4.032   4.037  17.963  0.00  0.00    +0.000 A 
ATOM      5  N   UNL     1       5.195   4.536  18.335  0.00  0.00    +0.000 NA
ATOM      6  C   UNL     1       5.912   4.667  17.152  0.00  0.00    +0.000 A 
ENDROOT
BRANCH   4   7
ATOM      7  C   UNL     1       2.871   3.693  18.777  0.00  0.00    +0.000 A 
ATOM      8  C   UNL     1       1.826   2.888  18.298  0.00  0.00    +0.000 A 
ATOM      9  C   UNL     1       0.720   2.603  19.105  0.00  0.00    +0.000 A 
ATOM     10  C   UNL     1       0.648   3.120  20.399  0.00  0.00    +0.000 A 
ATOM     11  C   UNL     1       1.684   3.911  20.889  0.00  0.00    +0.000 A 
ATOM     12  C   UNL     1       2.792   4.187  20.087  0.00  0.00    +0.000 A 
ENDBRANCH   4   7
BRANCH   6  13
ATOM     13  C   UNL     1       7.305   5.085  17.036  0.00  0.00    +0.000 C 
ATOM     14  O   UNL     1       8.240   4.284  17.095  0.00  0.00    +0.000 OA
BRANCH  13  15
ATOM     15  N   UNL     1       7.433   6.428  16.787  0.00  0.00    +0.000 NA
ATOM     16  C   UNL     1       7.861   7.194  17.730  0.00  0.00    +0.000 C 
ATOM     17  N   UNL     1       8.164   6.877  19.011  0.00  0.00    +0.000 N 
ATOM     18  N   UNL     1       8.007   8.518  17.504  0.00  0.00    +0.000 N 
ATOM     19  H   UNL     1       8.260   5.876  19.178  0.00  0.00    +0.000 HD
ATOM     20  H   UNL     1       8.915   7.396  19.441  0.00  0.00    +0.000 HD
ATOM     21  H   UNL     1       7.972   8.773  16.523  0.00  0.00    +0.000 HD
ATOM     22  H   UNL     1       8.699   9.024  18.037  0.00  0.00    +0.000 HD
ENDBRANCH  13  15
ENDBRANCH   6  13
TORSDOF 3
ENDMDL
MODEL 2
REMARK VINA RESULT:      -7.9      0.270      1.143
REMARK  Name = 
REMARK  4 active torsions:
REMARK  status: ('A' for Active; 'I' for Inactive)
REMARK    1  A    between atoms: C_1  and  C_2
REMARK    2  A    between atoms: C_4  and  C_5
REMARK    3  A    between atoms: C_12  and  C_13
REMARK    4  A    between atoms: C_13  and  N_15
REMARK                            x       y       z     vdW  Elec       q    Type
REMARK                         _______ _______ _______ _____ _____    ______ ____
ROOT
ATOM      1  C   UNL     1       5.403   4.078  14.566  0.00  0.00    +0.000 C 
ATOM      2  C   UNL     1       5.126   4.256  16.000  0.00  0.00    +0.000 A 
ATOM      3  O   UNL     1       3.904   3.858  16.461  0.00  0.00    +0.000 OA
ATOM      4  C   UNL     1       3.966   4.074  17.813  0.00  0.00    +0.000 A 
ATOM      5  N   UNL     1       5.110   4.587  18.222  0.00  0.00    +0.000 NA
ATOM      6  C   UNL     1       5.881   4.685  17.071  0.00  0.00    +0.000 A 
ENDROOT
BRANCH   4   7
ATOM      7  C   UNL     1       2.770   3.750  18.581  0.00  0.00    +0.000 A 
ATOM      8  C   UNL     1       2.402   4.456  19.737  0.00  0.00    +0.000 A 
ATOM      9  C   UNL     1       1.259   4.096  20.458  0.00  0.00    +0.000 A 
ATOM     10  C   UNL     1       0.472   3.027  20.030  0.00  0.00    +0.000 A 
ATOM     11  C   UNL     1       0.821   2.325  18.878  0.00  0.00    +0.000 A 
ATOM     12  C   UNL     1       1.956   2.691  18.155  0.00  0.00    +0.000 A 
ENDBRANCH   4   7
BRANCH   6  13
ATOM     13  C   UNL     1       7.277   5.104  17.007  0.00  0.00    +0.000 C 
ATOM     14  O   UNL     1       8.210   4.305  17.108  0.00  0.00    +0.000 OA
BRANCH  13  15
ATOM     15  N   UNL     1       7.414   6.445  16.755  0.00  0.00    +0.000 NA
ATOM     16  C   UNL     1       7.846   7.211  17.696  0.00  0.00    +0.000 C 
ATOM     17  N   UNL     1       8.148   6.896  18.977  0.00  0.00    +0.000 N 
ATOM     18  N   UNL     1       8.002   8.534  17.467  0.00  0.00    +0.000 N 
ATOM     19  H   UNL     1       8.238   5.894  19.147  0.00  0.00    +0.000 HD
ATOM     20  H   UNL     1       8.903   7.411  19.406  0.00  0.00    +0.000 HD
ATOM     21  H   UNL     1       7.968   8.786  16.485  0.00  0.00    +0.000 HD
ATOM     22  H   UNL     1       8.697   9.036  17.998  0.00  0.00    +0.000 HD
ENDBRANCH  13  15
ENDBRANCH   6  13
TORSDOF 3
ENDMDL
MODEL 3
REMARK VINA RESULT:      -7.8      2.679      6.076
REMARK  Name = 
REMARK  4 active torsions:
REMARK  status: ('A' for Active; 'I' for Inactive)
REMARK    1  A    between atoms: C_1  and  C_2
REMARK    2  A    between atoms: C_4  and  C_5
REMARK    3  A    between atoms: C_12  and  C_13
REMARK    4  A    between atoms: C_13  and  N_15
REMARK                            x       y       z     vdW  Elec       q    Type
REMARK                         _______ _______ _______ _____ _____    ______ ____
ROOT
ATOM      1  C   UNL     1       7.867   7.631  17.920  0.00  0.00    +0.000 C 
ATOM      2  C   UNL     1       7.203   6.477  17.294  0.00  0.00    +0.000 A 
ATOM      3  O   UNL     1       7.382   6.298  15.952  0.00  0.00    +0.000 OA
ATOM      4  C   UNL     1       6.721   5.130  15.677  0.00  0.00    +0.000 A 
ATOM      5  N   UNL     1       6.135   4.584  16.725  0.00  0.00    +0.000 NA
ATOM      6  C   UNL     1       6.459   5.424  17.783  0.00  0.00    +0.000 A 
ENDROOT
BRANCH   4   7
ATOM      7  C   UNL     1       6.725   4.689  14.287  0.00  0.00    +0.000 A 
ATOM      8  C   UNL     1       5.830   3.724  13.798  0.00  0.00    +0.000 A 
ATOM      9  C   UNL     1       5.886   3.314  12.462  0.00  0.00    +0.000 A 
ATOM     10  C   UNL     1       6.837   3.863  11.602  0.00  0.00    +0.000 A 
ATOM     11  C   UNL     1       7.723   4.829  12.073  0.00  0.00    +0.000 A 
ATOM     12  C   UNL     1       7.661   5.245  13.403  0.00  0.00    +0.000 A 
ENDBRANCH   4   7
BRANCH   6  13
ATOM     13  C   UNL     1       6.132   5.200  19.187  0.00  0.00    +0.000 C 
ATOM     14  O   UNL     1       6.984   5.238  20.076  0.00  0.00    +0.000 OA
BRANCH  13  15
ATOM     15  N   UNL     1       4.787   5.022  19.392  0.00  0.00    +0.000 NA
ATOM     16  C   UNL     1       4.352   3.835  19.643  0.00  0.00    +0.000 C 
ATOM     17  N   UNL     1       5.037   2.668  19.680  0.00  0.00    +0.000 N 
ATOM     18  N   UNL     1       3.033   3.637  19.862  0.00  0.00    +0.000 N 
ATOM     19  H   UNL     1       6.050   2.784  19.719  0.00  0.00    +0.000 HD
ATOM     20  H   UNL     1       4.720   1.977  20.344  0.00  0.00    +0.000 HD
ATOM     21  H   UNL     1       2.512   4.491  20.027  0.00  0.00    +0.000 HD
ATOM     22  H   UNL     1       2.753   2.863  20.446  0.00  0.00    +0.000 HD
ENDBRANCH  13  15
ENDBRANCH   6  13
TORSDOF 3
ENDMDL
MODEL 4
REMARK VINA RESULT:      -7.8      2.361      3.145
REMARK  Name = 
REMARK  4 active torsions:
REMARK  status: ('A' for Active; 'I' for Inactive)
REMARK    1  A    between atoms: C_1  and  C_2
REMARK    2  A    between atoms: C_4  and  C_5
REMARK    3  A    between atoms: C_12  and  C_13
REMARK    4  A    between atoms: C_13  and  N_15
REMARK                            x       y       z     vdW  Elec       q    Type
REMARK                         _______ _______ _______ _____ _____    ______ ____
ROOT
ATOM      1  C   UNL     1       7.457   4.733  17.830  0.00  0.00    +0.000 C 
ATOM      2  C   UNL     1       5.995   4.593  17.738  0.00  0.00    +0.000 A 
ATOM      3  O   UNL     1       5.334   4.134  18.842  0.00  0.00    +0.000 OA
ATOM      4  C   UNL     1       4.012   4.181  18.487  0.00  0.00    +0.000 A 
ATOM      5  N   UNL     1       3.800   4.610  17.257  0.00  0.00    +0.000 NA
ATOM      6  C   UNL     1       5.066   4.908  16.769  0.00  0.00    +0.000 A 
ENDROOT
BRANCH   4   7
ATOM      7  C   UNL     1       3.051   3.721  19.484  0.00  0.00    +0.000 A 
ATOM      8  C   UNL     1       1.684   4.027  19.411  0.00  0.00    +0.000 A 
ATOM      9  C   UNL     1       0.802   3.585  20.403  0.00  0.00    +0.000 A 
ATOM     10  C   UNL     1       1.279   2.832  21.476  0.00  0.00    +0.000 A 
ATOM     11  C   UNL     1       2.632   2.512  21.553  0.00  0.00    +0.000 A 
ATOM     12  C   UNL     1       3.510   2.946  20.559  0.00  0.00    +0.000 A 
ENDBRANCH   4   7
BRANCH   6  13
ATOM     13  C   UNL     1       5.365   5.517  15.478  0.00  0.00    +0.000 C 
ATOM     14  O   UNL     1       5.552   6.728  15.348  0.00  0.00    +0.000 OA
BRANCH  13  15
ATOM     15  N   UNL     1       5.481   4.590  14.473  0.00  0.00    +0.000 NA
ATOM     16  C   UNL     1       6.594   4.511  13.829  0.00  0.00    +0.000 C 
ATOM     17  N   UNL     1       7.704   5.275  13.954  0.00  0.00    +0.000 N 
ATOM     18  N   UNL     1       6.735   3.597  12.843  0.00  0.00    +0.000 N 
ATOM     19  H   UNL     1       7.724   5.840  14.803  0.00  0.00    +0.000 HD
ATOM     20  H   UNL     1       8.590   4.818  13.794  0.00  0.00    +0.000 HD
ATOM     21  H   UNL     1       6.011   2.888  12.836  0.00  0.00    +0.000 HD
ATOM     22  H   UNL     1       7.659   3.245  12.642  0.00  0.00    +0.000 HD
ENDBRANCH  13  15
ENDBRANCH   6  13
TORSDOF 3
ENDMDL
MODEL 5
REMARK VINA RESULT:      -7.6      2.373      3.253
REMARK  Name = 
REMARK  4 active torsions:
REMARK  status: ('A' for Active; 'I' for Inactive)
REMARK    1  A    between atoms: C_1  and  C_2
REMARK    2  A    between atoms: C_4  and  C_5
REMARK    3  A    between atoms: C_12  and  C_13
REMARK    4  A    between atoms: C_13  and  N_15
REMARK                            x       y       z     vdW  Elec       q    Type
REMARK                         _______ _______ _______ _____ _____    ______ ____
ROOT
ATOM      1  C   UNL     1       7.330   5.657  18.091  0.00  0.00    +0.000 C 
ATOM      2  C   UNL     1       5.946   5.176  17.947  0.00  0.00    +0.000 A 
ATOM      3  O   UNL     1       5.319   4.715  19.070  0.00  0.00    +0.000 OA
ATOM      4  C   UNL     1       4.050   4.415  18.647  0.00  0.00    +0.000 A 
ATOM      5  N   UNL     1       3.846   4.632  17.362  0.00  0.00    +0.000 NA
ATOM      6  C   UNL     1       5.049   5.150  16.900  0.00  0.00    +0.000 A 
ENDROOT
BRANCH   4   7
ATOM      7  C   UNL     1       3.140   3.872  19.649  0.00  0.00    +0.000 A 
ATOM      8  C   UNL     1       3.536   2.898  20.578  0.00  0.00    +0.000 A 
ATOM      9  C   UNL     1       2.623   2.387  21.507  0.00  0.00    +0.000 A 
ATOM     10  C   UNL     1       1.306   2.846  21.515  0.00  0.00    +0.000 A 
ATOM     11  C   UNL     1       0.904   3.821  20.605  0.00  0.00    +0.000 A 
ATOM     12  C   UNL     1       1.818   4.336  19.686  0.00  0.00    +0.000 A 
ENDBRANCH   4   7
BRANCH   6  13
ATOM     13  C   UNL     1       5.308   5.649  15.554  0.00  0.00    +0.000 C 
ATOM     14  O   UNL     1       5.470   6.847  15.315  0.00  0.00    +0.000 OA
BRANCH  13  15
ATOM     15  N   UNL     1       5.416   4.640  14.630  0.00  0.00    +0.000 NA
ATOM     16  C   UNL     1       6.538   4.481  14.017  0.00  0.00    +0.000 C 
ATOM     17  N   UNL     1       7.666   5.224  14.101  0.00  0.00    +0.000 N 
ATOM     18  N   UNL     1       6.672   3.486  13.112  0.00  0.00    +0.000 N 
ATOM     19  H   UNL     1       7.686   5.856  14.902  0.00  0.00    +0.000 HD
ATOM     20  H   UNL     1       8.542   4.733  13.997  0.00  0.00    +0.000 HD
ATOM     21  H   UNL     1       5.929   2.797  13.147  0.00  0.00    +0.000 HD
ATOM     22  H   UNL     1       7.590   3.096  12.958  0.00  0.00    +0.000 HD
ENDBRANCH  13  15
ENDBRANCH   6  13
TORSDOF 3
ENDMDL
MODEL 6
REMARK VINA RESULT:      -7.6      2.188      2.907
REMARK  Name = 
REMARK  4 active torsions:
REMARK  status: ('A' for Active; 'I' for Inactive)
REMARK    1  A    between atoms: C_1  and  C_2
REMARK    2  A    between atoms: C_4  and  C_5
REMARK    3  A    between atoms: C_12  and  C_13
REMARK    4  A    between atoms: C_13  and  N_15
REMARK                            x       y       z     vdW  Elec       q    Type
REMARK                         _______ _______ _______ _____ _____    ______ ____
ROOT
ATOM      1  C   UNL     1       4.758   6.862  16.118  0.00  0.00    +0.000 C 
ATOM      2  C   UNL     1       4.781   5.656  16.961  0.00  0.00    +0.000 A 
ATOM      3  O   UNL     1       3.756   5.486  17.847  0.00  0.00    +0.000 OA
ATOM      4  C   UNL     1       4.007   4.267  18.422  0.00  0.00    +0.000 A 
ATOM      5  N   UNL     1       5.104   3.681  17.983  0.00  0.00    +0.000 NA
ATOM      6  C   UNL     1       5.602   4.549  17.019  0.00  0.00    +0.000 A 
ENDROOT
BRANCH   4   7
ATOM      7  C   UNL     1       3.066   3.822  19.444  0.00  0.00    +0.000 A 
ATOM      8  C   UNL     1       3.446   2.984  20.504  0.00  0.00    +0.000 A 
ATOM      9  C   UNL     1       2.505   2.562  21.450  0.00  0.00    +0.000 A 
ATOM     10  C   UNL     1       1.177   2.973  21.344  0.00  0.00    +0.000 A 
ATOM     11  C   UNL     1       0.790   3.814  20.302  0.00  0.00    +0.000 A 
ATOM     12  C   UNL     1       1.731   4.242  19.365  0.00  0.00    +0.000 A 
ENDBRANCH   4   7
BRANCH   6  13
ATOM     13  C   UNL     1       6.756   4.307  16.161  0.00  0.00    +0.000 C 
ATOM     14  O   UNL     1       7.913   4.470  16.551  0.00  0.00    +0.000 OA
BRANCH  13  15
ATOM     15  N   UNL     1       6.402   3.819  14.928  0.00  0.00    +0.000 NA
ATOM     16  C   UNL     1       6.878   4.391  13.877  0.00  0.00    +0.000 C 
ATOM     17  N   UNL     1       7.665   5.489  13.789  0.00  0.00    +0.000 N 
ATOM     18  N   UNL     1       6.554   3.920  12.652  0.00  0.00    +0.000 N 
ATOM     19  H   UNL     1       8.095   5.761  14.672  0.00  0.00    +0.000 HD
ATOM     20  H   UNL     1       8.334   5.508  13.032  0.00  0.00    +0.000 HD
ATOM     21  H   UNL     1       6.125   3.002  12.667  0.00  0.00    +0.000 HD
ATOM     22  H   UNL     1       7.206   4.058  11.895  0.00  0.00    +0.000 HD
ENDBRANCH  13  15
ENDBRANCH   6  13
TORSDOF 3
ENDMDL
MODEL 7
REMARK VINA RESULT:      -7.6      2.228      2.936
REMARK  Name = 
REMARK  4 active torsions:
REMARK  status: ('A' for Active; 'I' for Inactive)
REMARK    1  A    between atoms: C_1  and  C_2
REMARK    2  A    between atoms: C_4  and  C_5
REMARK    3  A    between atoms: C_12  and  C_13
REMARK    4  A    between atoms: C_13  and  N_15
REMARK                            x       y       z     vdW  Elec       q    Type
REMARK                         _______ _______ _______ _____ _____    ______ ____
ROOT
ATOM      1  C   UNL     1       4.899   6.969  16.412  0.00  0.00    +0.000 C 
ATOM      2  C   UNL     1       4.827   5.689  17.135  0.00  0.00    +0.000 A 
ATOM      3  O   UNL     1       3.796   5.520  18.015  0.00  0.00    +0.000 OA
ATOM      4  C   UNL     1       3.948   4.235  18.468  0.00  0.00    +0.000 A 
ATOM      5  N   UNL     1       4.990   3.606  17.959  0.00  0.00    +0.000 NA
ATOM      6  C   UNL     1       5.552   4.518  17.076  0.00  0.00    +0.000 A 
ENDROOT
BRANCH   4   7
ATOM      7  C   UNL     1       2.980   3.772  19.456  0.00  0.00    +0.000 A 
ATOM      8  C   UNL     1       1.606   4.036  19.347  0.00  0.00    +0.000 A 
ATOM      9  C   UNL     1       0.716   3.594  20.331  0.00  0.00    +0.000 A 
ATOM     10  C   UNL     1       1.191   2.884  21.434  0.00  0.00    +0.000 A 
ATOM     11  C   UNL     1       2.552   2.607  21.548  0.00  0.00    +0.000 A 
ATOM     12  C   UNL     1       3.438   3.041  20.561  0.00  0.00    +0.000 A 
ENDBRANCH   4   7
BRANCH   6  13
ATOM     13  C   UNL     1       6.677   4.265  16.182  0.00  0.00    +0.000 C 
ATOM     14  O   UNL     1       7.837   4.548  16.487  0.00  0.00    +0.000 OA
BRANCH  13  15
ATOM     15  N   UNL     1       6.299   3.627  15.028  0.00  0.00    +0.000 NA
ATOM     16  C   UNL     1       6.667   4.123  13.898  0.00  0.00    +0.000 C 
ATOM     17  N   UNL     1       7.352   5.265  13.653  0.00  0.00    +0.000 N 
ATOM     18  N   UNL     1       6.318   3.504  12.748  0.00  0.00    +0.000 N 
ATOM     19  H   UNL     1       7.805   5.660  14.477  0.00  0.00    +0.000 HD
ATOM     20  H   UNL     1       7.974   5.259  12.858  0.00  0.00    +0.000 HD
ATOM     21  H   UNL     1       5.970   2.561  12.880  0.00  0.00    +0.000 HD
ATOM     22  H   UNL     1       6.914   3.615  11.941  0.00  0.00    +0.000 HD
ENDBRANCH  13  15
ENDBRANCH   6  13
TORSDOF 3
ENDMDL
MODEL 8
REMARK VINA RESULT:      -7.4      2.763      6.224
REMARK  Name = 
REMARK  4 active torsions:
REMARK  status: ('A' for Active; 'I' for Inactive)
REMARK    1  A    between atoms: C_1  and  C_2
REMARK    2  A    between atoms: C_4  and  C_5
REMARK    3  A    between atoms: C_12  and  C_13
REMARK    4  A    between atoms: C_13  and  N_15
REMARK                            x       y       z     vdW  Elec       q    Type
REMARK                         _______ _______ _______ _____ _____    ______ ____
ROOT
ATOM      1  C   UNL     1       7.727   7.020  18.144  0.00  0.00    +0.000 C 
ATOM      2  C   UNL     1       6.918   6.093  17.337  0.00  0.00    +0.000 A 
ATOM      3  O   UNL     1       7.277   5.917  16.030  0.00  0.00    +0.000 OA
ATOM      4  C   UNL     1       6.407   4.964  15.568  0.00  0.00    +0.000 A 
ATOM      5  N   UNL     1       5.533   4.553  16.467  0.00  0.00    +0.000 NA
ATOM      6  C   UNL     1       5.866   5.249  17.622  0.00  0.00    +0.000 A 
ENDROOT
BRANCH   4   7
ATOM      7  C   UNL     1       6.543   4.581  14.167  0.00  0.00    +0.000 A 
ATOM      8  C   UNL     1       5.701   3.637  13.559  0.00  0.00    +0.000 A 
ATOM      9  C   UNL     1       5.883   3.281  12.218  0.00  0.00    +0.000 A 
ATOM     10  C   UNL     1       6.908   3.865  11.474  0.00  0.00    +0.000 A 
ATOM     11  C   UNL     1       7.743   4.811  12.064  0.00  0.00    +0.000 A 
ATOM     12  C   UNL     1       7.555   5.172  13.398  0.00  0.00    +0.000 A 
ENDBRANCH   4   7
BRANCH   6  13
ATOM     13  C   UNL     1       5.257   5.072  18.935  0.00  0.00    +0.000 C 
ATOM     14  O   UNL     1       4.506   5.914  19.432  0.00  0.00    +0.000 OA
BRANCH  13  15
ATOM     15  N   UNL     1       5.559   3.857  19.497  0.00  0.00    +0.000 NA
ATOM     16  C   UNL     1       4.630   2.969  19.586  0.00  0.00    +0.000 C 
ATOM     17  N   UNL     1       3.323   3.069  19.249  0.00  0.00    +0.000 N 
ATOM     18  N   UNL     1       4.907   1.760  20.123  0.00  0.00    +0.000 N 
ATOM     19  H   UNL     1       3.107   3.877  18.665  0.00  0.00    +0.000 HD
ATOM     20  H   UNL     1       2.878   2.233  18.900  0.00  0.00    +0.000 HD
ATOM     21  H   UNL     1       5.898   1.572  20.218  0.00  0.00    +0.000 HD
ATOM     22  H   UNL     1       4.362   0.965  19.825  0.00  0.00    +0.000 HD
ENDBRANCH  13  15
ENDBRANCH   6  13
TORSDOF 3
ENDMDL
MODEL 9
REMARK VINA RESULT:      -7.4      2.356      3.290
REMARK  Name = 
REMARK  4 active torsions:
REMARK  status: ('A' for Active; 'I' for Inactive)
REMARK    1  A    between atoms: C_1  and  C_2
REMARK    2  A    between atoms: C_4  and  C_5
REMARK    3  A    between atoms: C_12  and  C_13
REMARK    4  A    between atoms: C_13  and  N_15
REMARK                            x       y       z     vdW  Elec       q    Type
REMARK                         _______ _______ _______ _____ _____    ______ ____
ROOT
ATOM      1  C   UNL     1       7.851   5.916  19.126  0.00  0.00    +0.000 C 
ATOM      2  C   UNL     1       6.620   5.225  18.712  0.00  0.00    +0.000 A 
ATOM      3  O   UNL     1       5.699   4.943  19.681  0.00  0.00    +0.000 OA
ATOM      4  C   UNL     1       4.653   4.380  18.998  0.00  0.00    +0.000 A 
ATOM      5  N   UNL     1       4.855   4.273  17.699  0.00  0.00    +0.000 NA
ATOM      6  C   UNL     1       6.106   4.839  17.492  0.00  0.00    +0.000 A 
ENDROOT
BRANCH   4   7
ATOM      7  C   UNL     1       3.509   3.952  19.795  0.00  0.00    +0.000 A 
ATOM      8  C   UNL     1       3.542   2.809  20.609  0.00  0.00    +0.000 A 
ATOM      9  C   UNL     1       2.412   2.421  21.337  0.00  0.00    +0.000 A 
ATOM     10  C   UNL     1       1.239   3.172  21.259  0.00  0.00    +0.000 A 
ATOM     11  C   UNL     1       1.198   4.314  20.462  0.00  0.00    +0.000 A 
ATOM     12  C   UNL     1       2.327   4.705  19.743  0.00  0.00    +0.000 A 
ENDBRANCH   4   7
BRANCH   6  13
ATOM     13  C   UNL     1       6.746   5.056  16.199  0.00  0.00    +0.000 C 
ATOM     14  O   UNL     1       7.575   5.949  16.017  0.00  0.00    +0.000 OA
BRANCH  13  15
ATOM     15  N   UNL     1       6.374   4.125  15.264  0.00  0.00    +0.000 NA
ATOM     16  C   UNL     1       6.714   4.312  14.035  0.00  0.00    +0.000 C 
ATOM     17  N   UNL     1       7.362   5.363  13.483  0.00  0.00    +0.000 N 
ATOM     18  N   UNL     1       6.369   3.400  13.098  0.00  0.00    +0.000 N 
ATOM     19  H   UNL     1       7.813   5.975  14.163  0.00  0.00    +0.000 HD
ATOM     20  H   UNL     1       7.975   5.162  12.707  0.00  0.00    +0.000 HD
ATOM     21  H   UNL     1       6.050   2.518  13.483  0.00  0.00    +0.000 HD
ATOM     22  H   UNL     1       6.952   3.307  12.280  0.00  0.00    +0.000 HD
ENDBRANCH  13  15
ENDBRANCH   6  13
TORSDOF 3
ENDMDL
