MODEL 1
REMARK VINA RESULT:      -7.6      0.000      0.000
REMARK  Name = 
REMARK  8 active torsions:
REMARK  status: ('A' for Active; 'I' for Inactive)
REMARK    1  A    between atoms: C_1  and  O_2
REMARK    2  A    between atoms: O_2  and  C_3
REMARK    3  A    between atoms: C_6  and  C_7
REMARK    4  A    between atoms: C_12  and  O_13
REMARK    5  A    between atoms: C_16  and  O_17
REMARK    6  A    between atoms: O_17  and  C_18
REMARK    7  A    between atoms: C_19  and  O_20
REMARK    8  A    between atoms: O_20  and  C_21
REMARK                            x       y       z     vdW  Elec       q    Type
REMARK                         _______ _______ _______ _____ _____    ______ ____
ROOT
ATOM      1  C   UNL     1       6.651   5.135  15.378  0.00  0.00    +0.000 A 
ATOM      2  C   UNL     1       6.237   3.795  15.389  0.00  0.00    +0.000 A 
ATOM      3  C   UNL     1       5.256   3.365  16.271  0.00  0.00    +0.000 A 
ATOM      4  C   UNL     1       4.697   4.259  17.188  0.00  0.00    +0.000 A 
ATOM      5  C   UNL     1       5.167   5.593  17.262  0.00  0.00    +0.000 A 
ATOM      6  C   UNL     1       6.166   6.038  16.355  0.00  0.00    +0.000 A 
ENDROOT
BRANCH   4   7
ATOM      7  C   UNL     1       3.603   3.745  18.061  0.00  0.00    +0.000 A 
ATOM      8  C   UNL     1       2.376   3.815  17.522  0.00  0.00    +0.000 A 
ATOM      9  C   UNL     1       1.095   3.513  18.089  0.00  0.00    +0.000 A 
ATOM     10  C   UNL     1       0.815   2.962  19.265  0.00  0.00    +0.000 A 
ATOM     11  C   UNL     1       1.719   2.501  20.282  0.00  0.00    +0.000 A 
ATOM     12  C   UNL     1       3.049   2.619  20.392  0.00  0.00    +0.000 A 
ATOM     13  C   UNL     1       4.003   3.279  19.431  0.00  0.00    +0.000 A 
ATOM     14  O   UNL     1       5.175   3.442  19.792  0.00  0.00    +0.000 OA
BRANCH  12  15
ATOM     15  O   UNL     1       3.663   2.099  21.539  0.00  0.00    +0.000 OA
ATOM     16  H   UNL     1       4.109   2.809  22.024  0.00  0.00    +0.000 HD
ENDBRANCH  12  15
ENDBRANCH   4   7
BRANCH   1  18
ATOM     17  C   UNL     1       7.480   4.932  13.164  0.00  0.00    +0.000 C 
ATOM     18  O   UNL     1       7.569   5.553  14.449  0.00  0.00    +0.000 OA
ENDBRANCH   1  18
BRANCH   5  19
ATOM     19  O   UNL     1       4.560   6.318  18.264  0.00  0.00    +0.000 OA
ATOM     20  C   UNL     1       3.540   7.252  17.957  0.00  0.00    +0.000 C 
ENDBRANCH   5  19
BRANCH   6  21
ATOM     21  O   UNL     1       6.588   7.331  16.519  0.00  0.00    +0.000 OA
ATOM     22  C   UNL     1       7.593   7.668  17.460  0.00  0.00    +0.000 C 
ENDBRANCH   6  21
TORSDOF 5
ENDMDL
MODEL 2
REMARK VINA RESULT:      -6.9      1.843      2.345
REMARK  Name = 
REMARK  8 active torsions:
REMARK  status: ('A' for Active; 'I' for Inactive)
REMARK    1  A    between atoms: C_1  and  O_2
REMARK    2  A    between atoms: O_2  and  C_3
REMARK    3  A    between atoms: C_6  and  C_7
REMARK    4  A    between atoms: C_12  and  O_13
REMARK    5  A    between atoms: C_16  and  O_17
REMARK    6  A    between atoms: O_17  and  C_18
REMARK    7  A    between atoms: C_19  and  O_20
REMARK    8  A    between atoms: O_20  and  C_21
REMARK                            x       y       z     vdW  Elec       q    Type
REMARK                         _______ _______ _______ _____ _____    ______ ____
ROOT
ATOM      1  C   UNL     1       6.354   5.195  15.412  0.00  0.00    +0.000 A 
ATOM      2  C   UNL     1       5.328   4.241  15.384  0.00  0.00    +0.000 A 
ATOM      3  C   UNL     1       4.620   3.929  16.536  0.00  0.00    +0.000 A 
ATOM      4  C   UNL     1       4.952   4.538  17.749  0.00  0.00    +0.000 A 
ATOM      5  C   UNL     1       6.048   5.432  17.822  0.00  0.00    +0.000 A 
ATOM      6  C   UNL     1       6.769   5.759  16.643  0.00  0.00    +0.000 A 
ENDROOT
BRANCH   4   7
ATOM      7  C   UNL     1       4.110   4.205  18.933  0.00  0.00    +0.000 A 
ATOM      8  C   UNL     1       4.314   2.980  19.440  0.00  0.00    +0.000 A 
ATOM      9  C   UNL     1       3.634   2.286  20.494  0.00  0.00    +0.000 A 
ATOM     10  C   UNL     1       2.703   2.742  21.324  0.00  0.00    +0.000 A 
ATOM     11  C   UNL     1       2.135   4.060  21.405  0.00  0.00    +0.000 A 
ATOM     12  C   UNL     1       2.275   5.126  20.606  0.00  0.00    +0.000 A 
ATOM     13  C   UNL     1       3.116   5.246  19.361  0.00  0.00    +0.000 A 
ATOM     14  O   UNL     1       2.977   6.256  18.660  0.00  0.00    +0.000 OA
BRANCH  12  15
ATOM     15  O   UNL     1       1.548   6.282  20.917  0.00  0.00    +0.000 OA
ATOM     16  H   UNL     1       0.604   6.073  20.977  0.00  0.00    +0.000 HD
ENDBRANCH  12  15
ENDBRANCH   4   7
BRANCH   1  18
ATOM     17  C   UNL     1       6.995   4.544  13.222  0.00  0.00    +0.000 C 
ATOM     18  O   UNL     1       6.990   5.541  14.247  0.00  0.00    +0.000 OA
ENDBRANCH   1  18
BRANCH   5  19
ATOM     19  O   UNL     1       6.282   5.887  19.102  0.00  0.00    +0.000 OA
ATOM     20  C   UNL     1       7.440   5.476  19.809  0.00  0.00    +0.000 C 
ENDBRANCH   5  19
BRANCH   6  21
ATOM     21  O   UNL     1       7.835   6.604  16.808  0.00  0.00    +0.000 OA
ATOM     22  C   UNL     1       7.663   7.929  17.281  0.00  0.00    +0.000 C 
ENDBRANCH   6  21
TORSDOF 5
ENDMDL
MODEL 3
REMARK VINA RESULT:      -6.5      1.309      1.477
REMARK  Name = 
REMARK  8 active torsions:
REMARK  status: ('A' for Active; 'I' for Inactive)
REMARK    1  A    between atoms: C_1  and  O_2
REMARK    2  A    between atoms: O_2  and  C_3
REMARK    3  A    between atoms: C_6  and  C_7
REMARK    4  A    between atoms: C_12  and  O_13
REMARK    5  A    between atoms: C_16  and  O_17
REMARK    6  A    between atoms: O_17  and  C_18
REMARK    7  A    between atoms: C_19  and  O_20
REMARK    8  A    between atoms: O_20  and  C_21
REMARK                            x       y       z     vdW  Elec       q    Type
REMARK                         _______ _______ _______ _____ _____    ______ ____
ROOT
ATOM      1  C   UNL     1       6.349   5.046  15.370  0.00  0.00    +0.000 A 
ATOM      2  C   UNL     1       5.283   4.140  15.291  0.00  0.00    +0.000 A 
ATOM      3  C   UNL     1       4.464   3.913  16.388  0.00  0.00    +0.000 A 
ATOM      4  C   UNL     1       4.721   4.561  17.600  0.00  0.00    +0.000 A 
ATOM      5  C   UNL     1       5.850   5.406  17.732  0.00  0.00    +0.000 A 
ATOM      6  C   UNL     1       6.685   5.645  16.609  0.00  0.00    +0.000 A 
ENDROOT
BRANCH   4   7
ATOM      7  C   UNL     1       3.764   4.321  18.717  0.00  0.00    +0.000 A 
ATOM      8  C   UNL     1       2.674   5.103  18.700  0.00  0.00    +0.000 A 
ATOM      9  C   UNL     1       1.603   5.226  19.645  0.00  0.00    +0.000 A 
ATOM     10  C   UNL     1       1.361   4.492  20.726  0.00  0.00    +0.000 A 
ATOM     11  C   UNL     1       2.095   3.366  21.233  0.00  0.00    +0.000 A 
ATOM     12  C   UNL     1       3.267   2.840  20.855  0.00  0.00    +0.000 A 
ATOM     13  C   UNL     1       4.166   3.293  19.735  0.00  0.00    +0.000 A 
ATOM     14  O   UNL     1       5.294   2.789  19.652  0.00  0.00    +0.000 OA
BRANCH  12  15
ATOM     15  O   UNL     1       3.764   1.749  21.580  0.00  0.00    +0.000 OA
ATOM     16  H   UNL     1       3.291   0.942  21.326  0.00  0.00    +0.000 HD
ENDBRANCH  12  15
ENDBRANCH   4   7
BRANCH   1  18
ATOM     17  C   UNL     1       6.911   4.416  13.153  0.00  0.00    +0.000 C 
ATOM     18  O   UNL     1       7.100   5.309  14.252  0.00  0.00    +0.000 OA
ENDBRANCH   1  18
BRANCH   5  19
ATOM     19  O   UNL     1       5.995   5.906  19.008  0.00  0.00    +0.000 OA
ATOM     20  C   UNL     1       7.146   5.595  19.774  0.00  0.00    +0.000 C 
ENDBRANCH   5  19
BRANCH   6  21
ATOM     21  O   UNL     1       7.773   6.447  16.833  0.00  0.00    +0.000 OA
ATOM     22  C   UNL     1       7.628   7.821  17.147  0.00  0.00    +0.000 C 
ENDBRANCH   6  21
TORSDOF 5
ENDMDL
MODEL 4
REMARK VINA RESULT:      -6.2      2.358      6.050
REMARK  Name = 
REMARK  8 active torsions:
REMARK  status: ('A' for Active; 'I' for Inactive)
REMARK    1  A    between atoms: C_1  and  O_2
REMARK    2  A    between atoms: O_2  and  C_3
REMARK    3  A    between atoms: C_6  and  C_7
REMARK    4  A    between atoms: C_12  and  O_13
REMARK    5  A    between atoms: C_16  and  O_17
REMARK    6  A    between atoms: O_17  and  C_18
REMARK    7  A    between atoms: C_19  and  O_20
REMARK    8  A    between atoms: O_20  and  C_21
REMARK                            x       y       z     vdW  Elec       q    Type
REMARK                         _______ _______ _______ _____ _____    ______ ____
ROOT
ATOM      1  C   UNL     1       1.726   6.280  20.232  0.00  0.00    +0.000 A 
ATOM      2  C   UNL     1       2.585   7.217  19.642  0.00  0.00    +0.000 A 
ATOM      3  C   UNL     1       3.570   6.813  18.752  0.00  0.00    +0.000 A 
ATOM      4  C   UNL     1       3.740   5.456  18.464  0.00  0.00    +0.000 A 
ATOM      5  C   UNL     1       2.949   4.482  19.122  0.00  0.00    +0.000 A 
ATOM      6  C   UNL     1       1.935   4.894  20.027  0.00  0.00    +0.000 A 
ENDROOT
BRANCH   4   7
ATOM      7  C   UNL     1       4.773   5.098  17.451  0.00  0.00    +0.000 A 
ATOM      8  C   UNL     1       4.362   5.182  16.177  0.00  0.00    +0.000 A 
ATOM      9  C   UNL     1       5.031   4.829  14.959  0.00  0.00    +0.000 A 
ATOM     10  C   UNL     1       6.291   4.443  14.785  0.00  0.00    +0.000 A 
ATOM     11  C   UNL     1       7.331   4.292  15.765  0.00  0.00    +0.000 A 
ATOM     12  C   UNL     1       7.292   4.358  17.102  0.00  0.00    +0.000 A 
ATOM     13  C   UNL     1       6.101   4.639  17.981  0.00  0.00    +0.000 A 
ATOM     14  O   UNL     1       6.228   4.484  19.203  0.00  0.00    +0.000 OA
BRANCH  12  15
ATOM     15  O   UNL     1       8.478   4.119  17.808  0.00  0.00    +0.000 OA
ATOM     16  H   UNL     1       8.353   3.380  18.423  0.00  0.00    +0.000 HD
ENDBRANCH  12  15
ENDBRANCH   4   7
BRANCH   1  18
ATOM     17  C   UNL     1       0.654   8.120  21.277  0.00  0.00    +0.000 C 
ATOM     18  O   UNL     1       0.714   6.710  21.051  0.00  0.00    +0.000 OA
ENDBRANCH   1  18
BRANCH   5  19
ATOM     19  O   UNL     1       3.293   3.193  18.776  0.00  0.00    +0.000 OA
ATOM     20  C   UNL     1       2.464   2.437  17.910  0.00  0.00    +0.000 C 
ENDBRANCH   5  19
BRANCH   6  21
ATOM     21  O   UNL     1       1.241   3.888  20.645  0.00  0.00    +0.000 OA
ATOM     22  C   UNL     1       1.815   3.128  21.695  0.00  0.00    +0.000 C 
ENDBRANCH   6  21
TORSDOF 5
ENDMDL
MODEL 5
REMARK VINA RESULT:      -6.2      1.458      2.010
REMARK  Name = 
REMARK  8 active torsions:
REMARK  status: ('A' for Active; 'I' for Inactive)
REMARK    1  A    between atoms: C_1  and  O_2
REMARK    2  A    between atoms: O_2  and  C_3
REMARK    3  A    between atoms: C_6  and  C_7
REMARK    4  A    between atoms: C_12  and  O_13
REMARK    5  A    between atoms: C_16  and  O_17
REMARK    6  A    between atoms: O_17  and  C_18
REMARK    7  A    between atoms: C_19  and  O_20
REMARK    8  A    between atoms: O_20  and  C_21
REMARK                            x       y       z     vdW  Elec       q    Type
REMARK                         _______ _______ _______ _____ _____    ______ ____
ROOT
ATOM      1  C   UNL     1       6.365   5.102  15.395  0.00  0.00    +0.000 A 
ATOM      2  C   UNL     1       6.074   3.733  15.471  0.00  0.00    +0.000 A 
ATOM      3  C   UNL     1       5.252   3.239  16.474  0.00  0.00    +0.000 A 
ATOM      4  C   UNL     1       4.736   4.102  17.445  0.00  0.00    +0.000 A 
ATOM      5  C   UNL     1       5.095   5.472  17.446  0.00  0.00    +0.000 A 
ATOM      6  C   UNL     1       5.929   5.981  16.416  0.00  0.00    +0.000 A 
ENDROOT
BRANCH   4   7
ATOM      7  C   UNL     1       3.809   3.515  18.454  0.00  0.00    +0.000 A 
ATOM      8  C   UNL     1       4.370   3.248  19.643  0.00  0.00    +0.000 A 
ATOM      9  C   UNL     1       3.828   2.603  20.802  0.00  0.00    +0.000 A 
ATOM     10  C   UNL     1       2.576   2.218  21.030  0.00  0.00    +0.000 A 
ATOM     11  C   UNL     1       1.422   2.360  20.186  0.00  0.00    +0.000 A 
ATOM     12  C   UNL     1       1.308   2.777  18.919  0.00  0.00    +0.000 A 
ATOM     13  C   UNL     1       2.403   3.249  17.998  0.00  0.00    +0.000 A 
ATOM     14  O   UNL     1       2.125   3.427  16.805  0.00  0.00    +0.000 OA
BRANCH  12  15
ATOM     15  O   UNL     1       0.036   2.765  18.333  0.00  0.00    +0.000 OA
ATOM     16  H   UNL     1       0.008   2.111  17.619  0.00  0.00    +0.000 HD
ENDBRANCH  12  15
ENDBRANCH   4   7
BRANCH   1  18
ATOM     17  C   UNL     1       7.256   4.699  13.233  0.00  0.00    +0.000 C 
ATOM     18  O   UNL     1       7.119   5.577  14.352  0.00  0.00    +0.000 OA
ENDBRANCH   1  18
BRANCH   5  19
ATOM     19  O   UNL     1       4.557   6.163  18.510  0.00  0.00    +0.000 OA
ATOM     20  C   UNL     1       3.362   6.909  18.350  0.00  0.00    +0.000 C 
ENDBRANCH   5  19
BRANCH   6  21
ATOM     21  O   UNL     1       6.255   7.308  16.512  0.00  0.00    +0.000 OA
ATOM     22  C   UNL     1       7.335   7.749  17.316  0.00  0.00    +0.000 C 
ENDBRANCH   6  21
TORSDOF 5
ENDMDL
MODEL 6
REMARK VINA RESULT:      -6.2      1.616      1.788
REMARK  Name = 
REMARK  8 active torsions:
REMARK  status: ('A' for Active; 'I' for Inactive)
REMARK    1  A    between atoms: C_1  and  O_2
REMARK    2  A    between atoms: O_2  and  C_3
REMARK    3  A    between atoms: C_6  and  C_7
REMARK    4  A    between atoms: C_12  and  O_13
REMARK    5  A    between atoms: C_16  and  O_17
REMARK    6  A    between atoms: O_17  and  C_18
REMARK    7  A    between atoms: C_19  and  O_20
REMARK    8  A    between atoms: O_20  and  C_21
REMARK                            x       y       z     vdW  Elec       q    Type
REMARK                         _______ _______ _______ _____ _____    ______ ____
ROOT
ATOM      1  C   UNL     1       6.593   5.269  15.179  0.00  0.00    +0.000 A 
ATOM      2  C   UNL     1       5.510   4.429  14.886  0.00  0.00    +0.000 A 
ATOM      3  C   UNL     1       4.542   4.163  15.845  0.00  0.00    +0.000 A 
ATOM      4  C   UNL     1       4.660   4.702  17.128  0.00  0.00    +0.000 A 
ATOM      5  C   UNL     1       5.795   5.474  17.477  0.00  0.00    +0.000 A 
ATOM      6  C   UNL     1       6.783   5.754  16.495  0.00  0.00    +0.000 A 
ENDROOT
BRANCH   4   7
ATOM      7  C   UNL     1       3.552   4.428  18.088  0.00  0.00    +0.000 A 
ATOM      8  C   UNL     1       3.055   5.516  18.696  0.00  0.00    +0.000 A 
ATOM      9  C   UNL     1       2.071   5.633  19.731  0.00  0.00    +0.000 A 
ATOM     10  C   UNL     1       1.307   4.685  20.263  0.00  0.00    +0.000 A 
ATOM     11  C   UNL     1       1.246   3.287  19.934  0.00  0.00    +0.000 A 
ATOM     12  C   UNL     1       2.010   2.542  19.125  0.00  0.00    +0.000 A 
ATOM     13  C   UNL     1       3.183   2.987  18.290  0.00  0.00    +0.000 A 
ATOM     14  O   UNL     1       3.873   2.117  17.744  0.00  0.00    +0.000 OA
BRANCH  12  15
ATOM     15  O   UNL     1       1.734   1.171  19.036  0.00  0.00    +0.000 OA
ATOM     16  H   UNL     1       2.115   0.811  18.222  0.00  0.00    +0.000 HD
ENDBRANCH  12  15
ENDBRANCH   4   7
BRANCH   1  18
ATOM     17  C   UNL     1       7.409   4.792  13.002  0.00  0.00    +0.000 C 
ATOM     18  O   UNL     1       7.497   5.577  14.194  0.00  0.00    +0.000 OA
ENDBRANCH   1  18
BRANCH   5  19
ATOM     19  O   UNL     1       5.788   5.867  18.797  0.00  0.00    +0.000 OA
ATOM     20  C   UNL     1       6.753   5.358  19.703  0.00  0.00    +0.000 C 
ENDBRANCH   5  19
BRANCH   6  21
ATOM     21  O   UNL     1       7.864   6.478  16.925  0.00  0.00    +0.000 OA
ATOM     22  C   UNL     1       7.746   7.845  17.281  0.00  0.00    +0.000 C 
ENDBRANCH   6  21
TORSDOF 5
ENDMDL
MODEL 7
REMARK VINA RESULT:      -6.1      3.247      6.132
REMARK  Name = 
REMARK  8 active torsions:
REMARK  status: ('A' for Active; 'I' for Inactive)
REMARK    1  A    between atoms: C_1  and  O_2
REMARK    2  A    between atoms: O_2  and  C_3
REMARK    3  A    between atoms: C_6  and  C_7
REMARK    4  A    between atoms: C_12  and  O_13
REMARK    5  A    between atoms: C_16  and  O_17
REMARK    6  A    between atoms: O_17  and  C_18
REMARK    7  A    between atoms: C_19  and  O_20
REMARK    8  A    between atoms: O_20  and  C_21
REMARK                            x       y       z     vdW  Elec       q    Type
REMARK                         _______ _______ _______ _____ _____    ______ ____
ROOT
ATOM      1  C   UNL     1       0.990   9.460  19.252  0.00  0.00    +0.000 A 
ATOM      2  C   UNL     1       1.578   9.440  17.980  0.00  0.00    +0.000 A 
ATOM      3  C   UNL     1       2.370   8.372  17.583  0.00  0.00    +0.000 A 
ATOM      4  C   UNL     1       2.621   7.319  18.467  0.00  0.00    +0.000 A 
ATOM      5  C   UNL     1       2.118   7.363  19.790  0.00  0.00    +0.000 A 
ATOM      6  C   UNL     1       1.301   8.451  20.197  0.00  0.00    +0.000 A 
ENDROOT
BRANCH   4   7
ATOM      7  C   UNL     1       3.426   6.174  17.953  0.00  0.00    +0.000 A 
ATOM      8  C   UNL     1       4.736   6.426  17.816  0.00  0.00    +0.000 A 
ATOM      9  C   UNL     1       5.785   5.618  17.269  0.00  0.00    +0.000 A 
ATOM     10  C   UNL     1       5.737   4.350  16.873  0.00  0.00    +0.000 A 
ATOM     11  C   UNL     1       4.626   3.439  16.901  0.00  0.00    +0.000 A 
ATOM     12  C   UNL     1       3.335   3.639  17.192  0.00  0.00    +0.000 A 
ATOM     13  C   UNL     1       2.667   4.925  17.606  0.00  0.00    +0.000 A 
ATOM     14  O   UNL     1       1.431   4.949  17.661  0.00  0.00    +0.000 OA
BRANCH  12  15
ATOM     15  O   UNL     1       2.459   2.550  17.088  0.00  0.00    +0.000 OA
ATOM     16  H   UNL     1       1.587   2.795  17.431  0.00  0.00    +0.000 HD
ENDBRANCH  12  15
ENDBRANCH   4   7
BRANCH   1  18
ATOM     17  C   UNL     1       0.773  11.768  19.759  0.00  0.00    +0.000 C 
ATOM     18  O   UNL     1       0.152  10.490  19.595  0.00  0.00    +0.000 OA
ENDBRANCH   1  18
BRANCH   5  19
ATOM     19  O   UNL     1       2.516   6.283  20.548  0.00  0.00    +0.000 OA
ATOM     20  C   UNL     1       1.578   5.293  20.934  0.00  0.00    +0.000 C 
ENDBRANCH   5  19
BRANCH   6  21
ATOM     21  O   UNL     1       0.886   8.433  21.502  0.00  0.00    +0.000 OA
ATOM     22  C   UNL     1       1.501   9.247  22.486  0.00  0.00    +0.000 C 
ENDBRANCH   6  21
TORSDOF 5
ENDMDL
MODEL 8
REMARK VINA RESULT:      -6.0      2.946      5.294
REMARK  Name = 
REMARK  8 active torsions:
REMARK  status: ('A' for Active; 'I' for Inactive)
REMARK    1  A    between atoms: C_1  and  O_2
REMARK    2  A    between atoms: O_2  and  C_3
REMARK    3  A    between atoms: C_6  and  C_7
REMARK    4  A    between atoms: C_12  and  O_13
REMARK    5  A    between atoms: C_16  and  O_17
REMARK    6  A    between atoms: O_17  and  C_18
REMARK    7  A    between atoms: C_19  and  O_20
REMARK    8  A    between atoms: O_20  and  C_21
REMARK                            x       y       z     vdW  Elec       q    Type
REMARK                         _______ _______ _______ _____ _____    ______ ____
ROOT
ATOM      1  C   UNL     1       4.857   4.756  16.970  0.00  0.00    +0.000 A 
ATOM      2  C   UNL     1       5.217   6.102  17.129  0.00  0.00    +0.000 A 
ATOM      3  C   UNL     1       4.377   6.985  17.792  0.00  0.00    +0.000 A 
ATOM      4  C   UNL     1       3.141   6.548  18.276  0.00  0.00    +0.000 A 
ATOM      5  C   UNL     1       2.713   5.218  18.041  0.00  0.00    +0.000 A 
ATOM      6  C   UNL     1       3.574   4.310  17.370  0.00  0.00    +0.000 A 
ENDROOT
BRANCH   4   7
ATOM      7  C   UNL     1       2.318   7.533  19.035  0.00  0.00    +0.000 A 
ATOM      8  C   UNL     1       2.070   7.193  20.308  0.00  0.00    +0.000 A 
ATOM      9  C   UNL     1       1.250   7.829  21.296  0.00  0.00    +0.000 A 
ATOM     10  C   UNL     1       0.624   9.000  21.229  0.00  0.00    +0.000 A 
ATOM     11  C   UNL     1       0.614   9.955  20.155  0.00  0.00    +0.000 A 
ATOM     12  C   UNL     1       1.097   9.879  18.909  0.00  0.00    +0.000 A 
ATOM     13  C   UNL     1       1.832   8.730  18.269  0.00  0.00    +0.000 A 
ATOM     14  O   UNL     1       2.045   8.779  17.051  0.00  0.00    +0.000 OA
BRANCH  12  15
ATOM     15  O   UNL     1       0.894  10.972  18.056  0.00  0.00    +0.000 OA
ATOM     16  H   UNL     1       0.314  11.620  18.483  0.00  0.00    +0.000 HD
ENDBRANCH  12  15
ENDBRANCH   4   7
BRANCH   1  18
ATOM     17  C   UNL     1       7.026   4.416  16.072  0.00  0.00    +0.000 C 
ATOM     18  O   UNL     1       5.734   3.885  16.376  0.00  0.00    +0.000 OA
ENDBRANCH   1  18
BRANCH   5  19
ATOM     19  O   UNL     1       1.444   4.974  18.522  0.00  0.00    +0.000 OA
ATOM     20  C   UNL     1       1.246   4.076  19.601  0.00  0.00    +0.000 C 
ENDBRANCH   5  19
BRANCH   6  21
ATOM     21  O   UNL     1       3.068   3.055  17.154  0.00  0.00    +0.000 OA
ATOM     22  C   UNL     1       3.450   1.955  17.962  0.00  0.00    +0.000 C 
ENDBRANCH   6  21
TORSDOF 5
ENDMDL
MODEL 9
REMARK VINA RESULT:      -5.9      3.094      5.764
REMARK  Name = 
REMARK  8 active torsions:
REMARK  status: ('A' for Active; 'I' for Inactive)
REMARK    1  A    between atoms: C_1  and  O_2
REMARK    2  A    between atoms: O_2  and  C_3
REMARK    3  A    between atoms: C_6  and  C_7
REMARK    4  A    between atoms: C_12  and  O_13
REMARK    5  A    between atoms: C_16  and  O_17
REMARK    6  A    between atoms: O_17  and  C_18
REMARK    7  A    between atoms: C_19  and  O_20
REMARK    8  A    between atoms: O_20  and  C_21
REMARK                            x       y       z     vdW  Elec       q    Type
REMARK                         _______ _______ _______ _____ _____    ______ ____
ROOT
ATOM      1  C   UNL     1       1.395   9.462  19.185  0.00  0.00    +0.000 A 
ATOM      2  C   UNL     1       1.948   9.166  17.931  0.00  0.00    +0.000 A 
ATOM      3  C   UNL     1       2.439   7.897  17.657  0.00  0.00    +0.000 A 
ATOM      4  C   UNL     1       2.422   6.910  18.647  0.00  0.00    +0.000 A 
ATOM      5  C   UNL     1       1.958   7.214  19.950  0.00  0.00    +0.000 A 
ATOM      6  C   UNL     1       1.447   8.509  20.231  0.00  0.00    +0.000 A 
ENDROOT
BRANCH   4   7
ATOM      7  C   UNL     1       2.905   5.553  18.264  0.00  0.00    +0.000 A 
ATOM      8  C   UNL     1       1.965   4.747  17.748  0.00  0.00    +0.000 A 
ATOM      9  C   UNL     1       2.032   3.368  17.365  0.00  0.00    +0.000 A 
ATOM     10  C   UNL     1       3.094   2.571  17.309  0.00  0.00    +0.000 A 
ATOM     11  C   UNL     1       4.467   2.879  17.600  0.00  0.00    +0.000 A 
ATOM     12  C   UNL     1       5.028   3.975  18.125  0.00  0.00    +0.000 A 
ATOM     13  C   UNL     1       4.346   5.248  18.557  0.00  0.00    +0.000 A 
ATOM     14  O   UNL     1       5.012   6.083  19.183  0.00  0.00    +0.000 OA
BRANCH  12  15
ATOM     15  O   UNL     1       6.413   3.969  18.339  0.00  0.00    +0.000 OA
ATOM     16  H   UNL     1       6.600   3.909  19.287  0.00  0.00    +0.000 HD
ENDBRANCH  12  15
ENDBRANCH   4   7
BRANCH   1  18
ATOM     17  C   UNL     1      -0.477  10.894  18.911  0.00  0.00    +0.000 C 
ATOM     18  O   UNL     1       0.848  10.701  19.408  0.00  0.00    +0.000 OA
ENDBRANCH   1  18
BRANCH   5  19
ATOM     19  O   UNL     1       2.075   6.151  20.819  0.00  0.00    +0.000 OA
ATOM     20  C   UNL     1       1.117   5.107  20.809  0.00  0.00    +0.000 C 
ENDBRANCH   5  19
BRANCH   6  21
ATOM     21  O   UNL     1       1.052   8.728  21.524  0.00  0.00    +0.000 OA
ATOM     22  C   UNL     1      -0.306   8.615  21.912  0.00  0.00    +0.000 C 
ENDBRANCH   6  21
TORSDOF 5
ENDMDL
