MODEL 1
REMARK VINA RESULT:      -7.3      0.000      0.000
REMARK  Name = 
REMARK  5 active torsions:
REMARK  status: ('A' for Active; 'I' for Inactive)
REMARK    1  A    between atoms: C_2  and  O_3
REMARK    2  A    between atoms: C_2  and  C_4
REMARK    3  A    between atoms: C_9  and  C_10
REMARK    4  A    between atoms: C_15  and  C_16
REMARK    5  A    between atoms: N_18  and  C_19
REMARK                            x       y       z     vdW  Elec       q    Type
REMARK                         _______ _______ _______ _____ _____    ______ ____
ROOT
ATOM      1  C   UNL     1       3.856  15.660  18.429  0.00  0.00    +0.000 C 
ATOM      2  O   UNL     1       3.971  14.481  18.113  0.00  0.00    +0.000 OA
ATOM      3  N   UNL     1       4.839  16.371  19.113  0.00  0.00    +0.000 N 
ATOM      4  H   UNL     1       4.702  17.343  19.346  0.00  0.00    +0.000 HD
ENDROOT
BRANCH   3   5
ATOM      5  C   UNL     1       5.965  15.780  19.729  0.00  0.00    +0.000 A 
ATOM      6  C   UNL     1       7.155  15.677  18.944  0.00  0.00    +0.000 A 
ATOM      7  C   UNL     1       8.222  14.842  19.333  0.00  0.00    +0.000 A 
ATOM      8  C   UNL     1       9.384  14.530  18.527  0.00  0.00    +0.000 A 
ATOM      9  C   UNL     1      10.064  15.420  17.679  0.00  0.00    +0.000 A 
ATOM     10  C   UNL     1      11.075  14.967  16.818  0.00  0.00    +0.000 A 
ATOM     11  C   UNL     1      11.348  13.601  16.729  0.00  0.00    +0.000 A 
ATOM     12  C   UNL     1      10.711  12.712  17.590  0.00  0.00    +0.000 A 
ATOM     13  C   UNL     1       9.833  13.214  18.573  0.00  0.00    +0.000 A 
ATOM     14  C   UNL     1       9.389  12.418  19.625  0.00  0.00    +0.000 A 
ATOM     15  C   UNL     1       8.917  13.071  20.750  0.00  0.00    +0.000 A 
ATOM     16  C   UNL     1       8.039  14.119  20.518  0.00  0.00    +0.000 A 
ATOM     17  C   UNL     1       6.933  14.318  21.385  0.00  0.00    +0.000 A 
ATOM     18  C   UNL     1       6.890  13.563  22.560  0.00  0.00    +0.000 A 
ATOM     19  C   UNL     1       5.751  13.535  23.351  0.00  0.00    +0.000 A 
ATOM     20  C   UNL     1       4.973  14.651  23.320  0.00  0.00    +0.000 A 
ATOM     21  C   UNL     1       4.860  15.283  22.063  0.00  0.00    +0.000 A 
ATOM     22  C   UNL     1       5.836  15.137  21.001  0.00  0.00    +0.000 A 
ENDBRANCH   3   5
BRANCH   1  28
ATOM     23  C   UNL     1       1.324  16.305  18.661  0.00  0.00    +0.000 A 
ATOM     24  C   UNL     1       0.274  17.108  18.135  0.00  0.00    +0.000 A 
ATOM     25  C   UNL     1       0.405  17.864  16.985  0.00  0.00    +0.000 A 
ATOM     26  C   UNL     1       1.653  18.012  16.437  0.00  0.00    +0.000 A 
ATOM     27  C   UNL     1       2.749  17.322  16.953  0.00  0.00    +0.000 A 
ATOM     28  C   UNL     1       2.611  16.440  18.040  0.00  0.00    +0.000 A 
BRANCH  23  34
ATOM     29  C   UNL     1       0.581  14.087  19.746  0.00  0.00    +0.000 A 
ATOM     30  C   UNL     1       0.147  13.413  20.907  0.00  0.00    +0.000 A 
ATOM     31  C   UNL     1       0.177  14.036  22.155  0.00  0.00    +0.000 A 
ATOM     32  C   UNL     1       0.663  15.324  22.267  0.00  0.00    +0.000 A 
ATOM     33  C   UNL     1       1.015  16.016  21.116  0.00  0.00    +0.000 A 
ATOM     34  C   UNL     1       1.007  15.442  19.827  0.00  0.00    +0.000 A 
BRANCH  29  36
ATOM     35  O   UNL     1      -0.673  13.138  17.953  0.00  0.00    +0.000 OA
ATOM     36  C   UNL     1       0.420  13.298  18.478  0.00  0.00    +0.000 C 
BRANCH  36  37
ATOM     37  O   UNL     1       1.553  12.811  17.923  0.00  0.00    +0.000 OA
ATOM     38  H   UNL     1       1.557  12.758  16.949  0.00  0.00    +0.000 HD
ENDBRANCH  36  37
ENDBRANCH  29  36
ENDBRANCH  23  34
ENDBRANCH   1  28
TORSDOF 5
ENDMDL
MODEL 2
REMARK VINA RESULT:      -7.2      5.400     10.031
REMARK  Name = 
REMARK  5 active torsions:
REMARK  status: ('A' for Active; 'I' for Inactive)
REMARK    1  A    between atoms: C_2  and  O_3
REMARK    2  A    between atoms: C_2  and  C_4
REMARK    3  A    between atoms: C_9  and  C_10
REMARK    4  A    between atoms: C_15  and  C_16
REMARK    5  A    between atoms: N_18  and  C_19
REMARK                            x       y       z     vdW  Elec       q    Type
REMARK                         _______ _______ _______ _____ _____    ______ ____
ROOT
ATOM      1  C   UNL     1      -1.577  14.272  22.731  0.00  0.00    +0.000 C 
ATOM      2  O   UNL     1      -1.649  13.278  23.446  0.00  0.00    +0.000 OA
ATOM      3  N   UNL     1      -2.463  14.533  21.689  0.00  0.00    +0.000 N 
ATOM      4  H   UNL     1      -2.368  15.369  21.131  0.00  0.00    +0.000 HD
ENDROOT
BRANCH   3   5
ATOM      5  C   UNL     1      -3.389  13.596  21.178  0.00  0.00    +0.000 A 
ATOM      6  C   UNL     1      -2.927  12.726  20.142  0.00  0.00    +0.000 A 
ATOM      7  C   UNL     1      -3.827  11.981  19.353  0.00  0.00    +0.000 A 
ATOM      8  C   UNL     1      -3.478  11.217  18.173  0.00  0.00    +0.000 A 
ATOM      9  C   UNL     1      -2.309  10.461  17.994  0.00  0.00    +0.000 A 
ATOM     10  C   UNL     1      -1.996   9.898  16.747  0.00  0.00    +0.000 A 
ATOM     11  C   UNL     1      -2.805  10.169  15.643  0.00  0.00    +0.000 A 
ATOM     12  C   UNL     1      -3.987  10.884  15.812  0.00  0.00    +0.000 A 
ATOM     13  C   UNL     1      -4.373  11.282  17.108  0.00  0.00    +0.000 A 
ATOM     14  C   UNL     1      -5.658  11.746  17.374  0.00  0.00    +0.000 A 
ATOM     15  C   UNL     1      -6.085  11.692  18.689  0.00  0.00    +0.000 A 
ATOM     16  C   UNL     1      -5.186  12.154  19.638  0.00  0.00    +0.000 A 
ATOM     17  C   UNL     1      -5.657  12.895  20.754  0.00  0.00    +0.000 A 
ATOM     18  C   UNL     1      -7.038  12.954  20.953  0.00  0.00    +0.000 A 
ATOM     19  C   UNL     1      -7.591  13.824  21.881  0.00  0.00    +0.000 A 
ATOM     20  C   UNL     1      -6.811  14.128  22.954  0.00  0.00    +0.000 A 
ATOM     21  C   UNL     1      -5.433  14.272  22.688  0.00  0.00    +0.000 A 
ATOM     22  C   UNL     1      -4.769  13.672  21.547  0.00  0.00    +0.000 A 
ENDBRANCH   3   5
BRANCH   1  28
ATOM     23  C   UNL     1       0.655  15.528  22.164  0.00  0.00    +0.000 A 
ATOM     24  C   UNL     1       1.557  16.547  22.582  0.00  0.00    +0.000 A 
ATOM     25  C   UNL     1       1.441  17.208  23.791  0.00  0.00    +0.000 A 
ATOM     26  C   UNL     1       0.302  17.025  24.531  0.00  0.00    +0.000 A 
ATOM     27  C   UNL     1      -0.669  16.105  24.138  0.00  0.00    +0.000 A 
ATOM     28  C   UNL     1      -0.507  15.320  22.982  0.00  0.00    +0.000 A 
BRANCH  23  34
ATOM     29  C   UNL     1       0.518  15.191  19.611  0.00  0.00    +0.000 A 
ATOM     30  C   UNL     1       0.741  14.342  18.506  0.00  0.00    +0.000 A 
ATOM     31  C   UNL     1       1.451  13.148  18.646  0.00  0.00    +0.000 A 
ATOM     32  C   UNL     1       1.969  12.799  19.878  0.00  0.00    +0.000 A 
ATOM     33  C   UNL     1       1.683  13.592  20.980  0.00  0.00    +0.000 A 
ATOM     34  C   UNL     1       0.972  14.809  20.904  0.00  0.00    +0.000 A 
BRANCH  29  36
ATOM     35  O   UNL     1       0.173  17.432  18.875  0.00  0.00    +0.000 OA
ATOM     36  C   UNL     1      -0.320  16.398  19.303  0.00  0.00    +0.000 C 
BRANCH  36  37
ATOM     37  O   UNL     1      -1.654  16.267  19.481  0.00  0.00    +0.000 OA
ATOM     38  H   UNL     1      -2.160  15.987  18.696  0.00  0.00    +0.000 HD
ENDBRANCH  36  37
ENDBRANCH  29  36
ENDBRANCH  23  34
ENDBRANCH   1  28
TORSDOF 5
ENDMDL
MODEL 3
REMARK VINA RESULT:      -7.2      5.312      8.513
REMARK  Name = 
REMARK  5 active torsions:
REMARK  status: ('A' for Active; 'I' for Inactive)
REMARK    1  A    between atoms: C_2  and  O_3
REMARK    2  A    between atoms: C_2  and  C_4
REMARK    3  A    between atoms: C_9  and  C_10
REMARK    4  A    between atoms: C_15  and  C_16
REMARK    5  A    between atoms: N_18  and  C_19
REMARK                            x       y       z     vdW  Elec       q    Type
REMARK                         _______ _______ _______ _____ _____    ______ ____
ROOT
ATOM      1  C   UNL     1      -3.633  14.046  21.546  0.00  0.00    +0.000 C 
ATOM      2  O   UNL     1      -3.352  13.331  22.501  0.00  0.00    +0.000 OA
ATOM      3  N   UNL     1      -3.015  13.943  20.302  0.00  0.00    +0.000 N 
ATOM      4  H   UNL     1      -3.285  14.551  19.543  0.00  0.00    +0.000 HD
ENDROOT
BRANCH   3   5
ATOM      5  C   UNL     1      -1.847  13.188  20.054  0.00  0.00    +0.000 A 
ATOM      6  C   UNL     1      -0.612  13.725  20.533  0.00  0.00    +0.000 A 
ATOM      7  C   UNL     1       0.629  13.229  20.081  0.00  0.00    +0.000 A 
ATOM      8  C   UNL     1       1.922  13.817  20.363  0.00  0.00    +0.000 A 
ATOM      9  C   UNL     1       2.317  14.403  21.576  0.00  0.00    +0.000 A 
ATOM     10  C   UNL     1       3.535  15.090  21.685  0.00  0.00    +0.000 A 
ATOM     11  C   UNL     1       4.325  15.280  20.550  0.00  0.00    +0.000 A 
ATOM     12  C   UNL     1       3.966  14.675  19.349  0.00  0.00    +0.000 A 
ATOM     13  C   UNL     1       2.834  13.836  19.311  0.00  0.00    +0.000 A 
ATOM     14  C   UNL     1       2.589  12.993  18.231  0.00  0.00    +0.000 A 
ATOM     15  C   UNL     1       1.746  11.918  18.452  0.00  0.00    +0.000 A 
ATOM     16  C   UNL     1       0.573  12.197  19.137  0.00  0.00    +0.000 A 
ATOM     17  C   UNL     1      -0.634  11.553  18.762  0.00  0.00    +0.000 A 
ATOM     18  C   UNL     1      -0.547  10.506  17.841  0.00  0.00    +0.000 A 
ATOM     19  C   UNL     1      -1.686   9.968  17.259  0.00  0.00    +0.000 A 
ATOM     20  C   UNL     1      -2.822  10.024  18.006  0.00  0.00    +0.000 A 
ATOM     21  C   UNL     1      -2.991  11.196  18.774  0.00  0.00    +0.000 A 
ATOM     22  C   UNL     1      -1.896  12.051  19.187  0.00  0.00    +0.000 A 
ENDBRANCH   3   5
BRANCH   1  28
ATOM     23  C   UNL     1      -6.125  14.852  21.394  0.00  0.00    +0.000 A 
ATOM     24  C   UNL     1      -7.000  15.964  21.539  0.00  0.00    +0.000 A 
ATOM     25  C   UNL     1      -6.552  17.253  21.765  0.00  0.00    +0.000 A 
ATOM     26  C   UNL     1      -5.229  17.443  22.065  0.00  0.00    +0.000 A 
ATOM     27  C   UNL     1      -4.325  16.382  22.027  0.00  0.00    +0.000 A 
ATOM     28  C   UNL     1      -4.735  15.085  21.665  0.00  0.00    +0.000 A 
BRANCH  23  34
ATOM     29  C   UNL     1      -7.093  12.525  21.943  0.00  0.00    +0.000 A 
ATOM     30  C   UNL     1      -7.506  11.263  21.467  0.00  0.00    +0.000 A 
ATOM     31  C   UNL     1      -7.621  11.010  20.100  0.00  0.00    +0.000 A 
ATOM     32  C   UNL     1      -7.352  12.015  19.191  0.00  0.00    +0.000 A 
ATOM     33  C   UNL     1      -6.869  13.231  19.654  0.00  0.00    +0.000 A 
ATOM     34  C   UNL     1      -6.731  13.548  21.022  0.00  0.00    +0.000 A 
BRANCH  29  36
ATOM     35  O   UNL     1      -7.914  12.848  24.157  0.00  0.00    +0.000 OA
ATOM     36  C   UNL     1      -6.957  12.608  23.436  0.00  0.00    +0.000 C 
BRANCH  36  37
ATOM     37  O   UNL     1      -5.729  12.361  23.944  0.00  0.00    +0.000 OA
ATOM     38  H   UNL     1      -5.093  11.949  23.329  0.00  0.00    +0.000 HD
ENDBRANCH  36  37
ENDBRANCH  29  36
ENDBRANCH  23  34
ENDBRANCH   1  28
TORSDOF 5
ENDMDL
MODEL 4
REMARK VINA RESULT:      -7.0      7.025      9.109
REMARK  Name = 
REMARK  5 active torsions:
REMARK  status: ('A' for Active; 'I' for Inactive)
REMARK    1  A    between atoms: C_2  and  O_3
REMARK    2  A    between atoms: C_2  and  C_4
REMARK    3  A    between atoms: C_9  and  C_10
REMARK    4  A    between atoms: C_15  and  C_16
REMARK    5  A    between atoms: N_18  and  C_19
REMARK                            x       y       z     vdW  Elec       q    Type
REMARK                         _______ _______ _______ _____ _____    ______ ____
ROOT
ATOM      1  C   UNL     1       1.392   8.122  20.298  0.00  0.00    +0.000 C 
ATOM      2  O   UNL     1       1.620   8.480  19.147  0.00  0.00    +0.000 OA
ATOM      3  N   UNL     1       1.910   6.956  20.855  0.00  0.00    +0.000 N 
ATOM      4  H   UNL     1       1.700   6.706  21.811  0.00  0.00    +0.000 HD
ENDROOT
BRANCH   3   5
ATOM      5  C   UNL     1       2.550   5.936  20.116  0.00  0.00    +0.000 A 
ATOM      6  C   UNL     1       3.816   6.255  19.532  0.00  0.00    +0.000 A 
ATOM      7  C   UNL     1       4.389   5.442  18.532  0.00  0.00    +0.000 A 
ATOM      8  C   UNL     1       5.566   5.768  17.756  0.00  0.00    +0.000 A 
ATOM      9  C   UNL     1       6.715   6.422  18.231  0.00  0.00    +0.000 A 
ATOM     10  C   UNL     1       7.727   6.836  17.352  0.00  0.00    +0.000 A 
ATOM     11  C   UNL     1       7.552   6.685  15.975  0.00  0.00    +0.000 A 
ATOM     12  C   UNL     1       6.438   6.006  15.491  0.00  0.00    +0.000 A 
ATOM     13  C   UNL     1       5.527   5.437  16.404  0.00  0.00    +0.000 A 
ATOM     14  C   UNL     1       4.561   4.522  15.993  0.00  0.00    +0.000 A 
ATOM     15  C   UNL     1       4.022   3.699  16.966  0.00  0.00    +0.000 A 
ATOM     16  C   UNL     1       3.643   4.322  18.145  0.00  0.00    +0.000 A 
ATOM     17  C   UNL     1       2.461   3.909  18.813  0.00  0.00    +0.000 A 
ATOM     18  C   UNL     1       1.834   2.747  18.356  0.00  0.00    +0.000 A 
ATOM     19  C   UNL     1       0.570   2.392  18.804  0.00  0.00    +0.000 A 
ATOM     20  C   UNL     1       0.244   2.801  20.060  0.00  0.00    +0.000 A 
ATOM     21  C   UNL     1       0.715   4.079  20.429  0.00  0.00    +0.000 A 
ATOM     22  C   UNL     1       1.854   4.725  19.807  0.00  0.00    +0.000 A 
ENDBRANCH   3   5
BRANCH   1  28
ATOM     23  C   UNL     1      -0.457   9.919  20.777  0.00  0.00    +0.000 A 
ATOM     24  C   UNL     1      -1.134  10.653  21.792  0.00  0.00    +0.000 A 
ATOM     25  C   UNL     1      -0.765  10.616  23.124  0.00  0.00    +0.000 A 
ATOM     26  C   UNL     1       0.158   9.683  23.522  0.00  0.00    +0.000 A 
ATOM     27  C   UNL     1       0.801   8.867  22.591  0.00  0.00    +0.000 A 
ATOM     28  C   UNL     1       0.539   8.983  21.214  0.00  0.00    +0.000 A 
BRANCH  23  34
ATOM     29  C   UNL     1      -0.246  11.063  18.475  0.00  0.00    +0.000 A 
ATOM     30  C   UNL     1      -0.827  11.327  17.217  0.00  0.00    +0.000 A 
ATOM     31  C   UNL     1      -1.987  10.669  16.806  0.00  0.00    +0.000 A 
ATOM     32  C   UNL     1      -2.567   9.723  17.628  0.00  0.00    +0.000 A 
ATOM     33  C   UNL     1      -2.042   9.520  18.897  0.00  0.00    +0.000 A 
ATOM     34  C   UNL     1      -0.874  10.153  19.371  0.00  0.00    +0.000 A 
BRANCH  29  36
ATOM     35  O   UNL     1       0.893  12.867  19.539  0.00  0.00    +0.000 OA
ATOM     36  C   UNL     1       0.958  11.904  18.789  0.00  0.00    +0.000 C 
BRANCH  36  37
ATOM     37  O   UNL     1       2.126  11.514  18.231  0.00  0.00    +0.000 OA
ATOM     38  H   UNL     1       2.128  10.623  17.834  0.00  0.00    +0.000 HD
ENDBRANCH  36  37
ENDBRANCH  29  36
ENDBRANCH  23  34
ENDBRANCH   1  28
TORSDOF 5
ENDMDL
MODEL 5
REMARK VINA RESULT:      -7.0      4.491      9.486
REMARK  Name = 
REMARK  5 active torsions:
REMARK  status: ('A' for Active; 'I' for Inactive)
REMARK    1  A    between atoms: C_2  and  O_3
REMARK    2  A    between atoms: C_2  and  C_4
REMARK    3  A    between atoms: C_9  and  C_10
REMARK    4  A    between atoms: C_15  and  C_16
REMARK    5  A    between atoms: N_18  and  C_19
REMARK                            x       y       z     vdW  Elec       q    Type
REMARK                         _______ _______ _______ _____ _____    ______ ____
ROOT
ATOM      1  C   UNL     1      -0.975  15.577  20.900  0.00  0.00    +0.000 C 
ATOM      2  O   UNL     1      -1.464  16.003  19.859  0.00  0.00    +0.000 OA
ATOM      3  N   UNL     1      -1.306  14.343  21.454  0.00  0.00    +0.000 N 
ATOM      4  H   UNL     1      -0.871  14.032  22.311  0.00  0.00    +0.000 HD
ENDROOT
BRANCH   3   5
ATOM      5  C   UNL     1      -2.394  13.547  21.033  0.00  0.00    +0.000 A 
ATOM      6  C   UNL     1      -2.147  12.619  19.974  0.00  0.00    +0.000 A 
ATOM      7  C   UNL     1      -3.206  12.008  19.271  0.00  0.00    +0.000 A 
ATOM      8  C   UNL     1      -3.068  11.201  18.077  0.00  0.00    +0.000 A 
ATOM      9  C   UNL     1      -2.037  10.286  17.813  0.00  0.00    +0.000 A 
ATOM     10  C   UNL     1      -1.911   9.681  16.553  0.00  0.00    +0.000 A 
ATOM     11  C   UNL     1      -2.762  10.063  15.515  0.00  0.00    +0.000 A 
ATOM     12  C   UNL     1      -3.813  10.940  15.770  0.00  0.00    +0.000 A 
ATOM     13  C   UNL     1      -4.029  11.391  17.088  0.00  0.00    +0.000 A 
ATOM     14  C   UNL     1      -5.209  12.034  17.451  0.00  0.00    +0.000 A 
ATOM     15  C   UNL     1      -5.530  12.043  18.798  0.00  0.00    +0.000 A 
ATOM     16  C   UNL     1      -4.499  12.374  19.664  0.00  0.00    +0.000 A 
ATOM     17  C   UNL     1      -4.766  13.176  20.804  0.00  0.00    +0.000 A 
ATOM     18  C   UNL     1      -6.104  13.432  21.115  0.00  0.00    +0.000 A 
ATOM     19  C   UNL     1      -6.449  14.373  22.073  0.00  0.00    +0.000 A 
ATOM     20  C   UNL     1      -5.548  14.564  23.075  0.00  0.00    +0.000 A 
ATOM     21  C   UNL     1      -4.190  14.509  22.695  0.00  0.00    +0.000 A 
ATOM     22  C   UNL     1      -3.714  13.819  21.513  0.00  0.00    +0.000 A 
ENDBRANCH   3   5
BRANCH   1  28
ATOM     23  C   UNL     1       1.427  16.590  21.190  0.00  0.00    +0.000 A 
ATOM     24  C   UNL     1       2.273  17.359  22.038  0.00  0.00    +0.000 A 
ATOM     25  C   UNL     1       1.903  17.761  23.308  0.00  0.00    +0.000 A 
ATOM     26  C   UNL     1       0.599  17.593  23.695  0.00  0.00    +0.000 A 
ATOM     27  C   UNL     1      -0.311  16.924  22.878  0.00  0.00    +0.000 A 
ATOM     28  C   UNL     1       0.079  16.385  21.638  0.00  0.00    +0.000 A 
BRANCH  23  34
ATOM     29  C   UNL     1       2.396  14.774  19.637  0.00  0.00    +0.000 A 
ATOM     30  C   UNL     1       3.080  14.467  18.441  0.00  0.00    +0.000 A 
ATOM     31  C   UNL     1       3.330  15.449  17.482  0.00  0.00    +0.000 A 
ATOM     32  C   UNL     1       2.880  16.739  17.687  0.00  0.00    +0.000 A 
ATOM     33  C   UNL     1       2.278  17.060  18.896  0.00  0.00    +0.000 A 
ATOM     34  C   UNL     1       1.998  16.113  19.905  0.00  0.00    +0.000 A 
BRANCH  29  36
ATOM     35  O   UNL     1       1.365  12.803  20.496  0.00  0.00    +0.000 OA
ATOM     36  C   UNL     1       2.270  13.620  20.589  0.00  0.00    +0.000 C 
BRANCH  36  37
ATOM     37  O   UNL     1       3.236  13.506  21.529  0.00  0.00    +0.000 OA
ATOM     38  H   UNL     1       3.338  12.621  21.926  0.00  0.00    +0.000 HD
ENDBRANCH  36  37
ENDBRANCH  29  36
ENDBRANCH  23  34
ENDBRANCH   1  28
TORSDOF 5
ENDMDL
MODEL 6
REMARK VINA RESULT:      -7.0      4.883     10.875
REMARK  Name = 
REMARK  5 active torsions:
REMARK  status: ('A' for Active; 'I' for Inactive)
REMARK    1  A    between atoms: C_2  and  O_3
REMARK    2  A    between atoms: C_2  and  C_4
REMARK    3  A    between atoms: C_9  and  C_10
REMARK    4  A    between atoms: C_15  and  C_16
REMARK    5  A    between atoms: N_18  and  C_19
REMARK                            x       y       z     vdW  Elec       q    Type
REMARK                         _______ _______ _______ _____ _____    ______ ____
ROOT
ATOM      1  C   UNL     1      -0.397  13.337  18.782  0.00  0.00    +0.000 C 
ATOM      2  O   UNL     1      -0.636  14.018  17.791  0.00  0.00    +0.000 OA
ATOM      3  N   UNL     1      -1.273  12.375  19.282  0.00  0.00    +0.000 N 
ATOM      4  H   UNL     1      -1.029  11.833  20.098  0.00  0.00    +0.000 HD
ENDROOT
BRANCH   3   5
ATOM      5  C   UNL     1      -2.616  12.231  18.869  0.00  0.00    +0.000 A 
ATOM      6  C   UNL     1      -3.626  12.658  19.785  0.00  0.00    +0.000 A 
ATOM      7  C   UNL     1      -4.975  12.281  19.619  0.00  0.00    +0.000 A 
ATOM      8  C   UNL     1      -6.035  12.507  20.578  0.00  0.00    +0.000 A 
ATOM      9  C   UNL     1      -6.195  13.648  21.381  0.00  0.00    +0.000 A 
ATOM     10  C   UNL     1      -7.163  13.689  22.396  0.00  0.00    +0.000 A 
ATOM     11  C   UNL     1      -7.916  12.549  22.679  0.00  0.00    +0.000 A 
ATOM     12  C   UNL     1      -7.798  11.423  21.869  0.00  0.00    +0.000 A 
ATOM     13  C   UNL     1      -6.951  11.471  20.743  0.00  0.00    +0.000 A 
ATOM     14  C   UNL     1      -7.002  10.494  19.753  0.00  0.00    +0.000 A 
ATOM     15  C   UNL     1      -6.489  10.829  18.512  0.00  0.00    +0.000 A 
ATOM     16  C   UNL     1      -5.256  11.464  18.518  0.00  0.00    +0.000 A 
ATOM     17  C   UNL     1      -4.298  11.152  17.518  0.00  0.00    +0.000 A 
ATOM     18  C   UNL     1      -4.718  10.361  16.446  0.00  0.00    +0.000 A 
ATOM     19  C   UNL     1      -3.804   9.834  15.545  0.00  0.00    +0.000 A 
ATOM     20  C   UNL     1      -2.666  10.556  15.355  0.00  0.00    +0.000 A 
ATOM     21  C   UNL     1      -2.139  11.179  16.506  0.00  0.00    +0.000 A 
ATOM     22  C   UNL     1      -2.929  11.502  17.678  0.00  0.00    +0.000 A 
ENDBRANCH   3   5
BRANCH   1  28
ATOM     23  C   UNL     1       1.124  13.269  20.918  0.00  0.00    +0.000 A 
ATOM     24  C   UNL     1       2.438  13.485  21.419  0.00  0.00    +0.000 A 
ATOM     25  C   UNL     1       3.456  14.032  20.660  0.00  0.00    +0.000 A 
ATOM     26  C   UNL     1       3.256  14.188  19.313  0.00  0.00    +0.000 A 
ATOM     27  C   UNL     1       2.017  13.913  18.734  0.00  0.00    +0.000 A 
ATOM     28  C   UNL     1       0.926  13.485  19.513  0.00  0.00    +0.000 A 
BRANCH  23  34
ATOM     29  C   UNL     1      -0.199  11.434  22.156  0.00  0.00    +0.000 A 
ATOM     30  C   UNL     1      -1.309  11.100  22.961  0.00  0.00    +0.000 A 
ATOM     31  C   UNL     1      -2.102  12.091  23.540  0.00  0.00    +0.000 A 
ATOM     32  C   UNL     1      -1.787  13.422  23.349  0.00  0.00    +0.000 A 
ATOM     33  C   UNL     1      -0.744  13.752  22.493  0.00  0.00    +0.000 A 
ATOM     34  C   UNL     1       0.094  12.798  21.879  0.00  0.00    +0.000 A 
BRANCH  29  36
ATOM     35  O   UNL     1       0.294   9.888  20.409  0.00  0.00    +0.000 OA
ATOM     36  C   UNL     1       0.506  10.251  21.557  0.00  0.00    +0.000 C 
BRANCH  36  37
ATOM     37  O   UNL     1       1.421   9.635  22.339  0.00  0.00    +0.000 OA
ATOM     38  H   UNL     1       2.329   9.986  22.284  0.00  0.00    +0.000 HD
ENDBRANCH  36  37
ENDBRANCH  29  36
ENDBRANCH  23  34
ENDBRANCH   1  28
TORSDOF 5
ENDMDL
MODEL 7
REMARK VINA RESULT:      -7.0      5.754     10.266
REMARK  Name = 
REMARK  5 active torsions:
REMARK  status: ('A' for Active; 'I' for Inactive)
REMARK    1  A    between atoms: C_2  and  O_3
REMARK    2  A    between atoms: C_2  and  C_4
REMARK    3  A    between atoms: C_9  and  C_10
REMARK    4  A    between atoms: C_15  and  C_16
REMARK    5  A    between atoms: N_18  and  C_19
REMARK                            x       y       z     vdW  Elec       q    Type
REMARK                         _______ _______ _______ _____ _____    ______ ____
ROOT
ATOM      1  C   UNL     1      -1.906  14.410  23.175  0.00  0.00    +0.000 C 
ATOM      2  O   UNL     1      -1.577  13.314  23.615  0.00  0.00    +0.000 OA
ATOM      3  N   UNL     1      -3.041  14.615  22.394  0.00  0.00    +0.000 N 
ATOM      4  H   UNL     1      -3.274  15.539  22.060  0.00  0.00    +0.000 HD
ENDROOT
BRANCH   3   5
ATOM      5  C   UNL     1      -3.810  13.579  21.820  0.00  0.00    +0.000 A 
ATOM      6  C   UNL     1      -3.272  12.936  20.662  0.00  0.00    +0.000 A 
ATOM      7  C   UNL     1      -4.073  12.122  19.835  0.00  0.00    +0.000 A 
ATOM      8  C   UNL     1      -3.676  11.577  18.554  0.00  0.00    +0.000 A 
ATOM      9  C   UNL     1      -2.402  11.088  18.222  0.00  0.00    +0.000 A 
ATOM     10  C   UNL     1      -2.083  10.738  16.901  0.00  0.00    +0.000 A 
ATOM     11  C   UNL     1      -3.009  10.967  15.882  0.00  0.00    +0.000 A 
ATOM     12  C   UNL     1      -4.289  11.415  16.199  0.00  0.00    +0.000 A 
ATOM     13  C   UNL     1      -4.644  11.584  17.553  0.00  0.00    +0.000 A 
ATOM     14  C   UNL     1      -5.970  11.756  17.940  0.00  0.00    +0.000 A 
ATOM     15  C   UNL     1      -6.280  11.474  19.259  0.00  0.00    +0.000 A 
ATOM     16  C   UNL     1      -5.415  11.994  20.210  0.00  0.00    +0.000 A 
ATOM     17  C   UNL     1      -5.932  12.500  21.431  0.00  0.00    +0.000 A 
ATOM     18  C   UNL     1      -7.281  12.267  21.708  0.00  0.00    +0.000 A 
ATOM     19  C   UNL     1      -7.916  12.904  22.763  0.00  0.00    +0.000 A 
ATOM     20  C   UNL     1      -7.129  13.233  23.824  0.00  0.00    +0.000 A 
ATOM     21  C   UNL     1      -5.826  13.671  23.506  0.00  0.00    +0.000 A 
ATOM     22  C   UNL     1      -5.149  13.342  22.267  0.00  0.00    +0.000 A 
ENDBRANCH   3   5
BRANCH   1  28
ATOM     23  C   UNL     1      -0.265  16.367  22.574  0.00  0.00    +0.000 A 
ATOM     24  C   UNL     1       0.449  17.487  23.085  0.00  0.00    +0.000 A 
ATOM     25  C   UNL     1       0.506  17.795  24.432  0.00  0.00    +0.000 A 
ATOM     26  C   UNL     1      -0.319  17.120  25.294  0.00  0.00    +0.000 A 
ATOM     27  C   UNL     1      -1.114  16.066  24.848  0.00  0.00    +0.000 A 
ATOM     28  C   UNL     1      -1.085  15.645  23.505  0.00  0.00    +0.000 A 
BRANCH  23  34
ATOM     29  C   UNL     1       0.602  14.990  20.573  0.00  0.00    +0.000 A 
ATOM     30  C   UNL     1       0.796  14.906  19.178  0.00  0.00    +0.000 A 
ATOM     31  C   UNL     1       0.232  15.845  18.313  0.00  0.00    +0.000 A 
ATOM     32  C   UNL     1      -0.553  16.861  18.822  0.00  0.00    +0.000 A 
ATOM     33  C   UNL     1      -0.680  16.991  20.199  0.00  0.00    +0.000 A 
ATOM     34  C   UNL     1      -0.134  16.076  21.123  0.00  0.00    +0.000 A 
BRANCH  29  36
ATOM     35  O   UNL     1       2.420  14.164  21.875  0.00  0.00    +0.000 OA
ATOM     36  C   UNL     1       1.332  13.943  21.362  0.00  0.00    +0.000 C 
BRANCH  36  37
ATOM     37  O   UNL     1       0.704  12.755  21.513  0.00  0.00    +0.000 OA
ATOM     38  H   UNL     1      -0.200  12.706  21.149  0.00  0.00    +0.000 HD
ENDBRANCH  36  37
ENDBRANCH  29  36
ENDBRANCH  23  34
ENDBRANCH   1  28
TORSDOF 5
ENDMDL
MODEL 8
REMARK VINA RESULT:      -7.0      3.826      9.053
REMARK  Name = 
REMARK  5 active torsions:
REMARK  status: ('A' for Active; 'I' for Inactive)
REMARK    1  A    between atoms: C_2  and  O_3
REMARK    2  A    between atoms: C_2  and  C_4
REMARK    3  A    between atoms: C_9  and  C_10
REMARK    4  A    between atoms: C_15  and  C_16
REMARK    5  A    between atoms: N_18  and  C_19
REMARK                            x       y       z     vdW  Elec       q    Type
REMARK                         _______ _______ _______ _____ _____    ______ ____
ROOT
ATOM      1  C   UNL     1       1.141  13.829  19.115  0.00  0.00    +0.000 C 
ATOM      2  O   UNL     1       0.550  13.138  18.292  0.00  0.00    +0.000 OA
ATOM      3  N   UNL     1       0.854  13.814  20.477  0.00  0.00    +0.000 N 
ATOM      4  H   UNL     1       1.373  14.397  21.118  0.00  0.00    +0.000 HD
ENDROOT
BRANCH   3   5
ATOM      5  C   UNL     1      -0.285  13.200  21.044  0.00  0.00    +0.000 A 
ATOM      6  C   UNL     1      -1.470  13.994  21.141  0.00  0.00    +0.000 A 
ATOM      7  C   UNL     1      -2.552  13.602  21.956  0.00  0.00    +0.000 A 
ATOM      8  C   UNL     1      -3.711  14.413  22.264  0.00  0.00    +0.000 A 
ATOM      9  C   UNL     1      -4.371  15.280  21.378  0.00  0.00    +0.000 A 
ATOM     10  C   UNL     1      -5.381  16.144  21.829  0.00  0.00    +0.000 A 
ATOM     11  C   UNL     1      -5.672  16.215  23.192  0.00  0.00    +0.000 A 
ATOM     12  C   UNL     1      -5.054  15.337  24.077  0.00  0.00    +0.000 A 
ATOM     13  C   UNL     1      -4.178  14.353  23.573  0.00  0.00    +0.000 A 
ATOM     14  C   UNL     1      -3.755  13.285  24.360  0.00  0.00    +0.000 A 
ATOM     15  C   UNL     1      -3.283  12.166  23.697  0.00  0.00    +0.000 A 
ATOM     16  C   UNL     1      -2.389  12.405  22.664  0.00  0.00    +0.000 A 
ATOM     17  C   UNL     1      -1.288  11.532  22.468  0.00  0.00    +0.000 A 
ATOM     18  C   UNL     1      -1.265  10.345  23.206  0.00  0.00    +0.000 A 
ATOM     19  C   UNL     1      -0.134   9.544  23.239  0.00  0.00    +0.000 A 
ATOM     20  C   UNL     1       0.660   9.584  22.134  0.00  0.00    +0.000 A 
ATOM     21  C   UNL     1       0.792  10.849  21.522  0.00  0.00    +0.000 A 
ATOM     22  C   UNL     1      -0.177  11.917  21.670  0.00  0.00    +0.000 A 
ENDBRANCH   3   5
BRANCH   1  28
ATOM     23  C   UNL     1       2.196  16.159  18.537  0.00  0.00    +0.000 A 
ATOM     24  C   UNL     1       3.370  16.828  18.089  0.00  0.00    +0.000 A 
ATOM     25  C   UNL     1       4.497  16.160  17.647  0.00  0.00    +0.000 A 
ATOM     26  C   UNL     1       4.570  14.804  17.833  0.00  0.00    +0.000 A 
ATOM     27  C   UNL     1       3.488  14.091  18.348  0.00  0.00    +0.000 A 
ATOM     28  C   UNL     1       2.280  14.734  18.678  0.00  0.00    +0.000 A 
BRANCH  23  34
ATOM     29  C   UNL     1       0.702  17.507  20.150  0.00  0.00    +0.000 A 
ATOM     30  C   UNL     1      -0.533  18.151  20.375  0.00  0.00    +0.000 A 
ATOM     31  C   UNL     1      -1.444  18.347  19.336  0.00  0.00    +0.000 A 
ATOM     32  C   UNL     1      -1.126  17.931  18.058  0.00  0.00    +0.000 A 
ATOM     33  C   UNL     1       0.053  17.227  17.851  0.00  0.00    +0.000 A 
ATOM     34  C   UNL     1       1.013  16.997  18.859  0.00  0.00    +0.000 A 
BRANCH  29  36
ATOM     35  O   UNL     1       2.405  18.112  21.706  0.00  0.00    +0.000 OA
ATOM     36  C   UNL     1       1.533  17.316  21.386  0.00  0.00    +0.000 C 
BRANCH  36  37
ATOM     37  O   UNL     1       1.238  16.241  22.151  0.00  0.00    +0.000 OA
ATOM     38  H   UNL     1       0.736  15.532  21.706  0.00  0.00    +0.000 HD
ENDBRANCH  36  37
ENDBRANCH  29  36
ENDBRANCH  23  34
ENDBRANCH   1  28
TORSDOF 5
ENDMDL
MODEL 9
REMARK VINA RESULT:      -6.8      3.023      5.735
REMARK  Name = 
REMARK  5 active torsions:
REMARK  status: ('A' for Active; 'I' for Inactive)
REMARK    1  A    between atoms: C_2  and  O_3
REMARK    2  A    between atoms: C_2  and  C_4
REMARK    3  A    between atoms: C_9  and  C_10
REMARK    4  A    between atoms: C_15  and  C_16
REMARK    5  A    between atoms: N_18  and  C_19
REMARK                            x       y       z     vdW  Elec       q    Type
REMARK                         _______ _______ _______ _____ _____    ______ ____
ROOT
ATOM      1  C   UNL     1       0.034  12.782  18.947  0.00  0.00    +0.000 C 
ATOM      2  O   UNL     1       0.068  13.074  20.137  0.00  0.00    +0.000 OA
ATOM      3  N   UNL     1       0.891  13.330  17.996  0.00  0.00    +0.000 N 
ATOM      4  H   UNL     1       0.829  13.053  17.028  0.00  0.00    +0.000 HD
ENDROOT
BRANCH   3   5
ATOM      5  C   UNL     1       1.730  14.442  18.229  0.00  0.00    +0.000 A 
ATOM      6  C   UNL     1       3.139  14.230  18.107  0.00  0.00    +0.000 A 
ATOM      7  C   UNL     1       4.068  15.163  18.611  0.00  0.00    +0.000 A 
ATOM      8  C   UNL     1       5.499  14.960  18.699  0.00  0.00    +0.000 A 
ATOM      9  C   UNL     1       6.300  14.300  17.754  0.00  0.00    +0.000 A 
ATOM     10  C   UNL     1       7.648  14.015  18.020  0.00  0.00    +0.000 A 
ATOM     11  C   UNL     1       8.180  14.303  19.278  0.00  0.00    +0.000 A 
ATOM     12  C   UNL     1       7.411  14.991  20.212  0.00  0.00    +0.000 A 
ATOM     13  C   UNL     1       6.120  15.430  19.854  0.00  0.00    +0.000 A 
ATOM     14  C   UNL     1       5.422  16.349  20.631  0.00  0.00    +0.000 A 
ATOM     15  C   UNL     1       4.400  17.047  20.012  0.00  0.00    +0.000 A 
ATOM     16  C   UNL     1       3.530  16.291  19.241  0.00  0.00    +0.000 A 
ATOM     17  C   UNL     1       2.143  16.591  19.242  0.00  0.00    +0.000 A 
ATOM     18  C   UNL     1       1.739  17.773  19.869  0.00  0.00    +0.000 A 
ATOM     19  C   UNL     1       0.398  18.035  20.104  0.00  0.00    +0.000 A 
ATOM     20  C   UNL     1      -0.483  17.486  19.224  0.00  0.00    +0.000 A 
ATOM     21  C   UNL     1      -0.158  16.193  18.761  0.00  0.00    +0.000 A 
ATOM     22  C   UNL     1       1.188  15.655  18.760  0.00  0.00    +0.000 A 
ENDBRANCH   3   5
BRANCH   1  28
ATOM     23  C   UNL     1      -0.950  10.354  18.805  0.00  0.00    +0.000 A 
ATOM     24  C   UNL     1      -1.945   9.533  18.203  0.00  0.00    +0.000 A 
ATOM     25  C   UNL     1      -2.780   9.977  17.194  0.00  0.00    +0.000 A 
ATOM     26  C   UNL     1      -2.795  11.314  16.897  0.00  0.00    +0.000 A 
ATOM     27  C   UNL     1      -1.906  12.196  17.511  0.00  0.00    +0.000 A 
ATOM     28  C   UNL     1      -0.953  11.743  18.442  0.00  0.00    +0.000 A 
BRANCH  23  34
ATOM     29  C   UNL     1       1.215   9.116  19.460  0.00  0.00    +0.000 A 
ATOM     30  C   UNL     1       1.925   8.390  20.441  0.00  0.00    +0.000 A 
ATOM     31  C   UNL     1       1.448   8.290  21.748  0.00  0.00    +0.000 A 
ATOM     32  C   UNL     1       0.277   8.931  22.103  0.00  0.00    +0.000 A 
ATOM     33  C   UNL     1      -0.462   9.578  21.121  0.00  0.00    +0.000 A 
ATOM     34  C   UNL     1      -0.034   9.713  19.784  0.00  0.00    +0.000 A 
BRANCH  29  36
ATOM     35  O   UNL     1       2.147   8.010  17.564  0.00  0.00    +0.000 OA
ATOM     36  C   UNL     1       1.830   9.067  18.091  0.00  0.00    +0.000 C 
BRANCH  36  37
ATOM     37  O   UNL     1       1.975  10.251  17.453  0.00  0.00    +0.000 OA
ATOM     38  H   UNL     1       2.698  10.293  16.801  0.00  0.00    +0.000 HD
ENDBRANCH  36  37
ENDBRANCH  29  36
ENDBRANCH  23  34
ENDBRANCH   1  28
TORSDOF 5
ENDMDL
