MODEL 1
REMARK VINA RESULT:      -6.5      0.000      0.000
REMARK  Name = 
REMARK  7 active torsions:
REMARK  status: ('A' for Active; 'I' for Inactive)
REMARK    1  A    between atoms: C_1  and  C_2
REMARK    2  A    between atoms: C_5  and  C_6
REMARK    3  A    between atoms: N_8  and  N_9
REMARK    4  A    between atoms: N_9  and  C_10
REMARK    5  A    between atoms: C_10  and  C_11
REMARK    6  A    between atoms: C_10  and  C_12
REMARK    7  A    between atoms: C_13  and  C_14
REMARK                            x       y       z     vdW  Elec       q    Type
REMARK                         _______ _______ _______ _____ _____    ______ ____
ROOT
ATOM      1  C   UNL     1       5.346   4.941  18.532  0.00  0.00    +0.000 C 
ATOM      2  O   UNL     1       5.949   4.404  19.459  0.00  0.00    +0.000 OA
ATOM      3  N   UNL     1       4.132   5.592  18.700  0.00  0.00    +0.000 N 
ATOM      4  H   UNL     1       3.679   6.096  17.946  0.00  0.00    +0.000 HD
ENDROOT
BRANCH   1   9
ATOM      5  C   UNL     1       7.381   4.808  13.221  0.00  0.00    +0.000 C 
ATOM      6  C   UNL     1       6.882   4.843  14.633  0.00  0.00    +0.000 A 
ATOM      7  N   UNL     1       5.953   3.951  14.999  0.00  0.00    +0.000 NA
ATOM      8  C   UNL     1       5.508   4.049  16.272  0.00  0.00    +0.000 A 
ATOM      9  C   UNL     1       5.958   4.982  17.190  0.00  0.00    +0.000 A 
ATOM     10  C   UNL     1       6.907   5.874  16.715  0.00  0.00    +0.000 A 
ATOM     11  C   UNL     1       7.493   7.009  17.495  0.00  0.00    +0.000 C 
ATOM     12  N   UNL     1       7.384   5.794  15.442  0.00  0.00    +0.000 NA
ENDBRANCH   1   9
BRANCH   3  13
ATOM     13  N   UNL     1       3.547   5.660  19.987  0.00  0.00    +0.000 NA
ATOM     14  H   UNL     1       3.458   6.660  20.220  0.00  0.00    +0.000 HD
BRANCH  13  15
ATOM     15  C   UNL     1       2.188   5.080  19.993  0.00  0.00    +0.000 C 
ATOM     16  C   UNL     1       1.841   4.465  18.634  0.00  0.00    +0.000 C 
ATOM     17  C   UNL     1       2.105   4.007  21.079  0.00  0.00    +0.000 C 
ENDBRANCH  13  15
ENDBRANCH   3  13
TORSDOF 3
ENDMDL
MODEL 2
REMARK VINA RESULT:      -6.4      1.768      5.746
REMARK  Name = 
REMARK  7 active torsions:
REMARK  status: ('A' for Active; 'I' for Inactive)
REMARK    1  A    between atoms: C_1  and  C_2
REMARK    2  A    between atoms: C_5  and  C_6
REMARK    3  A    between atoms: N_8  and  N_9
REMARK    4  A    between atoms: N_9  and  C_10
REMARK    5  A    between atoms: C_10  and  C_11
REMARK    6  A    between atoms: C_10  and  C_12
REMARK    7  A    between atoms: C_13  and  C_14
REMARK                            x       y       z     vdW  Elec       q    Type
REMARK                         _______ _______ _______ _____ _____    ______ ____
ROOT
ATOM      1  C   UNL     1       5.738   4.288  18.401  0.00  0.00    +0.000 C 
ATOM      2  O   UNL     1       6.720   4.790  18.943  0.00  0.00    +0.000 OA
ATOM      3  N   UNL     1       5.727   3.910  17.066  0.00  0.00    +0.000 N 
ATOM      4  H   UNL     1       4.939   3.429  16.646  0.00  0.00    +0.000 HD
ENDROOT
BRANCH   1   9
ATOM      5  C   UNL     1       1.329   2.750  21.651  0.00  0.00    +0.000 C 
ATOM      6  C   UNL     1       2.465   3.165  20.767  0.00  0.00    +0.000 A 
ATOM      7  N   UNL     1       3.482   2.310  20.597  0.00  0.00    +0.000 NA
ATOM      8  C   UNL     1       4.499   2.746  19.821  0.00  0.00    +0.000 A 
ATOM      9  C   UNL     1       4.537   3.984  19.202  0.00  0.00    +0.000 A 
ATOM     10  C   UNL     1       3.449   4.807  19.450  0.00  0.00    +0.000 A 
ATOM     11  C   UNL     1       3.294   6.208  18.949  0.00  0.00    +0.000 C 
ATOM     12  N   UNL     1       2.404   4.391  20.217  0.00  0.00    +0.000 NA
ENDBRANCH   1   9
BRANCH   3  13
ATOM     13  N   UNL     1       6.887   4.096  16.276  0.00  0.00    +0.000 NA
ATOM     14  H   UNL     1       7.208   3.158  15.997  0.00  0.00    +0.000 HD
BRANCH  13  15
ATOM     15  C   UNL     1       6.583   4.848  15.041  0.00  0.00    +0.000 C 
ATOM     16  C   UNL     1       6.217   3.905  13.891  0.00  0.00    +0.000 C 
ATOM     17  C   UNL     1       5.421   5.806  15.310  0.00  0.00    +0.000 C 
ENDBRANCH  13  15
ENDBRANCH   3  13
TORSDOF 3
ENDMDL
MODEL 3
REMARK VINA RESULT:      -6.4      1.692      1.712
REMARK  Name = 
REMARK  7 active torsions:
REMARK  status: ('A' for Active; 'I' for Inactive)
REMARK    1  A    between atoms: C_1  and  C_2
REMARK    2  A    between atoms: C_5  and  C_6
REMARK    3  A    between atoms: N_8  and  N_9
REMARK    4  A    between atoms: N_9  and  C_10
REMARK    5  A    between atoms: C_10  and  C_11
REMARK    6  A    between atoms: C_10  and  C_12
REMARK    7  A    between atoms: C_13  and  C_14
REMARK                            x       y       z     vdW  Elec       q    Type
REMARK                         _______ _______ _______ _____ _____    ______ ____
ROOT
ATOM      1  C   UNL     1       4.966   4.139  18.932  0.00  0.00    +0.000 C 
ATOM      2  O   UNL     1       4.530   5.097  19.567  0.00  0.00    +0.000 OA
ATOM      3  N   UNL     1       4.744   2.822  19.310  0.00  0.00    +0.000 N 
ATOM      4  H   UNL     1       5.044   2.038  18.742  0.00  0.00    +0.000 HD
ENDROOT
BRANCH   1   9
ATOM      5  C   UNL     1       7.352   4.933  13.829  0.00  0.00    +0.000 C 
ATOM      6  C   UNL     1       6.757   4.706  15.185  0.00  0.00    +0.000 A 
ATOM      7  N   UNL     1       5.539   4.155  15.259  0.00  0.00    +0.000 NA
ATOM      8  C   UNL     1       5.030   4.006  16.502  0.00  0.00    +0.000 A 
ATOM      9  C   UNL     1       5.686   4.369  17.666  0.00  0.00    +0.000 A 
ATOM     10  C   UNL     1       6.934   4.947  17.490  0.00  0.00    +0.000 A 
ATOM     11  C   UNL     1       7.803   5.479  18.586  0.00  0.00    +0.000 C 
ATOM     12  N   UNL     1       7.478   5.099  16.251  0.00  0.00    +0.000 NA
ENDBRANCH   1   9
BRANCH   3  13
ATOM     13  N   UNL     1       3.980   2.546  20.469  0.00  0.00    +0.000 NA
ATOM     14  H   UNL     1       4.332   3.168  21.211  0.00  0.00    +0.000 HD
BRANCH  13  15
ATOM     15  C   UNL     1       2.552   2.863  20.262  0.00  0.00    +0.000 C 
ATOM     16  C   UNL     1       1.932   1.963  19.190  0.00  0.00    +0.000 C 
ATOM     17  C   UNL     1       1.801   2.682  21.582  0.00  0.00    +0.000 C 
ENDBRANCH  13  15
ENDBRANCH   3  13
TORSDOF 3
ENDMDL
MODEL 4
REMARK VINA RESULT:      -6.3      0.805      1.183
REMARK  Name = 
REMARK  7 active torsions:
REMARK  status: ('A' for Active; 'I' for Inactive)
REMARK    1  A    between atoms: C_1  and  C_2
REMARK    2  A    between atoms: C_5  and  C_6
REMARK    3  A    between atoms: N_8  and  N_9
REMARK    4  A    between atoms: N_9  and  C_10
REMARK    5  A    between atoms: C_10  and  C_11
REMARK    6  A    between atoms: C_10  and  C_12
REMARK    7  A    between atoms: C_13  and  C_14
REMARK                            x       y       z     vdW  Elec       q    Type
REMARK                         _______ _______ _______ _____ _____    ______ ____
ROOT
ATOM      1  C   UNL     1       5.253   4.426  18.409  0.00  0.00    +0.000 C 
ATOM      2  O   UNL     1       5.916   4.054  19.375  0.00  0.00    +0.000 OA
ATOM      3  N   UNL     1       3.903   4.736  18.498  0.00  0.00    +0.000 N 
ATOM      4  H   UNL     1       3.382   5.113  17.714  0.00  0.00    +0.000 HD
ENDROOT
BRANCH   1   9
ATOM      5  C   UNL     1       7.502   4.968  13.212  0.00  0.00    +0.000 C 
ATOM      6  C   UNL     1       6.946   4.825  14.596  0.00  0.00    +0.000 A 
ATOM      7  N   UNL     1       6.050   3.857  14.823  0.00  0.00    +0.000 NA
ATOM      8  C   UNL     1       5.551   3.794  16.077  0.00  0.00    +0.000 A 
ATOM      9  C   UNL     1       5.915   4.642  17.109  0.00  0.00    +0.000 A 
ATOM     10  C   UNL     1       6.835   5.623  16.775  0.00  0.00    +0.000 A 
ATOM     11  C   UNL     1       7.331   6.693  17.697  0.00  0.00    +0.000 C 
ATOM     12  N   UNL     1       7.366   5.704  15.524  0.00  0.00    +0.000 NA
ENDBRANCH   1   9
BRANCH   3  13
ATOM     13  N   UNL     1       3.242   4.633  19.745  0.00  0.00    +0.000 NA
ATOM     14  H   UNL     1       2.508   5.357  19.752  0.00  0.00    +0.000 HD
BRANCH  13  15
ATOM     15  C   UNL     1       2.576   3.323  19.896  0.00  0.00    +0.000 C 
ATOM     16  C   UNL     1       2.482   2.914  21.369  0.00  0.00    +0.000 C 
ATOM     17  C   UNL     1       1.173   3.401  19.293  0.00  0.00    +0.000 C 
ENDBRANCH  13  15
ENDBRANCH   3  13
TORSDOF 3
ENDMDL
MODEL 5
REMARK VINA RESULT:      -6.3      1.599      1.836
REMARK  Name = 
REMARK  7 active torsions:
REMARK  status: ('A' for Active; 'I' for Inactive)
REMARK    1  A    between atoms: C_1  and  C_2
REMARK    2  A    between atoms: C_5  and  C_6
REMARK    3  A    between atoms: N_8  and  N_9
REMARK    4  A    between atoms: N_9  and  C_10
REMARK    5  A    between atoms: C_10  and  C_11
REMARK    6  A    between atoms: C_10  and  C_12
REMARK    7  A    between atoms: C_13  and  C_14
REMARK                            x       y       z     vdW  Elec       q    Type
REMARK                         _______ _______ _______ _____ _____    ______ ____
ROOT
ATOM      1  C   UNL     1       4.824   4.178  18.773  0.00  0.00    +0.000 C 
ATOM      2  O   UNL     1       4.572   5.145  19.489  0.00  0.00    +0.000 OA
ATOM      3  N   UNL     1       4.366   2.898  19.048  0.00  0.00    +0.000 N 
ATOM      4  H   UNL     1       4.516   2.121  18.414  0.00  0.00    +0.000 HD
ENDROOT
BRANCH   1   9
ATOM      5  C   UNL     1       7.310   4.883  13.705  0.00  0.00    +0.000 C 
ATOM      6  C   UNL     1       6.687   4.677  15.051  0.00  0.00    +0.000 A 
ATOM      7  N   UNL     1       5.428   4.222  15.104  0.00  0.00    +0.000 NA
ATOM      8  C   UNL     1       4.899   4.089  16.341  0.00  0.00    +0.000 A 
ATOM      9  C   UNL     1       5.572   4.376  17.517  0.00  0.00    +0.000 A 
ATOM     10  C   UNL     1       6.862   4.857  17.361  0.00  0.00    +0.000 A 
ATOM     11  C   UNL     1       7.761   5.297  18.474  0.00  0.00    +0.000 C 
ATOM     12  N   UNL     1       7.428   4.990  16.130  0.00  0.00    +0.000 NA
ENDBRANCH   1   9
BRANCH   3  13
ATOM     13  N   UNL     1       3.567   2.671  20.195  0.00  0.00    +0.000 NA
ATOM     14  H   UNL     1       3.565   3.550  20.733  0.00  0.00    +0.000 HD
BRANCH  13  15
ATOM     15  C   UNL     1       2.168   2.373  19.826  0.00  0.00    +0.000 C 
ATOM     16  C   UNL     1       1.213   3.450  20.348  0.00  0.00    +0.000 C 
ATOM     17  C   UNL     1       2.058   2.283  18.303  0.00  0.00    +0.000 C 
ENDBRANCH  13  15
ENDBRANCH   3  13
TORSDOF 3
ENDMDL
MODEL 6
REMARK VINA RESULT:      -6.1      1.024      1.087
REMARK  Name = 
REMARK  7 active torsions:
REMARK  status: ('A' for Active; 'I' for Inactive)
REMARK    1  A    between atoms: C_1  and  C_2
REMARK    2  A    between atoms: C_5  and  C_6
REMARK    3  A    between atoms: N_8  and  N_9
REMARK    4  A    between atoms: N_9  and  C_10
REMARK    5  A    between atoms: C_10  and  C_11
REMARK    6  A    between atoms: C_10  and  C_12
REMARK    7  A    between atoms: C_13  and  C_14
REMARK                            x       y       z     vdW  Elec       q    Type
REMARK                         _______ _______ _______ _____ _____    ______ ____
ROOT
ATOM      1  C   UNL     1       5.227   4.342  17.898  0.00  0.00    +0.000 C 
ATOM      2  O   UNL     1       5.851   4.013  18.905  0.00  0.00    +0.000 OA
ATOM      3  N   UNL     1       3.859   4.578  17.904  0.00  0.00    +0.000 N 
ATOM      4  H   UNL     1       3.366   4.920  17.087  0.00  0.00    +0.000 HD
ENDROOT
BRANCH   1   9
ATOM      5  C   UNL     1       7.725   4.995  12.829  0.00  0.00    +0.000 C 
ATOM      6  C   UNL     1       7.103   4.823  14.181  0.00  0.00    +0.000 A 
ATOM      7  N   UNL     1       6.186   3.860  14.338  0.00  0.00    +0.000 NA
ATOM      8  C   UNL     1       5.627   3.769  15.566  0.00  0.00    +0.000 A 
ATOM      9  C   UNL     1       5.952   4.584  16.637  0.00  0.00    +0.000 A 
ATOM     10  C   UNL     1       6.898   5.563  16.374  0.00  0.00    +0.000 A 
ATOM     11  C   UNL     1       7.362   6.600  17.348  0.00  0.00    +0.000 C 
ATOM     12  N   UNL     1       7.488   5.671  15.152  0.00  0.00    +0.000 NA
ENDBRANCH   1   9
BRANCH   3  13
ATOM     13  N   UNL     1       3.132   4.447  19.111  0.00  0.00    +0.000 NA
ATOM     14  H   UNL     1       3.747   3.956  19.776  0.00  0.00    +0.000 HD
BRANCH  13  15
ATOM     15  C   UNL     1       2.811   5.766  19.693  0.00  0.00    +0.000 C 
ATOM     16  C   UNL     1       2.454   6.782  18.604  0.00  0.00    +0.000 C 
ATOM     17  C   UNL     1       1.636   5.616  20.661  0.00  0.00    +0.000 C 
ENDBRANCH  13  15
ENDBRANCH   3  13
TORSDOF 3
ENDMDL
MODEL 7
REMARK VINA RESULT:      -6.1      1.857      2.599
REMARK  Name = 
REMARK  7 active torsions:
REMARK  status: ('A' for Active; 'I' for Inactive)
REMARK    1  A    between atoms: C_1  and  C_2
REMARK    2  A    between atoms: C_5  and  C_6
REMARK    3  A    between atoms: N_8  and  N_9
REMARK    4  A    between atoms: N_9  and  C_10
REMARK    5  A    between atoms: C_10  and  C_11
REMARK    6  A    between atoms: C_10  and  C_12
REMARK    7  A    between atoms: C_13  and  C_14
REMARK                            x       y       z     vdW  Elec       q    Type
REMARK                         _______ _______ _______ _____ _____    ______ ____
ROOT
ATOM      1  C   UNL     1       3.292   5.757  18.562  0.00  0.00    +0.000 C 
ATOM      2  O   UNL     1       2.396   6.583  18.402  0.00  0.00    +0.000 OA
ATOM      3  N   UNL     1       3.472   5.062  19.750  0.00  0.00    +0.000 N 
ATOM      4  H   UNL     1       4.166   4.329  19.849  0.00  0.00    +0.000 HD
ENDROOT
BRANCH   1   9
ATOM      5  C   UNL     1       6.858   4.840  14.225  0.00  0.00    +0.000 C 
ATOM      6  C   UNL     1       5.891   5.060  15.348  0.00  0.00    +0.000 A 
ATOM      7  N   UNL     1       5.705   6.311  15.788  0.00  0.00    +0.000 NA
ATOM      8  C   UNL     1       4.852   6.453  16.827  0.00  0.00    +0.000 A 
ATOM      9  C   UNL     1       4.174   5.408  17.432  0.00  0.00    +0.000 A 
ATOM     10  C   UNL     1       4.444   4.148  16.920  0.00  0.00    +0.000 A 
ATOM     11  C   UNL     1       3.887   2.864  17.448  0.00  0.00    +0.000 C 
ATOM     12  N   UNL     1       5.288   3.975  15.866  0.00  0.00    +0.000 NA
ENDBRANCH   1   9
BRANCH   3  13
ATOM     13  N   UNL     1       2.594   5.294  20.836  0.00  0.00    +0.000 NA
ATOM     14  H   UNL     1       1.916   6.003  20.522  0.00  0.00    +0.000 HD
BRANCH  13  15
ATOM     15  C   UNL     1       1.835   4.076  21.185  0.00  0.00    +0.000 C 
ATOM     16  C   UNL     1       0.771   3.762  20.128  0.00  0.00    +0.000 C 
ATOM     17  C   UNL     1       2.803   2.898  21.306  0.00  0.00    +0.000 C 
ENDBRANCH  13  15
ENDBRANCH   3  13
TORSDOF 3
ENDMDL
MODEL 8
REMARK VINA RESULT:      -6.0      2.365      5.822
REMARK  Name = 
REMARK  7 active torsions:
REMARK  status: ('A' for Active; 'I' for Inactive)
REMARK    1  A    between atoms: C_1  and  C_2
REMARK    2  A    between atoms: C_5  and  C_6
REMARK    3  A    between atoms: N_8  and  N_9
REMARK    4  A    between atoms: N_9  and  C_10
REMARK    5  A    between atoms: C_10  and  C_11
REMARK    6  A    between atoms: C_10  and  C_12
REMARK    7  A    between atoms: C_13  and  C_14
REMARK                            x       y       z     vdW  Elec       q    Type
REMARK                         _______ _______ _______ _____ _____    ______ ____
ROOT
ATOM      1  C   UNL     1       6.558   4.419  15.062  0.00  0.00    +0.000 C 
ATOM      2  O   UNL     1       7.460   5.243  14.920  0.00  0.00    +0.000 OA
ATOM      3  N   UNL     1       6.204   3.514  14.072  0.00  0.00    +0.000 N 
ATOM      4  H   UNL     1       5.511   2.789  14.223  0.00  0.00    +0.000 HD
ENDROOT
BRANCH   1   9
ATOM      5  C   UNL     1       3.524   3.838  19.839  0.00  0.00    +0.000 C 
ATOM      6  C   UNL     1       4.337   4.025  18.595  0.00  0.00    +0.000 A 
ATOM      7  N   UNL     1       3.723   3.902  17.411  0.00  0.00    +0.000 NA
ATOM      8  C   UNL     1       4.508   4.042  16.320  0.00  0.00    +0.000 A 
ATOM      9  C   UNL     1       5.866   4.311  16.360  0.00  0.00    +0.000 A 
ATOM     10  C   UNL     1       6.416   4.404  17.628  0.00  0.00    +0.000 A 
ATOM     11  C   UNL     1       7.867   4.620  17.928  0.00  0.00    +0.000 C 
ATOM     12  N   UNL     1       5.650   4.280  18.747  0.00  0.00    +0.000 NA
ENDBRANCH   1   9
BRANCH   3  13
ATOM     13  N   UNL     1       6.901   3.516  12.839  0.00  0.00    +0.000 NA
ATOM     14  H   UNL     1       7.660   2.825  12.927  0.00  0.00    +0.000 HD
BRANCH  13  15
ATOM     15  C   UNL     1       6.031   3.081  11.727  0.00  0.00    +0.000 C 
ATOM     16  C   UNL     1       6.176   1.580  11.462  0.00  0.00    +0.000 C 
ATOM     17  C   UNL     1       4.576   3.404  12.073  0.00  0.00    +0.000 C 
ENDBRANCH  13  15
ENDBRANCH   3  13
TORSDOF 3
ENDMDL
MODEL 9
REMARK VINA RESULT:      -6.0      2.319      5.940
REMARK  Name = 
REMARK  7 active torsions:
REMARK  status: ('A' for Active; 'I' for Inactive)
REMARK    1  A    between atoms: C_1  and  C_2
REMARK    2  A    between atoms: C_5  and  C_6
REMARK    3  A    between atoms: N_8  and  N_9
REMARK    4  A    between atoms: N_9  and  C_10
REMARK    5  A    between atoms: C_10  and  C_11
REMARK    6  A    between atoms: C_10  and  C_12
REMARK    7  A    between atoms: C_13  and  C_14
REMARK                            x       y       z     vdW  Elec       q    Type
REMARK                         _______ _______ _______ _____ _____    ______ ____
ROOT
ATOM      1  C   UNL     1       5.706   4.552  15.293  0.00  0.00    +0.000 C 
ATOM      2  O   UNL     1       5.794   5.720  14.921  0.00  0.00    +0.000 OA
ATOM      3  N   UNL     1       6.058   3.477  14.489  0.00  0.00    +0.000 N 
ATOM      4  H   UNL     1       6.053   2.522  14.829  0.00  0.00    +0.000 HD
ENDROOT
BRANCH   1   9
ATOM      5  C   UNL     1       3.738   3.207  20.459  0.00  0.00    +0.000 C 
ATOM      6  C   UNL     1       4.268   3.596  19.113  0.00  0.00    +0.000 A 
ATOM      7  N   UNL     1       3.468   3.445  18.049  0.00  0.00    +0.000 NA
ATOM      8  C   UNL     1       4.006   3.775  16.853  0.00  0.00    +0.000 A 
ATOM      9  C   UNL     1       5.292   4.257  16.678  0.00  0.00    +0.000 A 
ATOM     10  C   UNL     1       6.050   4.362  17.834  0.00  0.00    +0.000 A 
ATOM     11  C   UNL     1       7.482   4.793  17.892  0.00  0.00    +0.000 C 
ATOM     12  N   UNL     1       5.533   4.050  19.054  0.00  0.00    +0.000 NA
ENDBRANCH   1   9
BRANCH   3  13
ATOM     13  N   UNL     1       6.548   3.712  13.182  0.00  0.00    +0.000 NA
ATOM     14  H   UNL     1       7.568   3.564  13.218  0.00  0.00    +0.000 HD
BRANCH  13  15
ATOM     15  C   UNL     1       5.992   2.745  12.215  0.00  0.00    +0.000 C 
ATOM     16  C   UNL     1       4.743   3.303  11.526  0.00  0.00    +0.000 C 
ATOM     17  C   UNL     1       7.054   2.416  11.165  0.00  0.00    +0.000 C 
ENDBRANCH  13  15
ENDBRANCH   3  13
TORSDOF 3
ENDMDL
