MODEL 1
REMARK VINA RESULT:      -8.5      0.000      0.000
REMARK  Name = 
REMARK  8 active torsions:
REMARK  status: ('A' for Active; 'I' for Inactive)
REMARK    1  A    between atoms: N_1  and  C_2
REMARK    2  A    between atoms: C_2  and  N_4
REMARK    3  A    between atoms: N_4  and  N_5
REMARK    4  A    between atoms: C_6  and  C_8
REMARK    5  A    between atoms: N_11  and  C_12
REMARK    6  A    between atoms: C_15  and  S_16
REMARK    7  A    between atoms: S_16  and  N_17
REMARK    8  A    between atoms: C_22  and  C_23
REMARK                            x       y       z     vdW  Elec       q    Type
REMARK                         _______ _______ _______ _____ _____    ______ ____
ROOT
ATOM      1  C   UNL     1       5.176   5.484  16.154  0.00  0.00    +0.000 A 
ATOM      2  N   UNL     1       5.319   6.821  15.867  0.00  0.00    +0.000 NA
ATOM      3  N   UNL     1       4.391   7.490  16.527  0.00  0.00    +0.000 NA
ATOM      4  N   UNL     1       3.758   6.631  17.360  0.00  0.00    +0.000 N 
ATOM      5  C   UNL     1       4.141   5.312  17.069  0.00  0.00    +0.000 A 
ENDROOT
BRANCH   4   6
ATOM      6  C   UNL     1       2.836   7.115  18.336  0.00  0.00    +0.000 A 
ATOM      7  C   UNL     1       2.705   6.455  19.560  0.00  0.00    +0.000 A 
ATOM      8  C   UNL     1       2.012   7.078  20.607  0.00  0.00    +0.000 A 
ATOM      9  C   UNL     1       1.447   8.345  20.409  0.00  0.00    +0.000 A 
ATOM     10  C   UNL     1       1.472   8.943  19.151  0.00  0.00    +0.000 A 
ATOM     11  C   UNL     1       2.140   8.313  18.106  0.00  0.00    +0.000 A 
BRANCH   9  12
ATOM     12  S   UNL     1       0.670   9.198  21.750  0.00  0.00    +0.000 S 
ATOM     13  O   UNL     1      -0.597   8.572  22.041  0.00  0.00    +0.000 OA
ATOM     14  O   UNL     1       1.651   9.478  22.768  0.00  0.00    +0.000 OA
BRANCH  12  15
ATOM     15  N   UNL     1       0.290  10.677  21.040  0.00  0.00    +0.000 NA
ATOM     16  H   UNL     1       1.144  11.208  20.866  0.00  0.00    +0.000 HD
ATOM     17  H   UNL     1      -0.268  10.520  20.200  0.00  0.00    +0.000 HD
ENDBRANCH  12  15
ENDBRANCH   9  12
ENDBRANCH   4   6
BRANCH   5  18
ATOM     18  C   UNL     1       3.560   4.104  17.672  0.00  0.00    +0.000 A 
ATOM     19  C   UNL     1       2.230   3.732  17.412  0.00  0.00    +0.000 A 
ATOM     20  C   UNL     1       1.588   2.777  18.203  0.00  0.00    +0.000 A 
ATOM     21  C   UNL     1       2.300   2.101  19.187  0.00  0.00    +0.000 A 
ATOM     22  C   UNL     1       3.654   2.363  19.365  0.00  0.00    +0.000 A 
ATOM     23  C   UNL     1       4.279   3.367  18.621  0.00  0.00    +0.000 A 
ENDBRANCH   5  18
BRANCH   1  25
ATOM     24  N   UNL     1       5.615   4.157  14.247  0.00  0.00    +0.000 N 
ATOM     25  C   UNL     1       6.023   4.478  15.529  0.00  0.00    +0.000 C 
ATOM     26  O   UNL     1       7.024   3.994  16.049  0.00  0.00    +0.000 OA
ATOM     27  H   UNL     1       4.948   4.754  13.763  0.00  0.00    +0.000 HD
BRANCH  24  28
ATOM     28  N   UNL     1       6.419   3.320  13.467  0.00  0.00    +0.000 N 
ATOM     29  H   UNL     1       7.212   2.866  13.924  0.00  0.00    +0.000 HD
BRANCH  28  30
ATOM     30  C   UNL     1       6.018   2.902  12.234  0.00  0.00    +0.000 C 
ATOM     31  S   UNL     1       4.530   3.278  11.613  0.00  0.00    +0.000 S 
BRANCH  30  32
ATOM     32  N   UNL     1       6.894   2.126  11.548  0.00  0.00    +0.000 N 
ATOM     33  H   UNL     1       6.605   1.834  10.621  0.00  0.00    +0.000 HD
ATOM     34  H   UNL     1       7.880   2.317  11.658  0.00  0.00    +0.000 HD
ENDBRANCH  30  32
ENDBRANCH  28  30
ENDBRANCH  24  28
ENDBRANCH   1  25
TORSDOF 8
ENDMDL
MODEL 2
REMARK VINA RESULT:      -8.2      0.957      1.099
REMARK  Name = 
REMARK  8 active torsions:
REMARK  status: ('A' for Active; 'I' for Inactive)
REMARK    1  A    between atoms: N_1  and  C_2
REMARK    2  A    between atoms: C_2  and  N_4
REMARK    3  A    between atoms: N_4  and  N_5
REMARK    4  A    between atoms: C_6  and  C_8
REMARK    5  A    between atoms: N_11  and  C_12
REMARK    6  A    between atoms: C_15  and  S_16
REMARK    7  A    between atoms: S_16  and  N_17
REMARK    8  A    between atoms: C_22  and  C_23
REMARK                            x       y       z     vdW  Elec       q    Type
REMARK                         _______ _______ _______ _____ _____    ______ ____
ROOT
ATOM      1  C   UNL     1       4.934   5.615  16.558  0.00  0.00    +0.000 A 
ATOM      2  N   UNL     1       5.155   6.944  16.285  0.00  0.00    +0.000 NA
ATOM      3  N   UNL     1       4.233   7.656  16.907  0.00  0.00    +0.000 NA
ATOM      4  N   UNL     1       3.522   6.826  17.706  0.00  0.00    +0.000 N 
ATOM      5  C   UNL     1       3.853   5.492  17.426  0.00  0.00    +0.000 A 
ENDROOT
BRANCH   4   6
ATOM      6  C   UNL     1       2.583   7.353  18.643  0.00  0.00    +0.000 A 
ATOM      7  C   UNL     1       2.414   6.734  19.884  0.00  0.00    +0.000 A 
ATOM      8  C   UNL     1       1.703   7.398  20.893  0.00  0.00    +0.000 A 
ATOM      9  C   UNL     1       1.159   8.664  20.641  0.00  0.00    +0.000 A 
ATOM     10  C   UNL     1       1.222   9.222  19.366  0.00  0.00    +0.000 A 
ATOM     11  C   UNL     1       1.907   8.550  18.358  0.00  0.00    +0.000 A 
BRANCH   9  12
ATOM     12  S   UNL     1       0.360   9.569  21.935  0.00  0.00    +0.000 S 
ATOM     13  O   UNL     1       1.278   9.733  23.037  0.00  0.00    +0.000 OA
ATOM     14  O   UNL     1      -0.375  10.668  21.364  0.00  0.00    +0.000 OA
BRANCH  12  15
ATOM     15  N   UNL     1      -0.789   8.458  22.468  0.00  0.00    +0.000 NA
ATOM     16  H   UNL     1      -0.349   7.550  22.622  0.00  0.00    +0.000 HD
ATOM     17  H   UNL     1      -1.261   8.825  23.296  0.00  0.00    +0.000 HD
ENDBRANCH  12  15
ENDBRANCH   9  12
ENDBRANCH   4   6
BRANCH   5  18
ATOM     18  C   UNL     1       3.187   4.312  17.996  0.00  0.00    +0.000 A 
ATOM     19  C   UNL     1       1.859   3.997  17.663  0.00  0.00    +0.000 A 
ATOM     20  C   UNL     1       1.132   3.073  18.416  0.00  0.00    +0.000 A 
ATOM     21  C   UNL     1       1.758   2.370  19.439  0.00  0.00    +0.000 A 
ATOM     22  C   UNL     1       3.111   2.573  19.692  0.00  0.00    +0.000 A 
ATOM     23  C   UNL     1       3.819   3.547  18.984  0.00  0.00    +0.000 A 
ENDBRANCH   5  18
BRANCH   1  25
ATOM     24  N   UNL     1       5.465   4.352  14.631  0.00  0.00    +0.000 N 
ATOM     25  C   UNL     1       5.758   4.571  15.966  0.00  0.00    +0.000 C 
ATOM     26  O   UNL     1       6.654   3.974  16.557  0.00  0.00    +0.000 OA
ATOM     27  H   UNL     1       4.906   5.028  14.117  0.00  0.00    +0.000 HD
BRANCH  24  28
ATOM     28  N   UNL     1       6.277   3.486  13.891  0.00  0.00    +0.000 N 
ATOM     29  H   UNL     1       6.695   2.694  14.382  0.00  0.00    +0.000 HD
BRANCH  28  30
ATOM     30  C   UNL     1       6.294   3.525  12.530  0.00  0.00    +0.000 C 
ATOM     31  S   UNL     1       5.216   2.671  11.606  0.00  0.00    +0.000 S 
BRANCH  30  32
ATOM     32  N   UNL     1       7.269   4.278  11.961  0.00  0.00    +0.000 N 
ATOM     33  H   UNL     1       7.945   3.782  11.392  0.00  0.00    +0.000 HD
ATOM     34  H   UNL     1       7.023   5.204  11.640  0.00  0.00    +0.000 HD
ENDBRANCH  30  32
ENDBRANCH  28  30
ENDBRANCH  24  28
ENDBRANCH   1  25
TORSDOF 8
ENDMDL
MODEL 3
REMARK VINA RESULT:      -8.1      1.905      2.473
REMARK  Name = 
REMARK  8 active torsions:
REMARK  status: ('A' for Active; 'I' for Inactive)
REMARK    1  A    between atoms: N_1  and  C_2
REMARK    2  A    between atoms: C_2  and  N_4
REMARK    3  A    between atoms: N_4  and  N_5
REMARK    4  A    between atoms: C_6  and  C_8
REMARK    5  A    between atoms: N_11  and  C_12
REMARK    6  A    between atoms: C_15  and  S_16
REMARK    7  A    between atoms: S_16  and  N_17
REMARK    8  A    between atoms: C_22  and  C_23
REMARK                            x       y       z     vdW  Elec       q    Type
REMARK                         _______ _______ _______ _____ _____    ______ ____
ROOT
ATOM      1  C   UNL     1       3.953   6.171  17.639  0.00  0.00    +0.000 A 
ATOM      2  N   UNL     1       4.198   7.428  17.140  0.00  0.00    +0.000 NA
ATOM      3  N   UNL     1       3.289   8.254  17.626  0.00  0.00    +0.000 NA
ATOM      4  N   UNL     1       2.563   7.588  18.555  0.00  0.00    +0.000 N 
ATOM      5  C   UNL     1       2.870   6.220  18.512  0.00  0.00    +0.000 A 
ENDROOT
BRANCH   4   6
ATOM      6  C   UNL     1       1.634   8.287  19.384  0.00  0.00    +0.000 A 
ATOM      7  C   UNL     1       1.629   8.068  20.763  0.00  0.00    +0.000 A 
ATOM      8  C   UNL     1       0.914   8.941  21.595  0.00  0.00    +0.000 A 
ATOM      9  C   UNL     1       0.204  10.009  21.034  0.00  0.00    +0.000 A 
ATOM     10  C   UNL     1       0.109  10.149  19.651  0.00  0.00    +0.000 A 
ATOM     11  C   UNL     1       0.799   9.267  18.825  0.00  0.00    +0.000 A 
BRANCH   9  12
ATOM     12  S   UNL     1      -0.608  11.189  22.073  0.00  0.00    +0.000 S 
ATOM     13  O   UNL     1      -1.866  11.564  21.474  0.00  0.00    +0.000 OA
ATOM     14  O   UNL     1      -0.496  10.770  23.447  0.00  0.00    +0.000 OA
BRANCH  12  15
ATOM     15  N   UNL     1       0.390  12.535  21.907  0.00  0.00    +0.000 NA
ATOM     16  H   UNL     1       1.358  12.275  22.103  0.00  0.00    +0.000 HD
ATOM     17  H   UNL     1       0.260  12.945  20.981  0.00  0.00    +0.000 HD
ENDBRANCH  12  15
ENDBRANCH   9  12
ENDBRANCH   4   6
BRANCH   5  18
ATOM     18  C   UNL     1       2.183   5.169  19.277  0.00  0.00    +0.000 A 
ATOM     19  C   UNL     1       2.444   4.981  20.645  0.00  0.00    +0.000 A 
ATOM     20  C   UNL     1       2.035   3.816  21.297  0.00  0.00    +0.000 A 
ATOM     21  C   UNL     1       1.263   2.879  20.620  0.00  0.00    +0.000 A 
ATOM     22  C   UNL     1       0.882   3.117  19.303  0.00  0.00    +0.000 A 
ATOM     23  C   UNL     1       1.349   4.249  18.631  0.00  0.00    +0.000 A 
ENDBRANCH   5  18
BRANCH   1  25
ATOM     24  N   UNL     1       4.872   4.905  15.866  0.00  0.00    +0.000 N 
ATOM     25  C   UNL     1       4.758   5.024  17.240  0.00  0.00    +0.000 C 
ATOM     26  O   UNL     1       5.322   4.266  18.023  0.00  0.00    +0.000 OA
ATOM     27  H   UNL     1       4.611   5.683  15.266  0.00  0.00    +0.000 HD
BRANCH  24  28
ATOM     28  N   UNL     1       5.739   3.942  15.338  0.00  0.00    +0.000 N 
ATOM     29  H   UNL     1       5.596   2.971  15.621  0.00  0.00    +0.000 HD
BRANCH  28  30
ATOM     30  C   UNL     1       6.556   4.228  14.286  0.00  0.00    +0.000 C 
ATOM     31  S   UNL     1       6.339   3.556  12.788  0.00  0.00    +0.000 S 
BRANCH  30  32
ATOM     32  N   UNL     1       7.587   5.074  14.539  0.00  0.00    +0.000 N 
ATOM     33  H   UNL     1       8.411   4.961  13.960  0.00  0.00    +0.000 HD
ATOM     34  H   UNL     1       7.364   6.023  14.802  0.00  0.00    +0.000 HD
ENDBRANCH  30  32
ENDBRANCH  28  30
ENDBRANCH  24  28
ENDBRANCH   1  25
TORSDOF 8
ENDMDL
MODEL 4
REMARK VINA RESULT:      -8.0      0.831      1.299
REMARK  Name = 
REMARK  8 active torsions:
REMARK  status: ('A' for Active; 'I' for Inactive)
REMARK    1  A    between atoms: N_1  and  C_2
REMARK    2  A    between atoms: C_2  and  N_4
REMARK    3  A    between atoms: N_4  and  N_5
REMARK    4  A    between atoms: C_6  and  C_8
REMARK    5  A    between atoms: N_11  and  C_12
REMARK    6  A    between atoms: C_15  and  S_16
REMARK    7  A    between atoms: S_16  and  N_17
REMARK    8  A    between atoms: C_22  and  C_23
REMARK                            x       y       z     vdW  Elec       q    Type
REMARK                         _______ _______ _______ _____ _____    ______ ____
ROOT
ATOM      1  C   UNL     1       4.989   5.300  15.969  0.00  0.00    +0.000 A 
ATOM      2  N   UNL     1       5.321   6.576  15.580  0.00  0.00    +0.000 NA
ATOM      3  N   UNL     1       4.579   7.427  16.265  0.00  0.00    +0.000 NA
ATOM      4  N   UNL     1       3.894   6.733  17.204  0.00  0.00    +0.000 N 
ATOM      5  C   UNL     1       4.029   5.355  16.975  0.00  0.00    +0.000 A 
ENDROOT
BRANCH   4   6
ATOM      6  C   UNL     1       3.157   7.419  18.217  0.00  0.00    +0.000 A 
ATOM      7  C   UNL     1       2.530   8.631  17.922  0.00  0.00    +0.000 A 
ATOM      8  C   UNL     1       1.596   9.159  18.824  0.00  0.00    +0.000 A 
ATOM      9  C   UNL     1       1.314   8.474  20.013  0.00  0.00    +0.000 A 
ATOM     10  C   UNL     1       2.033   7.332  20.360  0.00  0.00    +0.000 A 
ATOM     11  C   UNL     1       2.977   6.822  19.475  0.00  0.00    +0.000 A 
BRANCH   9  12
ATOM     12  S   UNL     1       0.055   9.062  21.108  0.00  0.00    +0.000 S 
ATOM     13  O   UNL     1      -0.617  10.186  20.500  0.00  0.00    +0.000 OA
ATOM     14  O   UNL     1      -0.656   7.938  21.663  0.00  0.00    +0.000 OA
BRANCH  12  15
ATOM     15  N   UNL     1       0.970   9.710  22.365  0.00  0.00    +0.000 NA
ATOM     16  H   UNL     1       1.928   9.362  22.310  0.00  0.00    +0.000 HD
ATOM     17  H   UNL     1       0.906  10.729  22.345  0.00  0.00    +0.000 HD
ENDBRANCH  12  15
ENDBRANCH   9  12
ENDBRANCH   4   6
BRANCH   5  18
ATOM     18  C   UNL     1       3.318   4.297  17.707  0.00  0.00    +0.000 A 
ATOM     19  C   UNL     1       1.939   4.094  17.528  0.00  0.00    +0.000 A 
ATOM     20  C   UNL     1       1.210   3.310  18.424  0.00  0.00    +0.000 A 
ATOM     21  C   UNL     1       1.868   2.628  19.441  0.00  0.00    +0.000 A 
ATOM     22  C   UNL     1       3.253   2.712  19.548  0.00  0.00    +0.000 A 
ATOM     23  C   UNL     1       3.973   3.551  18.694  0.00  0.00    +0.000 A 
ENDBRANCH   5  18
BRANCH   1  25
ATOM     24  N   UNL     1       5.568   4.185  13.966  0.00  0.00    +0.000 N 
ATOM     25  C   UNL     1       5.600   4.133  15.348  0.00  0.00    +0.000 C 
ATOM     26  O   UNL     1       6.136   3.218  15.967  0.00  0.00    +0.000 OA
ATOM     27  H   UNL     1       5.352   5.061  13.496  0.00  0.00    +0.000 HD
BRANCH  24  28
ATOM     28  N   UNL     1       6.252   3.209  13.233  0.00  0.00    +0.000 N 
ATOM     29  H   UNL     1       7.029   2.731  13.693  0.00  0.00    +0.000 HD
BRANCH  28  30
ATOM     30  C   UNL     1       5.745   2.715  12.070  0.00  0.00    +0.000 C 
ATOM     31  S   UNL     1       4.333   3.276  11.410  0.00  0.00    +0.000 S 
BRANCH  30  32
ATOM     32  N   UNL     1       6.442   1.704  11.492  0.00  0.00    +0.000 N 
ATOM     33  H   UNL     1       7.358   1.942  11.128  0.00  0.00    +0.000 HD
ATOM     34  H   UNL     1       6.358   0.782  11.895  0.00  0.00    +0.000 HD
ENDBRANCH  30  32
ENDBRANCH  28  30
ENDBRANCH  24  28
ENDBRANCH   1  25
TORSDOF 8
ENDMDL
MODEL 5
REMARK VINA RESULT:      -8.0      4.090      5.290
REMARK  Name = 
REMARK  8 active torsions:
REMARK  status: ('A' for Active; 'I' for Inactive)
REMARK    1  A    between atoms: N_1  and  C_2
REMARK    2  A    between atoms: C_2  and  N_4
REMARK    3  A    between atoms: N_4  and  N_5
REMARK    4  A    between atoms: C_6  and  C_8
REMARK    5  A    between atoms: N_11  and  C_12
REMARK    6  A    between atoms: C_15  and  S_16
REMARK    7  A    between atoms: S_16  and  N_17
REMARK    8  A    between atoms: C_22  and  C_23
REMARK                            x       y       z     vdW  Elec       q    Type
REMARK                         _______ _______ _______ _____ _____    ______ ____
ROOT
ATOM      1  C   UNL     1       3.258   3.377  19.685  0.00  0.00    +0.000 A 
ATOM      2  N   UNL     1       2.113   3.405  20.444  0.00  0.00    +0.000 NA
ATOM      3  N   UNL     1       1.760   4.666  20.618  0.00  0.00    +0.000 NA
ATOM      4  N   UNL     1       2.561   5.442  19.851  0.00  0.00    +0.000 N 
ATOM      5  C   UNL     1       3.613   4.675  19.329  0.00  0.00    +0.000 A 
ENDROOT
BRANCH   4   6
ATOM      6  C   UNL     1       2.283   6.833  19.692  0.00  0.00    +0.000 A 
ATOM      7  C   UNL     1       2.433   7.435  18.441  0.00  0.00    +0.000 A 
ATOM      8  C   UNL     1       1.908   8.717  18.227  0.00  0.00    +0.000 A 
ATOM      9  C   UNL     1       1.254   9.383  19.272  0.00  0.00    +0.000 A 
ATOM     10  C   UNL     1       1.218   8.831  20.551  0.00  0.00    +0.000 A 
ATOM     11  C   UNL     1       1.761   7.569  20.768  0.00  0.00    +0.000 A 
BRANCH   9  12
ATOM     12  S   UNL     1       0.483  10.951  18.991  0.00  0.00    +0.000 S 
ATOM     13  O   UNL     1      -0.364  11.272  20.114  0.00  0.00    +0.000 OA
ATOM     14  O   UNL     1       1.457  11.872  18.462  0.00  0.00    +0.000 OA
BRANCH  12  15
ATOM     15  N   UNL     1      -0.566  10.593  17.722  0.00  0.00    +0.000 NA
ATOM     16  H   UNL     1      -0.218   9.785  17.203  0.00  0.00    +0.000 HD
ATOM     17  H   UNL     1      -1.511  10.466  18.085  0.00  0.00    +0.000 HD
ENDBRANCH  12  15
ENDBRANCH   9  12
ENDBRANCH   4   6
BRANCH   5  18
ATOM     18  C   UNL     1       4.753   5.202  18.564  0.00  0.00    +0.000 A 
ATOM     19  C   UNL     1       4.668   5.388  17.174  0.00  0.00    +0.000 A 
ATOM     20  C   UNL     1       5.818   5.594  16.410  0.00  0.00    +0.000 A 
ATOM     21  C   UNL     1       7.052   5.730  17.037  0.00  0.00    +0.000 A 
ATOM     22  C   UNL     1       7.131   5.683  18.425  0.00  0.00    +0.000 A 
ATOM     23  C   UNL     1       5.991   5.408  19.185  0.00  0.00    +0.000 A 
ENDBRANCH   5  18
BRANCH   1  25
ATOM     24  N   UNL     1       4.898   1.787  20.294  0.00  0.00    +0.000 N 
ATOM     25  C   UNL     1       3.928   2.123  19.367  0.00  0.00    +0.000 C 
ATOM     26  O   UNL     1       3.641   1.405  18.413  0.00  0.00    +0.000 OA
ATOM     27  H   UNL     1       4.930   2.264  21.191  0.00  0.00    +0.000 HD
BRANCH  24  28
ATOM     28  N   UNL     1       5.519   0.536  20.203  0.00  0.00    +0.000 N 
ATOM     29  H   UNL     1       5.706   0.167  19.269  0.00  0.00    +0.000 HD
BRANCH  28  30
ATOM     30  C   UNL     1       6.101  -0.043  21.289  0.00  0.00    +0.000 C 
ATOM     31  S   UNL     1       6.642  -1.608  21.275  0.00  0.00    +0.000 S 
BRANCH  30  32
ATOM     32  N   UNL     1       6.186   0.723  22.406  0.00  0.00    +0.000 N 
ATOM     33  H   UNL     1       6.813   0.393  23.131  0.00  0.00    +0.000 HD
ATOM     34  H   UNL     1       6.137   1.726  22.295  0.00  0.00    +0.000 HD
ENDBRANCH  30  32
ENDBRANCH  28  30
ENDBRANCH  24  28
ENDBRANCH   1  25
TORSDOF 8
ENDMDL
MODEL 6
REMARK VINA RESULT:      -7.9      1.848      3.129
REMARK  Name = 
REMARK  8 active torsions:
REMARK  status: ('A' for Active; 'I' for Inactive)
REMARK    1  A    between atoms: N_1  and  C_2
REMARK    2  A    between atoms: C_2  and  N_4
REMARK    3  A    between atoms: N_4  and  N_5
REMARK    4  A    between atoms: C_6  and  C_8
REMARK    5  A    between atoms: N_11  and  C_12
REMARK    6  A    between atoms: C_15  and  S_16
REMARK    7  A    between atoms: S_16  and  N_17
REMARK    8  A    between atoms: C_22  and  C_23
REMARK                            x       y       z     vdW  Elec       q    Type
REMARK                         _______ _______ _______ _____ _____    ______ ____
ROOT
ATOM      1  C   UNL     1       4.715   4.371  16.431  0.00  0.00    +0.000 A 
ATOM      2  N   UNL     1       3.437   3.864  16.408  0.00  0.00    +0.000 NA
ATOM      3  N   UNL     1       2.741   4.447  17.367  0.00  0.00    +0.000 NA
ATOM      4  N   UNL     1       3.496   5.435  17.901  0.00  0.00    +0.000 N 
ATOM      5  C   UNL     1       4.811   5.346  17.419  0.00  0.00    +0.000 A 
ENDROOT
BRANCH   4   6
ATOM      6  C   UNL     1       2.928   6.359  18.829  0.00  0.00    +0.000 A 
ATOM      7  C   UNL     1       2.698   7.682  18.444  0.00  0.00    +0.000 A 
ATOM      8  C   UNL     1       1.902   8.505  19.253  0.00  0.00    +0.000 A 
ATOM      9  C   UNL     1       1.361   7.998  20.441  0.00  0.00    +0.000 A 
ATOM     10  C   UNL     1       1.696   6.719  20.883  0.00  0.00    +0.000 A 
ATOM     11  C   UNL     1       2.505   5.912  20.091  0.00  0.00    +0.000 A 
BRANCH   9  12
ATOM     12  S   UNL     1       0.260   8.983  21.415  0.00  0.00    +0.000 S 
ATOM     13  O   UNL     1      -0.803   8.148  21.920  0.00  0.00    +0.000 OA
ATOM     14  O   UNL     1       1.029   9.861  22.260  0.00  0.00    +0.000 OA
BRANCH  12  15
ATOM     15  N   UNL     1      -0.452   9.960  20.242  0.00  0.00    +0.000 NA
ATOM     16  H   UNL     1       0.206  10.120  19.478  0.00  0.00    +0.000 HD
ATOM     17  H   UNL     1      -1.333   9.543  19.938  0.00  0.00    +0.000 HD
ENDBRANCH  12  15
ENDBRANCH   9  12
ENDBRANCH   4   6
BRANCH   5  18
ATOM     18  C   UNL     1       5.943   6.164  17.879  0.00  0.00    +0.000 A 
ATOM     19  C   UNL     1       6.262   7.379  17.250  0.00  0.00    +0.000 A 
ATOM     20  C   UNL     1       7.492   8.000  17.477  0.00  0.00    +0.000 A 
ATOM     21  C   UNL     1       8.370   7.474  18.418  0.00  0.00    +0.000 A 
ATOM     22  C   UNL     1       8.008   6.345  19.147  0.00  0.00    +0.000 A 
ATOM     23  C   UNL     1       6.808   5.686  18.871  0.00  0.00    +0.000 A 
ENDBRANCH   5  18
BRANCH   1  25
ATOM     24  N   UNL     1       5.311   3.823  14.210  0.00  0.00    +0.000 N 
ATOM     25  C   UNL     1       5.743   3.881  15.523  0.00  0.00    +0.000 C 
ATOM     26  O   UNL     1       6.888   3.595  15.861  0.00  0.00    +0.000 OA
ATOM     27  H   UNL     1       4.458   4.302  13.935  0.00  0.00    +0.000 HD
BRANCH  24  28
ATOM     28  N   UNL     1       6.235   3.518  13.204  0.00  0.00    +0.000 N 
ATOM     29  H   UNL     1       7.227   3.600  13.433  0.00  0.00    +0.000 HD
BRANCH  28  30
ATOM     30  C   UNL     1       5.853   2.876  12.066  0.00  0.00    +0.000 C 
ATOM     31  S   UNL     1       4.407   3.183  11.318  0.00  0.00    +0.000 S 
BRANCH  30  32
ATOM     32  N   UNL     1       6.709   1.937  11.589  0.00  0.00    +0.000 N 
ATOM     33  H   UNL     1       7.667   1.996  11.915  0.00  0.00    +0.000 HD
ATOM     34  H   UNL     1       6.353   1.002  11.447  0.00  0.00    +0.000 HD
ENDBRANCH  30  32
ENDBRANCH  28  30
ENDBRANCH  24  28
ENDBRANCH   1  25
TORSDOF 8
ENDMDL
MODEL 7
REMARK VINA RESULT:      -7.7      0.579      1.415
REMARK  Name = 
REMARK  8 active torsions:
REMARK  status: ('A' for Active; 'I' for Inactive)
REMARK    1  A    between atoms: N_1  and  C_2
REMARK    2  A    between atoms: C_2  and  N_4
REMARK    3  A    between atoms: N_4  and  N_5
REMARK    4  A    between atoms: C_6  and  C_8
REMARK    5  A    between atoms: N_11  and  C_12
REMARK    6  A    between atoms: C_15  and  S_16
REMARK    7  A    between atoms: S_16  and  N_17
REMARK    8  A    between atoms: C_22  and  C_23
REMARK                            x       y       z     vdW  Elec       q    Type
REMARK                         _______ _______ _______ _____ _____    ______ ____
ROOT
ATOM      1  C   UNL     1       4.915   5.359  15.998  0.00  0.00    +0.000 A 
ATOM      2  N   UNL     1       5.173   6.631  15.546  0.00  0.00    +0.000 NA
ATOM      3  N   UNL     1       4.434   7.477  16.241  0.00  0.00    +0.000 NA
ATOM      4  N   UNL     1       3.829   6.793  17.240  0.00  0.00    +0.000 N 
ATOM      5  C   UNL     1       4.008   5.414  17.052  0.00  0.00    +0.000 A 
ENDROOT
BRANCH   4   6
ATOM      6  C   UNL     1       3.120   7.486  18.267  0.00  0.00    +0.000 A 
ATOM      7  C   UNL     1       2.501   8.706  17.985  0.00  0.00    +0.000 A 
ATOM      8  C   UNL     1       1.590   9.244  18.904  0.00  0.00    +0.000 A 
ATOM      9  C   UNL     1       1.323   8.561  20.098  0.00  0.00    +0.000 A 
ATOM     10  C   UNL     1       2.035   7.411  20.431  0.00  0.00    +0.000 A 
ATOM     11  C   UNL     1       2.956   6.891  19.528  0.00  0.00    +0.000 A 
BRANCH   9  12
ATOM     12  S   UNL     1       0.091   9.163  21.217  0.00  0.00    +0.000 S 
ATOM     13  O   UNL     1      -0.763   8.070  21.616  0.00  0.00    +0.000 OA
ATOM     14  O   UNL     1       0.706  10.057  22.165  0.00  0.00    +0.000 OA
BRANCH  12  15
ATOM     15  N   UNL     1      -0.850  10.125  20.203  0.00  0.00    +0.000 NA
ATOM     16  H   UNL     1      -1.692   9.617  19.927  0.00  0.00    +0.000 HD
ATOM     17  H   UNL     1      -1.046  11.015  20.662  0.00  0.00    +0.000 HD
ENDBRANCH  12  15
ENDBRANCH   9  12
ENDBRANCH   4   6
BRANCH   5  18
ATOM     18  C   UNL     1       3.381   4.356  17.858  0.00  0.00    +0.000 A 
ATOM     19  C   UNL     1       4.132   3.602  18.776  0.00  0.00    +0.000 A 
ATOM     20  C   UNL     1       3.624   2.417  19.312  0.00  0.00    +0.000 A 
ATOM     21  C   UNL     1       2.319   2.032  19.027  0.00  0.00    +0.000 A 
ATOM     22  C   UNL     1       1.517   2.840  18.227  0.00  0.00    +0.000 A 
ATOM     23  C   UNL     1       2.048   3.989  17.635  0.00  0.00    +0.000 A 
ENDBRANCH   5  18
BRANCH   1  25
ATOM     24  N   UNL     1       5.581   4.275  14.005  0.00  0.00    +0.000 N 
ATOM     25  C   UNL     1       5.540   4.194  15.385  0.00  0.00    +0.000 C 
ATOM     26  O   UNL     1       6.027   3.258  16.013  0.00  0.00    +0.000 OA
ATOM     27  H   UNL     1       5.404   5.163  13.543  0.00  0.00    +0.000 HD
BRANCH  24  28
ATOM     28  N   UNL     1       6.287   3.302  13.289  0.00  0.00    +0.000 N 
ATOM     29  H   UNL     1       7.064   2.838  13.762  0.00  0.00    +0.000 HD
BRANCH  28  30
ATOM     30  C   UNL     1       5.802   2.792  12.124  0.00  0.00    +0.000 C 
ATOM     31  S   UNL     1       4.355   3.276  11.479  0.00  0.00    +0.000 S 
BRANCH  30  32
ATOM     32  N   UNL     1       6.554   1.832  11.528  0.00  0.00    +0.000 N 
ATOM     33  H   UNL     1       6.797   1.032  12.102  0.00  0.00    +0.000 HD
ATOM     34  H   UNL     1       6.380   1.633  10.553  0.00  0.00    +0.000 HD
ENDBRANCH  30  32
ENDBRANCH  28  30
ENDBRANCH  24  28
ENDBRANCH   1  25
TORSDOF 8
ENDMDL
MODEL 8
REMARK VINA RESULT:      -7.6      1.847      2.094
REMARK  Name = 
REMARK  8 active torsions:
REMARK  status: ('A' for Active; 'I' for Inactive)
REMARK    1  A    between atoms: N_1  and  C_2
REMARK    2  A    between atoms: C_2  and  N_4
REMARK    3  A    between atoms: N_4  and  N_5
REMARK    4  A    between atoms: C_6  and  C_8
REMARK    5  A    between atoms: N_11  and  C_12
REMARK    6  A    between atoms: C_15  and  S_16
REMARK    7  A    between atoms: S_16  and  N_17
REMARK    8  A    between atoms: C_22  and  C_23
REMARK                            x       y       z     vdW  Elec       q    Type
REMARK                         _______ _______ _______ _____ _____    ______ ____
ROOT
ATOM      1  C   UNL     1       4.215   6.188  17.344  0.00  0.00    +0.000 A 
ATOM      2  N   UNL     1       4.364   7.447  16.816  0.00  0.00    +0.000 NA
ATOM      3  N   UNL     1       3.423   8.225  17.320  0.00  0.00    +0.000 NA
ATOM      4  N   UNL     1       2.772   7.534  18.286  0.00  0.00    +0.000 N 
ATOM      5  C   UNL     1       3.162   6.186  18.255  0.00  0.00    +0.000 A 
ENDROOT
BRANCH   4   6
ATOM      6  C   UNL     1       1.831   8.189  19.135  0.00  0.00    +0.000 A 
ATOM      7  C   UNL     1       1.792   7.886  20.498  0.00  0.00    +0.000 A 
ATOM      8  C   UNL     1       1.066   8.713  21.367  0.00  0.00    +0.000 A 
ATOM      9  C   UNL     1       0.378   9.821  20.857  0.00  0.00    +0.000 A 
ATOM     10  C   UNL     1       0.316  10.046  19.483  0.00  0.00    +0.000 A 
ATOM     11  C   UNL     1       1.017   9.211  18.620  0.00  0.00    +0.000 A 
BRANCH   9  12
ATOM     12  S   UNL     1      -0.447  10.942  21.949  0.00  0.00    +0.000 S 
ATOM     13  O   UNL     1      -1.058  10.197  23.023  0.00  0.00    +0.000 OA
ATOM     14  O   UNL     1       0.394  12.089  22.179  0.00  0.00    +0.000 OA
BRANCH  12  15
ATOM     15  N   UNL     1      -1.724  11.478  20.989  0.00  0.00    +0.000 NA
ATOM     16  H   UNL     1      -2.612  11.262  21.442  0.00  0.00    +0.000 HD
ATOM     17  H   UNL     1      -1.604  12.470  20.783  0.00  0.00    +0.000 HD
ENDBRANCH  12  15
ENDBRANCH   9  12
ENDBRANCH   4   6
BRANCH   5  18
ATOM     18  C   UNL     1       2.569   5.109  19.062  0.00  0.00    +0.000 A 
ATOM     19  C   UNL     1       1.537   4.305  18.549  0.00  0.00    +0.000 A 
ATOM     20  C   UNL     1       0.774   3.497  19.395  0.00  0.00    +0.000 A 
ATOM     21  C   UNL     1       1.105   3.398  20.742  0.00  0.00    +0.000 A 
ATOM     22  C   UNL     1       2.209   4.085  21.236  0.00  0.00    +0.000 A 
ATOM     23  C   UNL     1       2.930   4.946  20.404  0.00  0.00    +0.000 A 
ENDBRANCH   5  18
BRANCH   1  25
ATOM     24  N   UNL     1       4.993   4.818  15.581  0.00  0.00    +0.000 N 
ATOM     25  C   UNL     1       5.075   5.086  16.936  0.00  0.00    +0.000 C 
ATOM     26  O   UNL     1       5.835   4.482  17.689  0.00  0.00    +0.000 OA
ATOM     27  H   UNL     1       4.557   5.492  14.957  0.00  0.00    +0.000 HD
BRANCH  24  28
ATOM     28  N   UNL     1       5.874   3.889  15.018  0.00  0.00    +0.000 N 
ATOM     29  H   UNL     1       5.780   2.913  15.306  0.00  0.00    +0.000 HD
BRANCH  28  30
ATOM     30  C   UNL     1       6.635   4.205  13.934  0.00  0.00    +0.000 C 
ATOM     31  S   UNL     1       6.440   3.462  12.467  0.00  0.00    +0.000 S 
BRANCH  30  32
ATOM     32  N   UNL     1       7.595   5.144  14.127  0.00  0.00    +0.000 N 
ATOM     33  H   UNL     1       8.493   4.808  14.456  0.00  0.00    +0.000 HD
ATOM     34  H   UNL     1       7.630   5.923  13.485  0.00  0.00    +0.000 HD
ENDBRANCH  30  32
ENDBRANCH  28  30
ENDBRANCH  24  28
ENDBRANCH   1  25
TORSDOF 8
ENDMDL
MODEL 9
REMARK VINA RESULT:      -7.6      1.388      1.714
REMARK  Name = 
REMARK  8 active torsions:
REMARK  status: ('A' for Active; 'I' for Inactive)
REMARK    1  A    between atoms: N_1  and  C_2
REMARK    2  A    between atoms: C_2  and  N_4
REMARK    3  A    between atoms: N_4  and  N_5
REMARK    4  A    between atoms: C_6  and  C_8
REMARK    5  A    between atoms: N_11  and  C_12
REMARK    6  A    between atoms: C_15  and  S_16
REMARK    7  A    between atoms: S_16  and  N_17
REMARK    8  A    between atoms: C_22  and  C_23
REMARK                            x       y       z     vdW  Elec       q    Type
REMARK                         _______ _______ _______ _____ _____    ______ ____
ROOT
ATOM      1  C   UNL     1       4.523   5.842  16.899  0.00  0.00    +0.000 A 
ATOM      2  N   UNL     1       4.778   7.118  16.456  0.00  0.00    +0.000 NA
ATOM      3  N   UNL     1       3.865   7.926  16.964  0.00  0.00    +0.000 NA
ATOM      4  N   UNL     1       3.126   7.225  17.856  0.00  0.00    +0.000 N 
ATOM      5  C   UNL     1       3.429   5.858  17.760  0.00  0.00    +0.000 A 
ENDROOT
BRANCH   4   6
ATOM      6  C   UNL     1       2.188   7.891  18.701  0.00  0.00    +0.000 A 
ATOM      7  C   UNL     1       2.077   7.525  20.044  0.00  0.00    +0.000 A 
ATOM      8  C   UNL     1       1.363   8.350  20.925  0.00  0.00    +0.000 A 
ATOM      9  C   UNL     1       0.759   9.519  20.446  0.00  0.00    +0.000 A 
ATOM     10  C   UNL     1       0.766   9.814  19.084  0.00  0.00    +0.000 A 
ATOM     11  C   UNL     1       1.454   8.982  18.207  0.00  0.00    +0.000 A 
BRANCH   9  12
ATOM     12  S   UNL     1      -0.047  10.631  21.561  0.00  0.00    +0.000 S 
ATOM     13  O   UNL     1      -0.691   9.873  22.607  0.00  0.00    +0.000 OA
ATOM     14  O   UNL     1       0.824  11.747  21.833  0.00  0.00    +0.000 OA
BRANCH  12  15
ATOM     15  N   UNL     1      -1.296  11.230  20.603  0.00  0.00    +0.000 NA
ATOM     16  H   UNL     1      -1.495  12.199  20.858  0.00  0.00    +0.000 HD
ATOM     17  H   UNL     1      -1.059  11.111  19.618  0.00  0.00    +0.000 HD
ENDBRANCH  12  15
ENDBRANCH   9  12
ENDBRANCH   4   6
BRANCH   5  18
ATOM     18  C   UNL     1       2.729   4.779  18.472  0.00  0.00    +0.000 A 
ATOM     19  C   UNL     1       3.270   4.212  19.639  0.00  0.00    +0.000 A 
ATOM     20  C   UNL     1       2.778   3.005  20.141  0.00  0.00    +0.000 A 
ATOM     21  C   UNL     1       1.667   2.412  19.552  0.00  0.00    +0.000 A 
ATOM     22  C   UNL     1       1.038   3.034  18.478  0.00  0.00    +0.000 A 
ATOM     23  C   UNL     1       1.573   4.204  17.933  0.00  0.00    +0.000 A 
ENDBRANCH   5  18
BRANCH   1  25
ATOM     24  N   UNL     1       5.309   4.537  15.091  0.00  0.00    +0.000 N 
ATOM     25  C   UNL     1       5.329   4.711  16.463  0.00  0.00    +0.000 C 
ATOM     26  O   UNL     1       6.002   4.007  17.213  0.00  0.00    +0.000 OA
ATOM     27  H   UNL     1       4.956   5.279  14.492  0.00  0.00    +0.000 HD
BRANCH  24  28
ATOM     28  N   UNL     1       6.157   3.586  14.513  0.00  0.00    +0.000 N 
ATOM     29  H   UNL     1       6.248   2.685  14.986  0.00  0.00    +0.000 HD
BRANCH  28  30
ATOM     30  C   UNL     1       6.623   3.735  13.243  0.00  0.00    +0.000 C 
ATOM     31  S   UNL     1       7.616   4.987  12.805  0.00  0.00    +0.000 S 
BRANCH  30  32
ATOM     32  N   UNL     1       6.202   2.818  12.336  0.00  0.00    +0.000 N 
ATOM     33  H   UNL     1       6.919   2.228  11.928  0.00  0.00    +0.000 HD
ATOM     34  H   UNL     1       5.309   2.373  12.495  0.00  0.00    +0.000 HD
ENDBRANCH  30  32
ENDBRANCH  28  30
ENDBRANCH  24  28
ENDBRANCH   1  25
TORSDOF 8
ENDMDL
